#	Name: ASD14950001
#	Creating user name:	WinNT
#	Creation time:	15. 06. 2019 21:31

#	Modifying user name:	WinNT
#	Modification time:	15. 06. 2019 21:31

#	Program:	/corina/corina34_cracker 3.40 0067  02.08.2006

@<TRIPOS>MOLECULE
ASD14950001
  58   60    0    0    0
SMALL
NO_CHARGES


@<TRIPOS>ATOM
   1 P1            -0.0198     1.6058     0.0109 P.3     
   2 P2            -2.2801    -1.8360     5.0795 P.3     
   3 P3             2.1671     3.5690     0.3967 P.3     
   4 P4            -2.6995    -3.6506     7.3854 P.3     
   5 P5            -2.8465    -6.3863     8.5165 P.3     
   6 O6            -1.7051    -2.9884     0.8508 O.3     
   7 O7             0.0021    -0.0041     0.0020 O.3     
   8 O8            -0.2440    -1.5262    -2.0247 O.3     
   9 O9            -1.6403    -2.1112     3.6280 O.3     
  10 O10            1.4907     2.1630    -0.0006 O.3     
  11 O11           -0.7984     2.1391    -1.2935 O.3     
  12 O12           -0.7125     2.0831     1.2285 O.2     
  13 O13           -2.0184    -3.1080     6.0312 O.3     
  14 O14           -1.5968    -0.5306     5.7285 O.3     
  15 O15           -3.7369    -1.6138     4.9426 O.2     
  16 O16           -4.0809    -6.9310    -4.1889 O.2     
  17 O17            3.7599     3.3787     0.5333 O.3     
  18 O18            1.8528     4.6578    -0.7470 O.3     
  19 O19            1.6135     4.0356     1.6875 O.2     
  20 O20           -2.2503    -5.1758     7.6383 O.3     
  21 O21           -2.2274    -2.7394     8.6260 O.3     
  22 O22           -4.1725    -3.5848     7.2574 O.2     
  23 O23           -2.1700    -7.7711     8.0509 O.3     
  24 O24           -2.5255    -6.1289    10.0731 O.3     
  25 O25           -4.3116    -6.4627     8.3210 O.2     
  26 N26           -2.2147    -4.0269    -1.2390 N.pl3   
  27 N27           -0.8269    -4.9185    -3.1464 N.pl3   
  28 N28           -4.0339    -5.1057    -1.7593 N.2     
  29 N29           -1.9492    -6.4054    -4.5707 N.2     
  30 N30            0.2602    -5.8776    -4.9924 N.pl3   
  31 C31           -1.1801    -0.7991     0.1135 C.3     
  32 C32           -1.3294    -1.7226    -1.1162 C.3     
  33 C33           -1.0652    -1.7758     1.3048 C.3     
  34 C34           -1.2870    -3.1481    -0.5224 C.3     
  35 C35           -1.7948    -1.2139     2.5266 C.3     
  36 C36           -1.9353    -4.7518    -2.3564 C.2     
  37 C37           -3.5140    -4.2722    -0.9045 C.2     
  38 C38           -3.1001    -5.4364    -2.6812 C.2     
  39 C39           -3.0837    -6.3077    -3.8602 C.2     
  40 C40           -0.8676    -5.7389    -4.2286 C.2     
  41 H41           -2.0583    -0.1627     0.2221 H       
  42 H42           -2.2815    -1.5428    -1.6155 H       
  43 H43           -0.0180    -1.9649     1.5408 H       
  44 H44           -0.2739    -3.5476    -0.5666 H       
  45 H45           -2.8541    -1.0999     2.2966 H       
  46 H46           -1.3730    -0.2431     2.7869 H       
  47 H47           -0.2874    -2.0813    -2.8152 H       
  48 H48           -4.0319    -3.8417    -0.0602 H       
  49 H49           -0.0073    -4.4466    -2.9310 H       
  50 H50           -0.3990     1.8638    -2.1300 H       
  51 H51           -0.6401    -0.6056     5.8478 H       
  52 H52            1.0679    -5.3948    -4.7569 H       
  53 H53            0.2516    -6.4585    -5.7691 H       
  54 H54            4.2337     4.1873     0.7714 H       
  55 H55            2.1875     4.4172    -1.6217 H       
  56 H56           -1.2711    -2.7352     8.7694 H       
  57 H57           -2.4830    -8.5453     8.5386 H       
  58 H58           -1.5818    -6.0676    10.2751 H       
@<TRIPOS>BOND
   1    1    7 1
   2    1   10 1
   3    1   11 1
   4    1   12 2
   5    2    9 1
   6    2   13 1
   7    2   14 1
   8    2   15 2
   9    3   10 1
  10    3   17 1
  11    3   18 1
  12    3   19 2
  13    4   13 1
  14    4   20 1
  15    4   21 1
  16    4   22 2
  17    5   20 1
  18    5   23 1
  19    5   24 1
  20    5   25 2
  21    6   33 1
  22    6   34 1
  23    7   31 1
  24    8   47 1
  25    8   32 1
  26    9   35 1
  27   11   50 1
  28   14   51 1
  29   16   39 2
  30   17   54 1
  31   18   55 1
  32   21   56 1
  33   23   57 1
  34   24   58 1
  35   26   36 1
  36   26   37 1
  37   26   34 1
  38   27   36 1
  39   27   40 1
  40   27   49 1
  41   28   37 2
  42   28   38 1
  43   29   39 1
  44   29   40 2
  45   30   40 1
  46   30   52 1
  47   30   53 1
  48   31   32 1
  49   31   41 1
  50   31   33 1
  51   32   34 1
  52   32   42 1
  53   33   35 1
  54   33   43 1
  55   34   44 1
  56   35   45 1
  57   35   46 1
  58   36   38 2
  59   37   48 1
  60   38   39 1

#	End of record

