#	Name: ASD15360002
#	Creating user name:	WinNT
#	Creation time:	15. 06. 2019 21:31

#	Modifying user name:	WinNT
#	Modification time:	15. 06. 2019 21:31

#	Program:	/corina/corina34_cracker 3.40 0067  02.08.2006

@<TRIPOS>MOLECULE
ASD15360002
 143  147    0    0    0
SMALL
NO_CHARGES


@<TRIPOS>ATOM
   1 C1             8.3375     4.6541    -1.1990 C.2     
   2 C2             6.8856     4.2696    -1.0755 C.3     
   3 O3             9.2759     3.7020    -1.3206 O.3     
   4 O4             8.6564     5.8195    -1.1936 O.2     
   5 N5             6.0684     5.4797    -0.9564 N.am    
   6 C6             6.4581     3.4858    -2.3179 C.3     
   7 C7             6.7671     4.3077    -3.5708 C.3     
   8 C8             7.2239     2.1624    -2.3745 C.3     
   9 C9             5.8855     6.0533     0.2494 C.2     
  10 C10            5.0449     7.2981     0.3719 C.3     
  11 O11            6.3974     5.5678     1.2359 O.2     
  12 N12            4.5980     7.4578     1.7706 N.am    
  13 C13            3.2523     7.5010     1.9757 C.2     
  14 C14            2.7310     7.6627     3.3803 C.3     
  15 O15            2.4845     7.4110     1.0412 O.2     
  16 N16            1.3640     8.2311     3.3137 N.am    
  17 C17            2.6871     6.2988     4.0723 C.3     
  18 C18            2.2829     6.4792     5.5129 C.ar    
  19 C19            0.9462     6.4424     5.8644 C.ar    
  20 C20            0.5731     6.6075     7.1842 C.ar    
  21 C21            1.5409     6.8102     8.1573 C.ar    
  22 C22            2.8815     6.8467     7.8020 C.ar    
  23 C23            3.2498     6.6755     6.4816 C.ar    
  24 O24            1.1764     6.9733     9.4563 O.3     
  25 C25            1.2660     9.5469     3.6726 C.2     
  26 C26           -0.0875    10.2086     3.6333 C.3     
  27 O27            2.2488    10.1693     4.0153 O.2     
  28 C28           -0.8780     9.6882     2.4312 C.3     
  29 C29           -2.2965    10.2603     2.4672 C.3     
  30 C30           -3.0341     9.8762     1.1830 C.3     
  31 C31           -4.4527    10.4484     1.2190 C.3     
  32 N32           -5.1609    10.0795    -0.0140 N.3     
  33 N33            0.0995    11.6684     3.5084 N.am    
  34 C34           -0.3101    12.2340     2.3393 C.2     
  35 C35           -0.1448    13.7195     2.1472 C.3     
  36 O36           -0.8008    11.5517     1.4649 O.2     
  37 N37            0.0317    13.9911     0.7011 N.am    
  38 C38           -1.3909    14.4456     2.6581 C.3     
  39 C39           -1.1728    15.9346     2.5781 C.ar    
  40 C40            1.2773    14.4255     0.3411 C.2     
  41 C41            1.5476    14.7236    -1.1112 C.3     
  42 O42            2.1471    14.5685     1.1741 O.2     
  43 N43            2.9957    14.5822    -1.3649 N.am    
  44 C44            3.4128    13.3768    -1.8425 C.2     
  45 C45            0.7744    13.7377    -1.9894 C.3     
  46 C46            1.1165    13.9794    -3.4371 C.ar    
  47 C47            1.5408    12.9307    -4.2315 C.ar    
  48 C48            1.8546    13.1525    -5.5593 C.ar    
  49 C49            1.7436    14.4229    -6.0929 C.ar    
  50 C50            1.3185    15.4714    -5.2988 C.ar    
  51 C51            1.0005    15.2488    -3.9720 C.ar    
  52 C52            4.8793    13.1687    -2.1204 C.3     
  53 O53            2.6160    12.4842    -2.0408 O.2     
  54 C54            5.0825    11.8131    -2.8001 C.3     
  55 N55            5.6244    13.1992    -0.8594 N.am    
  56 C56            6.0223    14.3776    -0.3401 C.2     
  57 C57            6.7887    14.4090     0.9570 C.3     
  58 O58            5.7635    15.4127    -0.9168 O.2     
  59 N59            6.6920    15.7493     1.5506 N.3     
  60 C60            8.2576    14.0744     0.6898 C.3     
  61 S61            6.3290    10.8608    -1.8889 S.3     
  62 C62            5.8771     8.5197    -0.0232 C.3     
  63 S63            5.4625     9.0107    -1.7196 S.3     
  64 C64           -1.5254    16.6213     1.4296 C.ar    
  65 C65           -1.3288    17.9841     1.3492 C.ar    
  66 C66           -0.7726    18.6713     2.4313 C.ar    
  67 C67           -0.4195    17.9712     3.5879 C.ar    
  68 C68           -0.6264    16.6093     3.6557 C.ar    
  69 C69           -0.5650    20.0861     2.3551 C.1     
  70 C70           -0.3948    21.2461     2.2927 C.1     
  71 C71           -0.1872    22.6609     2.2165 C.ar    
  72 C72            0.3690    23.3481     3.2986 C.ar    
  73 C73            0.5660    24.7108     3.2180 C.ar    
  74 C74            0.2142    25.3974     2.0692 C.ar    
  75 C75           -0.3375    24.7236     0.9938 C.ar    
  76 C76           -0.5346    23.3600     1.0576 C.ar    
  77 H77            6.7480     3.6496    -0.1896 H       
  78 H78           10.1931     3.9974    -1.4009 H       
  79 H79            5.6590     5.8680    -1.7453 H       
  80 H80            5.3879     3.2845    -2.2702 H       
  81 H81            6.2215     5.2505    -3.5305 H       
  82 H82            7.8373     4.5090    -3.6186 H       
  83 H83            6.4625     3.7493    -4.4560 H       
  84 H84            7.0037     1.5768    -1.4819 H       
  85 H85            6.9193     1.6040    -3.2597 H       
  86 H86            8.2940     2.3636    -2.4223 H       
  87 H87            4.1766     7.2183    -0.2821 H       
  88 H88            5.2291     7.5284     2.5038 H       
  89 H89            3.3813     8.3377     3.9367 H       
  90 H90            0.5956     7.7084     3.0356 H       
  91 H91            1.9622     5.6591     3.5689 H       
  92 H92            3.6731     5.8364     4.0268 H       
  93 H93            0.1931     6.2849     5.1064 H       
  94 H94           -0.4712     6.5791     7.4582 H       
  95 H95            3.6368     7.0044     8.5576 H       
  96 H96            4.2932     6.7038     6.2044 H       
  97 H97            1.1275     6.1479     9.9577 H       
  98 H98           -0.6301     9.9851     4.5518 H       
  99 H99           -0.3845     9.9981     1.5101 H       
 100 H100          -0.9241     8.5998     2.4702 H       
 101 H101          -2.8298     9.8557     3.3274 H       
 102 H102          -2.2483    11.3463     2.5475 H       
 103 H103          -2.5009    10.2808     0.3228 H       
 104 H104          -3.0823     8.7902     1.1026 H       
 105 H105          -4.9859    10.0437     2.0792 H       
 106 H106          -4.4045    11.5343     1.2993 H       
 107 H107          -5.1628     9.0790    -0.1444 H       
 108 H108          -6.1010    10.4460    -0.0145 H       
 109 H109           0.4928    12.1961     4.2210 H       
 110 H110           0.7330    14.0639     2.6941 H       
 111 H111          -0.6838    13.8700     0.0574 H       
 112 H112          -2.2488    14.1705     2.0446 H       
 113 H113          -1.5783    14.1609     3.6934 H       
 114 H114           1.2345    15.7424    -1.3395 H       
 115 H115           3.6165    15.3091    -1.2005 H       
 116 H116           1.0466    12.7179    -1.7172 H       
 117 H117          -0.2958    13.8803    -1.8403 H       
 118 H118           1.6275    11.9382    -3.8146 H       
 119 H119           2.1868    12.3333    -6.1798 H       
 120 H120           1.9895    14.5963    -7.1302 H       
 121 H121           1.2321    16.4640    -5.7155 H       
 122 H122           0.6683    16.0680    -3.3515 H       
 123 H123           5.2411    13.9613    -2.7754 H       
 124 H124           4.1402    11.2653    -2.8070 H       
 125 H125           5.4206    11.9675    -3.8247 H       
 126 H126           5.8314    12.3714    -0.3982 H       
 127 H127           6.3684    13.6757     1.6452 H       
 128 H128           7.1435    15.7788     2.4524 H       
 129 H129           7.0754    16.4476     0.9312 H       
 130 H130           8.6779    14.8077     0.0015 H       
 131 H131           8.8119    14.0971     1.6280 H       
 132 H132           8.3293    13.0799     0.2493 H       
 133 H133           5.6593     9.3431     0.6569 H       
 134 H134           6.9369     8.2714     0.0344 H       
 135 H135          -1.9552    16.0888     0.5941 H       
 136 H136          -1.6037    18.5187     0.4520 H       
 137 H137           0.0112    18.4958     4.4280 H       
 138 H138          -0.3540    16.0668     4.5489 H       
 139 H139           0.6437    22.8136     4.1960 H       
 140 H140           0.9954    25.2433     4.0537 H       
 141 H141           0.3708    26.4644     2.0118 H       
 142 H142          -0.6099    25.2661     0.1005 H       
 143 H143          -0.9653    22.8354     0.2175 H       
@<TRIPOS>BOND
   1    1    3 1
   2    1    4 2
   3    1    2 1
   4    2    5 1
   5    2    6 1
   6    2   77 1
   7    3   78 1
   8    5    9 am
   9    5   79 1
  10    6    7 1
  11    6    8 1
  12    6   80 1
  13    7   81 1
  14    7   82 1
  15    7   83 1
  16    8   84 1
  17    8   85 1
  18    8   86 1
  19    9   11 2
  20    9   10 1
  21   10   12 1
  22   10   62 1
  23   10   87 1
  24   12   13 am
  25   12   88 1
  26   13   14 1
  27   13   15 2
  28   14   16 1
  29   14   17 1
  30   14   89 1
  31   16   25 am
  32   16   90 1
  33   17   18 1
  34   17   91 1
  35   17   92 1
  36   18   19 ar
  37   18   23 ar
  38   19   20 ar
  39   19   93 1
  40   20   21 ar
  41   20   94 1
  42   21   22 ar
  43   21   24 1
  44   22   23 ar
  45   22   95 1
  46   23   96 1
  47   24   97 1
  48   25   26 1
  49   25   27 2
  50   26   28 1
  51   26   33 1
  52   26   98 1
  53   28   29 1
  54   28   99 1
  55   28  100 1
  56   29   30 1
  57   29  101 1
  58   29  102 1
  59   30   31 1
  60   30  103 1
  61   30  104 1
  62   31   32 1
  63   31  105 1
  64   31  106 1
  65   32  107 1
  66   32  108 1
  67   33   34 am
  68   33  109 1
  69   34   35 1
  70   34   36 2
  71   35   37 1
  72   35   38 1
  73   35  110 1
  74   37   40 am
  75   37  111 1
  76   38   39 1
  77   38  112 1
  78   38  113 1
  79   39   64 ar
  80   39   68 ar
  81   40   41 1
  82   40   42 2
  83   41   43 1
  84   41   45 1
  85   41  114 1
  86   43   44 am
  87   43  115 1
  88   44   52 1
  89   44   53 2
  90   45   46 1
  91   45  116 1
  92   45  117 1
  93   46   47 ar
  94   46   51 ar
  95   47   48 ar
  96   47  118 1
  97   48   49 ar
  98   48  119 1
  99   49   50 ar
 100   49  120 1
 101   50   51 ar
 102   50  121 1
 103   51  122 1
 104   52   54 1
 105   52   55 1
 106   52  123 1
 107   54   61 1
 108   54  124 1
 109   54  125 1
 110   55   56 am
 111   55  126 1
 112   56   57 1
 113   56   58 2
 114   57   59 1
 115   57   60 1
 116   57  127 1
 117   59  128 1
 118   59  129 1
 119   60  130 1
 120   60  131 1
 121   60  132 1
 122   61   63 1
 123   62   63 1
 124   62  133 1
 125   62  134 1
 126   64   65 ar
 127   64  135 1
 128   65   66 ar
 129   65  136 1
 130   66   67 ar
 131   66   69 1
 132   67   68 ar
 133   67  137 1
 134   68  138 1
 135   69   70 3
 136   70   71 1
 137   71   72 ar
 138   71   76 ar
 139   72   73 ar
 140   72  139 1
 141   73   74 ar
 142   73  140 1
 143   74   75 ar
 144   74  141 1
 145   75   76 ar
 146   75  142 1
 147   76  143 1

#	End of record

