#	Name: ASD14880010
#	Creating user name:	WinNT
#	Creation time:	15. 06. 2019 21:31

#	Modifying user name:	WinNT
#	Modification time:	15. 06. 2019 21:31

#	Program:	/corina/corina34_cracker 3.40 0067  02.08.2006

@<TRIPOS>MOLECULE
ASD14880010
  40   42    0    0    0
SMALL
NO_CHARGES


@<TRIPOS>ATOM
   1 C1            -0.0167     1.3819     0.0096 C.ar    
   2 C2            -1.2225     2.0583     0.0190 C.ar    
   3 C3            -2.4177     1.3517     0.0208 C.ar    
   4 C4            -2.4045    -0.0365     0.0137 C.ar    
   5 C5            -4.4636     1.6305     1.1751 C.3     
   6 C6            -5.8084     2.3598     1.1141 C.3     
   7 C7            -4.7779     4.2055    -0.0124 C.3     
   8 C8            -3.4213     3.4938     0.0367 C.3     
   9 C9            -1.8539    -2.6571     1.1871 C.3     
  10 N10            1.2266    -0.6897    -0.0124 N.pl3   
  11 C11            0.0021    -0.0041     0.0020 C.ar    
  12 C12           -1.1965    -0.7167     0.0043 C.ar    
  13 N13           -1.1800    -2.1165    -0.0024 N.3     
  14 C14           -1.7896    -2.6447    -1.2316 C.3     
  15 C15           -1.6970    -4.1729    -1.2248 C.3     
  16 O16           -2.3297    -4.6785    -0.0462 O.3     
  17 C17           -1.7607    -4.1851     1.1696 C.3     
  18 N18           -3.6369     2.0395     0.0303 N.3     
  19 O19           -5.5788     3.7712     1.0900 O.3     
  20 H20            0.9115     1.9340     0.0037 H       
  21 H21           -1.2347     3.1382     0.0253 H       
  22 H22           -3.3343    -0.5860     0.0158 H       
  23 H23           -3.9525     1.8864     2.1031 H       
  24 H24           -4.6313     0.5541     1.1368 H       
  25 H25           -6.3431     2.0625     0.2120 H       
  26 H26           -6.4023     2.1019     1.9909 H       
  27 H27           -4.6262     5.2831     0.0501 H       
  28 H28           -5.2826     3.9619    -0.9473 H       
  29 H29           -2.8292     3.7785    -0.8331 H       
  30 H30           -2.8932     3.7792     0.9465 H       
  31 H31           -1.3704    -2.2732     2.0853 H       
  32 H32           -2.9016    -2.3563     1.1809 H       
  33 H33            2.0601    -0.1936    -0.0170 H       
  34 H34            1.2393    -1.6596    -0.0177 H       
  35 H35           -2.8362    -2.3437    -1.2772 H       
  36 H36           -1.2590    -2.2517    -2.0989 H       
  37 H37           -2.1982    -4.5718    -2.1067 H       
  38 H38           -0.6495    -4.4741    -1.2333 H       
  39 H39           -0.7150    -4.4867     1.2307 H       
  40 H40           -2.3081    -4.5929     2.0194 H       
@<TRIPOS>BOND
   1    1   11 ar
   2    1   20 1
   3    1    2 ar
   4    2   21 1
   5    2    3 ar
   6    3    4 ar
   7    3   18 1
   8    4   12 ar
   9    4   22 1
  10    5   23 1
  11    5   24 1
  12    5    6 1
  13    5   18 1
  14    6   25 1
  15    6   26 1
  16    6   19 1
  17    7   19 1
  18    7    8 1
  19    7   27 1
  20    7   28 1
  21    8   18 1
  22    8   29 1
  23    8   30 1
  24    9   17 1
  25    9   31 1
  26    9   32 1
  27    9   13 1
  28   10   33 1
  29   10   34 1
  30   10   11 1
  31   11   12 ar
  32   12   13 1
  33   13   14 1
  34   14   15 1
  35   14   35 1
  36   14   36 1
  37   15   16 1
  38   15   37 1
  39   15   38 1
  40   16   17 1
  41   17   39 1
  42   17   40 1

#	End of record

