#	Name: ASD11000317
#	Creating user name:	WinNT
#	Creation time:	15. 06. 2019 21:29

#	Modifying user name:	WinNT
#	Modification time:	15. 06. 2019 21:29

#	Program:	/corina/corina34_cracker 3.40 0067  02.08.2006

@<TRIPOS>MOLECULE
ASD11000317
  44   45    0    0    0
SMALL
NO_CHARGES


@<TRIPOS>ATOM
   1 N1            -0.0162     1.3400     0.0094 N.am    
   2 C2             1.1249     2.0441     0.1049 C.2     
   3 C3             2.3875     1.4132     0.1058 C.2     
   4 C4             2.4759     0.0637     0.0089 C.2     
   5 C5             1.2385    -0.7127    -0.0957 C.ar    
   6 C6             1.2679    -2.1055    -0.1985 C.ar    
   7 C7             0.0723    -2.8068    -0.2963 C.ar    
   8 C8            -1.1484    -2.1195    -0.2914 C.ar    
   9 C9            -1.1812    -0.7588    -0.1915 C.ar    
  10 C10            0.0039    -0.0346    -0.0920 C.ar    
  11 O11            1.0678     3.2584     0.1926 O.2     
  12 C12            0.0885    -4.2807    -0.4062 C.2     
  13 C13           -1.0515    -4.9510    -0.4996 C.2     
  14 C14           -1.3009     2.0439     0.0193 C.3     
  15 O15           -1.9341     1.8617     1.2873 O.3     
  16 C16           -1.4338     2.7190     2.3153 C.3     
  17 C17           -2.1798     2.4384     3.6213 C.3     
  18 Si18          -1.5275     3.5561     4.9615 Si      
  19 C19           -1.7863     5.3338     4.4682 C.3     
  20 C20           -2.4358     3.2144     6.5518 C.3     
  21 C21            0.2919     3.2376     5.2048 C.3     
  22 H22            3.2860     2.0073     0.1836 H       
  23 H23            3.4376    -0.4278     0.0084 H       
  24 H24            2.2108    -2.6322    -0.2024 H       
  25 H25           -2.0731    -2.6721    -0.3678 H       
  26 H26           -2.1296    -0.2420    -0.1897 H       
  27 H27            1.0290    -4.8116    -0.4105 H       
  28 H28           -1.0397    -6.0280    -0.5799 H       
  29 H29           -1.9920    -4.4201    -0.4953 H       
  30 H30           -1.1342     3.1070    -0.1542 H       
  31 H31           -1.9407     1.6434    -0.7672 H       
  32 H32           -0.3693     2.5327     2.4576 H       
  33 H33           -1.5852     3.7591     2.0267 H       
  34 H34           -3.2443     2.6247     3.4790 H       
  35 H35           -2.0284     1.3983     3.9100 H       
  36 H36           -2.8507     5.5201     4.3258 H       
  37 H37           -1.4046     5.9877     5.2523 H       
  38 H38           -1.2548     5.5337     3.5377 H       
  39 H39           -2.2844     2.1743     6.8405 H       
  40 H40           -2.0542     3.8683     7.3359 H       
  41 H41           -3.5003     3.4007     6.4095 H       
  42 H42            0.8234     3.4375     4.2744 H       
  43 H43            0.6736     3.8915     5.9889 H       
  44 H44            0.4433     2.1975     5.4935 H       
@<TRIPOS>BOND
   1    1    2 am
   2    1   10 1
   3    1   14 1
   4    2    3 1
   5    2   11 2
   6    3    4 2
   7    3   22 1
   8    4    5 1
   9    4   23 1
  10    5    6 ar
  11    5   10 ar
  12    6    7 ar
  13    6   24 1
  14    7    8 ar
  15    7   12 1
  16    8    9 ar
  17    8   25 1
  18    9   10 ar
  19    9   26 1
  20   12   13 2
  21   12   27 1
  22   13   28 1
  23   13   29 1
  24   14   15 1
  25   14   30 1
  26   14   31 1
  27   15   16 1
  28   16   17 1
  29   16   32 1
  30   16   33 1
  31   17   18 1
  32   17   34 1
  33   17   35 1
  34   18   19 1
  35   18   20 1
  36   18   21 1
  37   19   36 1
  38   19   37 1
  39   19   38 1
  40   20   39 1
  41   20   40 1
  42   20   41 1
  43   21   42 1
  44   21   43 1
  45   21   44 1

#	End of record

