#	Name: ASD11030066
#	Creating user name:	WinNT
#	Creation time:	15. 06. 2019 21:29

#	Modifying user name:	WinNT
#	Modification time:	15. 06. 2019 21:29

#	Program:	/corina/corina34_cracker 3.40 0067  02.08.2006

@<TRIPOS>MOLECULE
ASD11030066
  86   91    0    0    0
SMALL
NO_CHARGES


@<TRIPOS>ATOM
   1 C1             2.8566     0.1449     5.0204 C.ar    
   2 N2             3.4417    -0.8976     5.5977 N.ar    
   3 C3             3.6612     1.0408     4.1632 C.2     
   4 C4             3.1926     2.1372     3.5155 C.2     
   5 C5             4.2733     2.7164     2.8076 C.ar    
   6 C6             5.4047     1.9156     3.0634 C.ar    
   7 N7             5.0043     0.8973     3.9015 N.pl3   
   8 C8             4.3858     3.8423     1.9791 C.ar    
   9 C9             5.5863     4.1612     1.4226 C.ar    
  10 C10            6.7175     3.3704     1.6714 C.ar    
  11 C11            6.6241     2.2492     2.4919 C.ar    
  12 C12            5.8655    -0.1676     4.4216 C.3     
  13 C13            1.7747     2.6469     3.5439 C.3     
  14 C14            8.0131     3.7284     1.0611 C.2     
  15 N15            8.1070     4.8132     0.2667 N.am    
  16 O16            8.9955     3.0447     1.2749 O.2     
  17 C17            9.4105     5.2245    -0.2603 C.3     
  18 C18           10.0102     4.2078    -1.1972 C.2     
  19 N19            9.2127     3.4905    -2.0132 N.am    
  20 O20           11.2105     4.0351    -1.2169 O.2     
  21 C21            9.7545     2.4772    -2.8038 C.ar    
  22 C22           10.8479     1.7478    -2.3428 C.ar    
  23 C23           11.3868     0.7536    -3.1078 C.ar    
  24 C24           10.8414     0.4609    -4.3641 C.ar    
  25 C25            9.7374     1.1952    -4.8329 C.ar    
  26 C26            9.1976     2.1961    -4.0453 C.ar    
  27 C27           11.4193    -0.6064    -5.1874 C.2     
  28 C28           12.4817    -1.3107    -4.7337 C.2     
  29 C29            1.7394     4.0757     4.1139 C.3     
  30 C30            1.1591     4.9782     3.0055 C.3     
  31 C31            0.3401     4.0093     2.1169 C.3     
  32 C32            1.2145     2.7309     2.1090 C.3     
  33 O33            9.2013     0.9198    -6.0485 O.3     
  34 C34            2.7510    -1.7180     6.3694 C.ar    
  35 C35            1.3984    -1.4789     6.5728 C.ar    
  36 C36            0.8182    -0.3796     5.9540 C.ar    
  37 N37            1.5646     0.3987     5.1904 N.ar    
  38 Cl38           0.4531    -2.5317     7.5786 Cl      
  39 C39            8.0813     1.7076    -6.4572 C.3     
  40 C40            7.6180     1.2549    -7.8433 C.3     
  41 C41            9.4258     6.6584    -0.8158 C.3     
  42 C42           10.8144     6.8089    -0.1723 C.3     
  43 C43           10.3859     5.7150     0.8227 C.3     
  44 O44            7.1297    -0.0860    -7.7680 O.3     
  45 C45            6.6696    -0.6080    -9.0161 C.3     
  46 C46           13.0395    -2.3410    -5.5284 C.2     
  47 O47           12.5636    -2.5930    -6.6194 O.2     
  48 O48           14.0992    -3.0435    -5.0758 O.3     
  49 H49            3.5194     4.4563     1.7822 H       
  50 H50            5.6682     5.0289     0.7848 H       
  51 H51            7.4967     1.6419     2.6822 H       
  52 H52            6.3066     0.1506     5.3662 H       
  53 H53            5.2729    -1.0681     4.5825 H       
  54 H54            6.6578    -0.3776     3.7031 H       
  55 H55            1.1533     1.9876     4.1501 H       
  56 H56            7.3114     5.3215     0.0440 H       
  57 H57            8.2619     3.6789    -2.0507 H       
  58 H58           11.2721     1.9702    -1.3748 H       
  59 H59           12.2348     0.1925    -2.7439 H       
  60 H60            8.3496     2.7639    -4.3986 H       
  61 H61           10.9969    -0.8302    -6.1559 H       
  62 H62           12.9041    -1.0870    -3.7653 H       
  63 H63            1.1003     4.1101     4.9962 H       
  64 H64            2.7479     4.4005     4.3700 H       
  65 H65            0.5108     5.7416     3.4356 H       
  66 H66            1.9616     5.4383     2.4291 H       
  67 H67           -0.6346     3.8080     2.5614 H       
  68 H68            0.2309     4.4089     1.1086 H       
  69 H69            2.0260     2.8282     1.3878 H       
  70 H70            0.6066     1.8543     1.8848 H       
  71 H71            3.2325    -2.5647     6.8361 H       
  72 H72           -0.2315    -0.1659     6.0914 H       
  73 H73            7.2679     1.5808    -5.7429 H       
  74 H74            8.3705     2.7578    -6.4958 H       
  75 H75            6.8220     1.9123    -8.1930 H       
  76 H76            8.4564     1.2977    -8.5386 H       
  77 H77            9.4418     6.7047    -1.9047 H       
  78 H78            8.6677     7.3056    -0.3747 H       
  79 H79           11.6332     6.5069    -0.8253 H       
  80 H80           10.9778     7.7820     0.2909 H       
  81 H81            9.8902     6.1037     1.7122 H       
  82 H82           11.1771     5.0021     1.0552 H       
  83 H83            7.4883    -0.6038    -9.7357 H       
  84 H84            6.3155    -1.6291    -8.8745 H       
  85 H85            5.8539     0.0108    -9.3902 H       
  86 H86           14.4095    -3.7251    -5.6875 H       
@<TRIPOS>BOND
   1    1    2 ar
   2    1    3 1
   3    1   37 ar
   4    2   34 ar
   5    3    4 2
   6    3    7 1
   7    4    5 1
   8    4   13 1
   9    5    6 ar
  10    5    8 ar
  11    6    7 1
  12    6   11 ar
  13    7   12 1
  14    8    9 ar
  15    8   49 1
  16    9   10 ar
  17    9   50 1
  18   10   11 ar
  19   10   14 1
  20   11   51 1
  21   12   52 1
  22   12   53 1
  23   12   54 1
  24   13   29 1
  25   13   32 1
  26   13   55 1
  27   14   15 am
  28   14   16 2
  29   15   17 1
  30   15   56 1
  31   17   18 1
  32   17   41 1
  33   17   43 1
  34   18   19 am
  35   18   20 2
  36   19   21 1
  37   19   57 1
  38   21   22 ar
  39   21   26 ar
  40   22   23 ar
  41   22   58 1
  42   23   24 ar
  43   23   59 1
  44   24   25 ar
  45   24   27 1
  46   25   26 ar
  47   25   33 1
  48   26   60 1
  49   27   28 2
  50   27   61 1
  51   28   46 1
  52   28   62 1
  53   29   30 1
  54   29   63 1
  55   29   64 1
  56   30   31 1
  57   30   65 1
  58   30   66 1
  59   31   32 1
  60   31   67 1
  61   31   68 1
  62   32   69 1
  63   32   70 1
  64   33   39 1
  65   34   35 ar
  66   34   71 1
  67   35   36 ar
  68   35   38 1
  69   36   37 ar
  70   36   72 1
  71   39   40 1
  72   39   73 1
  73   39   74 1
  74   40   44 1
  75   40   75 1
  76   40   76 1
  77   41   42 1
  78   41   77 1
  79   41   78 1
  80   42   43 1
  81   42   79 1
  82   42   80 1
  83   43   81 1
  84   43   82 1
  85   44   45 1
  86   45   83 1
  87   45   84 1
  88   45   85 1
  89   46   47 2
  90   46   48 1
  91   48   86 1

#	End of record

