#	Name: ASD11710005
#	Creating user name:	WinNT
#	Creation time:	15. 06. 2019 21:29

#	Modifying user name:	WinNT
#	Modification time:	15. 06. 2019 21:29

#	Program:	/corina/corina34_cracker 3.40 0067  02.08.2006

@<TRIPOS>MOLECULE
ASD11710005
  51   53    0    0    0
SMALL
NO_CHARGES


@<TRIPOS>ATOM
   1 C1             3.1763     7.8621     1.1591 C.ar    
   2 C2             2.2770     8.8533     0.8132 C.ar    
   3 C3             1.2893     8.5958    -0.1189 C.ar    
   4 C4             1.2011     7.3472    -0.7055 C.ar    
   5 C5             2.1009     6.3562    -0.3602 C.ar    
   6 C6             3.0877     6.6133     0.5730 C.ar    
   7 C7             2.0044     4.9948    -0.9993 C.3     
   8 N8             2.8178     4.9684    -2.2174 N.am    
   9 C9             4.1124     4.5989    -2.1554 C.2     
  10 C10            4.9038     4.4668    -3.3972 C.ar    
  11 O11            4.6294     4.3742    -1.0784 O.2     
  12 C12            4.6891     5.3435    -4.4618 C.ar    
  13 C13            5.8729     3.4684    -3.5078 C.ar    
  14 C14            6.6083     3.3509    -4.6691 C.ar    
  15 C15            6.3871     4.2202    -5.7226 C.ar    
  16 C16            5.4313     5.2151    -5.6176 C.ar    
  17 S17            7.3315     4.0638    -7.2019 S.o2    
  18 N18            6.5090     3.0313    -8.2017 N.am    
  19 C19            5.2115     3.3479    -8.6203 C.ar    
  20 C20            4.2617     2.3399    -8.7749 C.ar    
  21 C21            4.8660     4.6663    -8.8769 C.ar    
  22 C22            3.5834     4.9766    -9.2899 C.ar    
  23 C23            2.6436     3.9756    -9.4480 C.ar    
  24 C24            2.9795     2.6590    -9.1888 C.ar    
  25 O25            7.3054     5.3376    -7.8311 O.2     
  26 O26            8.5349     3.3996    -6.8413 O.2     
  27 O27            4.5936     1.0458    -8.5202 O.3     
  28 C28            3.5691     0.0659    -8.7000 C.3     
  29 C29            2.2240     5.3438    -3.5030 C.3     
  30 H30            3.9508     8.0646     1.8841 H       
  31 H31            2.3460     9.8288     1.2715 H       
  32 H32            0.5863     9.3700    -0.3887 H       
  33 H33            0.4289     7.1458    -1.4332 H       
  34 H34            3.7910     5.8392     0.8424 H       
  35 H35            2.3687     4.2398    -0.3027 H       
  36 H36            0.9650     4.7849    -1.2518 H       
  37 H37            3.9433     6.1205    -4.3810 H       
  38 H38            6.0470     2.7897    -2.6860 H       
  39 H39            7.3584     2.5788    -4.7561 H       
  40 H40            5.2636     5.8904    -6.4435 H       
  41 H41            6.9264     2.2071    -8.4973 H       
  42 H42            5.5983     5.4505    -8.7538 H       
  43 H43            3.3153     6.0036    -9.4891 H       
  44 H44            1.6429     4.2225    -9.7707 H       
  45 H45            2.2428     1.8793    -9.3137 H       
  46 H46            2.7324     0.2894    -8.0382 H       
  47 H47            3.2281     0.0825    -9.7351 H       
  48 H48            3.9654    -0.9217    -8.4638 H       
  49 H49            2.3712     6.4102    -3.6737 H       
  50 H50            2.7021     4.7784    -4.3030 H       
  51 H51            1.1569     5.1219    -3.4890 H       
@<TRIPOS>BOND
   1    1    2 ar
   2    1    6 ar
   3    1   30 1
   4    2    3 ar
   5    2   31 1
   6    3    4 ar
   7    3   32 1
   8    4    5 ar
   9    4   33 1
  10    5    6 ar
  11    5    7 1
  12    6   34 1
  13    7    8 1
  14    7   35 1
  15    7   36 1
  16    8    9 am
  17    8   29 1
  18    9   10 1
  19    9   11 2
  20   10   12 ar
  21   10   13 ar
  22   12   16 ar
  23   12   37 1
  24   13   14 ar
  25   13   38 1
  26   14   15 ar
  27   14   39 1
  28   15   16 ar
  29   15   17 1
  30   16   40 1
  31   17   18 am
  32   17   25 2
  33   17   26 2
  34   18   19 1
  35   18   41 1
  36   19   20 ar
  37   19   21 ar
  38   20   27 1
  39   20   24 ar
  40   21   22 ar
  41   21   42 1
  42   22   23 ar
  43   22   43 1
  44   23   24 ar
  45   23   44 1
  46   24   45 1
  47   27   28 1
  48   28   46 1
  49   28   47 1
  50   28   48 1
  51   29   49 1
  52   29   50 1
  53   29   51 1

#	End of record

