#	Name: ASD11000213
#	Creating user name:	WinNT
#	Creation time:	15. 06. 2019 21:28

#	Modifying user name:	WinNT
#	Modification time:	15. 06. 2019 21:28

#	Program:	/corina/corina34_cracker 3.40 0067  02.08.2006

@<TRIPOS>MOLECULE
ASD11000213
  46   50    0    0    0
SMALL
NO_CHARGES


@<TRIPOS>ATOM
   1 N1            -0.0729     1.8509    -0.4714 N.ar    
   2 C2            -0.0179     0.5274    -0.4389 C.ar    
   3 N3             1.1344    -0.1163    -0.3226 N.ar    
   4 C4             2.2744     0.5486    -0.2346 C.ar    
   5 C5             2.2531     1.9343    -0.2654 C.ar    
   6 C6             1.0304     2.5757    -0.3879 C.ar    
   7 N7            -1.1928    -0.2004    -0.5283 N.pl3   
   8 C8            -1.1460    -1.5970    -0.6208 C.ar    
   9 C9            -2.1367    -2.3662    -0.0248 C.ar    
  10 C10           -0.1122    -2.2131    -1.3134 C.ar    
  11 C11           -0.0670    -3.5903    -1.4045 C.ar    
  12 C12           -1.0543    -4.3582    -0.8048 C.ar    
  13 C13           -2.0901    -3.7433    -0.1168 C.ar    
  14 O14           -1.0094    -5.7143    -0.8954 O.3     
  15 C15            3.5315     2.7262    -0.1672 C.3     
  16 C16            3.9473     3.5506    -1.3872 C.3     
  17 C17            3.0471     3.5085    -2.5950 C.ar    
  18 C18           -2.0585    -6.4424    -0.2542 C.3     
  19 F19           -2.0548    -6.1568     1.1154 F       
  20 F20           -3.2893    -6.0694    -0.8050 F       
  21 C21            3.1986     2.5131    -3.5166 C.ar    
  22 C22            2.3623     2.4750    -4.6376 C.ar    
  23 C23            1.3733     3.4641    -4.8031 C.ar    
  24 C24            1.2424     4.4672    -3.8462 C.ar    
  25 C25            2.0673     4.4800    -2.7571 C.ar    
  26 C26            2.2467     1.5833    -5.7871 C.2     
  27 N27            1.2791     2.0259    -6.5381 N.2     
  28 N28            0.7182     3.1752    -5.9717 N.pl3   
  29 C29            3.4168     4.2516    -0.1349 C.3     
  30 H30            3.2105     0.0184    -0.1396 H       
  31 H31            0.9793     3.6541    -0.4153 H       
  32 H32           -2.0481     0.2572    -0.5268 H       
  33 H33           -2.9431    -1.8876     0.5109 H       
  34 H34            0.6563    -1.6153    -1.7810 H       
  35 H35            0.7370    -4.0696    -1.9432 H       
  36 H36           -2.8584    -4.3419     0.3499 H       
  37 H37            4.3240     2.2682     0.4246 H       
  38 H38            5.0133     3.6349    -1.5980 H       
  39 H39           -1.9028    -7.5109    -0.4029 H       
  40 H40            3.9600     1.7592    -3.3814 H       
  41 H41            0.4879     5.2311    -3.9627 H       
  42 H42            1.9621     5.2600    -2.0176 H       
  43 H43            2.8553     0.7124    -5.9807 H       
  44 H44           -0.0164     3.6862    -6.3461 H       
  45 H45            2.4167     4.6823    -0.1847 H       
  46 H46            4.1339     4.7974     0.4783 H       
@<TRIPOS>BOND
   1    1    2 ar
   2    1    6 ar
   3    2    3 ar
   4    2    7 1
   5    3    4 ar
   6    4    5 ar
   7    4   30 1
   8    5    6 ar
   9    5   15 1
  10    6   31 1
  11    7    8 1
  12    7   32 1
  13    8    9 ar
  14    8   10 ar
  15    9   13 ar
  16    9   33 1
  17   10   11 ar
  18   10   34 1
  19   11   12 ar
  20   11   35 1
  21   12   13 ar
  22   12   14 1
  23   13   36 1
  24   14   18 1
  25   15   16 1
  26   15   29 1
  27   15   37 1
  28   16   17 1
  29   16   29 1
  30   16   38 1
  31   17   21 ar
  32   17   25 ar
  33   18   19 1
  34   18   20 1
  35   18   39 1
  36   21   22 ar
  37   21   40 1
  38   22   23 ar
  39   22   26 1
  40   23   24 ar
  41   23   28 1
  42   24   25 ar
  43   24   41 1
  44   25   42 1
  45   26   27 2
  46   26   43 1
  47   27   28 1
  48   28   44 1
  49   29   45 1
  50   29   46 1

#	End of record

