#	Name: ASD11000299
#	Creating user name:	WinNT
#	Creation time:	15. 06. 2019 21:29

#	Modifying user name:	WinNT
#	Modification time:	15. 06. 2019 21:29

#	Program:	/corina/corina34_cracker 3.40 0067  02.08.2006

@<TRIPOS>MOLECULE
ASD11000299
  26   27    0    0    0
SMALL
NO_CHARGES


@<TRIPOS>ATOM
   1 C1             0.0220     1.3184    -0.0702 C.3     
   2 O2            -0.8919     2.4167    -0.0450 O.3     
   3 C3             1.4355     1.8408    -0.0597 C.ar    
   4 C4             1.6665     3.2032    -0.0295 C.ar    
   5 N5             2.4514     0.9942    -0.0739 N.ar    
   6 N6             2.9050     3.6658    -0.0201 N.ar    
   7 C7             3.9273     2.8201    -0.0394 C.ar    
   8 C8             3.6905     1.4477    -0.0643 C.ar    
   9 N9             5.2317     3.3025    -0.0301 N.pl3   
  10 C10            5.4695     4.6766    -0.1310 C.ar    
  11 C11            6.5436     5.2478     0.5396 C.ar    
  12 C12            6.7761     6.6062     0.4380 C.ar    
  13 C13            5.9391     7.3974    -0.3317 C.ar    
  14 C14            4.8687     6.8302    -0.9998 C.ar    
  15 C15            4.6356     5.4718    -0.9064 C.ar    
  16 Cl16           6.2335     9.1036    -0.4576 Cl      
  17 Cl17           8.1177     7.3217     1.2759 Cl      
  18 H18           -0.1400     0.6908     0.8061 H       
  19 H19           -0.1414     0.7305    -0.9734 H       
  20 H20           -1.8226     2.1542    -0.0501 H       
  21 H21            0.8339     3.8910    -0.0138 H       
  22 H22            4.5197     0.7558    -0.0757 H       
  23 H23            5.9764     2.6858     0.0463 H       
  24 H24            7.1959     4.6311     1.1399 H       
  25 H25            4.2175     7.4493    -1.5989 H       
  26 H26            3.8028     5.0291    -1.4326 H       
@<TRIPOS>BOND
   1    1    2 1
   2    1    3 1
   3    1   18 1
   4    1   19 1
   5    2   20 1
   6    3    4 ar
   7    3    5 ar
   8    4    6 ar
   9    4   21 1
  10    5    8 ar
  11    6    7 ar
  12    7    8 ar
  13    7    9 1
  14    8   22 1
  15    9   10 1
  16    9   23 1
  17   10   11 ar
  18   10   15 ar
  19   11   12 ar
  20   11   24 1
  21   12   13 ar
  22   12   17 1
  23   13   14 ar
  24   13   16 1
  25   14   15 ar
  26   14   25 1
  27   15   26 1

#	End of record

