#	Name: ASD10160272
#	Creating user name:	WinNT
#	Creation time:	15. 06. 2019 21:25

#	Modifying user name:	WinNT
#	Modification time:	15. 06. 2019 21:25

#	Program:	/corina/corina34_cracker 3.40 0067  02.08.2006

@<TRIPOS>MOLECULE
ASD10160272
  36   37    0    0    0
SMALL
NO_CHARGES


@<TRIPOS>ATOM
   1 C1             0.7573     1.4155    -0.4015 C.2     
   2 C2             0.5731    -0.0455    -0.3012 C.ar    
   3 C3             1.5327    -0.9107    -0.8334 C.ar    
   4 C4             1.3576    -2.2731    -0.7375 C.ar    
   5 C5             0.2276    -2.7881    -0.1124 C.ar    
   6 C6            -0.7294    -1.9306     0.4183 C.ar    
   7 C7            -0.5586    -0.5671     0.3314 C.ar    
   8 O8             1.7449     1.8676    -0.9477 O.2     
   9 N9            -0.1721     2.2484     0.1076 N.am    
  10 S10            0.0346     3.8876    -0.0050 S.o2    
  11 O11           -1.1048     4.4301     0.6483 O.2     
  12 O12            1.3440     4.1112     0.4996 O.2     
  13 C13           -0.0288     4.2306    -1.7851 C.3     
  14 O14            0.0581    -4.1312    -0.0206 O.3     
  15 C15            0.5355    -6.1507     1.1502 C.ar    
  16 C16            0.5846    -4.7688     1.0588 C.ar    
  17 C17            1.1803    -4.0415     2.0856 C.ar    
  18 C18            1.7035    -4.7320     3.1647 C.ar    
  19 C19            1.6177    -6.1177     3.1876 C.ar    
  20 N20            1.0443    -6.7762     2.1945 N.ar    
  21 O21            2.1279    -6.8043     4.2417 O.3     
  22 C22            2.0092    -8.2280     4.2074 C.3     
  23 H23            2.4105    -0.5113    -1.3197 H       
  24 H24            2.0988    -2.9424    -1.1486 H       
  25 H25           -1.6059    -2.3345     0.9031 H       
  26 H26           -1.3002     0.0984     0.7479 H       
  27 H27           -0.9619     1.8876     0.5398 H       
  28 H28           -0.9933     3.9139    -2.1820 H       
  29 H29            0.1002     5.2997    -1.9539 H       
  30 H30            0.7686     3.6844    -2.2890 H       
  31 H31            0.0711    -6.7218     0.3600 H       
  32 H32            1.2331    -2.9637     2.0409 H       
  33 H33            2.1730    -4.1998     3.9788 H       
  34 H34            0.9556    -8.5036     4.1606 H       
  35 H35            2.5253    -8.6145     3.3286 H       
  36 H36            2.4560    -8.6516     5.1069 H       
@<TRIPOS>BOND
   1    1    2 1
   2    1    8 2
   3    1    9 am
   4    2    3 ar
   5    2    7 ar
   6    3    4 ar
   7    3   23 1
   8    4    5 ar
   9    4   24 1
  10    5    6 ar
  11    5   14 1
  12    6    7 ar
  13    6   25 1
  14    7   26 1
  15    9   10 am
  16    9   27 1
  17   10   11 2
  18   10   12 2
  19   10   13 1
  20   13   28 1
  21   13   29 1
  22   13   30 1
  23   14   16 1
  24   15   16 ar
  25   15   20 ar
  26   15   31 1
  27   16   17 ar
  28   17   18 ar
  29   17   32 1
  30   18   19 ar
  31   18   33 1
  32   19   20 ar
  33   19   21 1
  34   21   22 1
  35   22   34 1
  36   22   35 1
  37   22   36 1

#	End of record

