#	Name: ASD10420152
#	Creating user name:	WinNT
#	Creation time:	15. 06. 2019 21:27

#	Modifying user name:	WinNT
#	Modification time:	15. 06. 2019 21:27

#	Program:	/corina/corina34_cracker 3.40 0067  02.08.2006

@<TRIPOS>MOLECULE
ASD10420152
  28   28    0    0    0
SMALL
NO_CHARGES


@<TRIPOS>ATOM
   1 C1            -0.0166     1.3751     0.0096 C.ar    
   2 C2             0.0021    -0.0041     0.0020 C.ar    
   3 C3             1.2224    -0.6825    -0.0133 C.ar    
   4 C4             2.4161     0.0413    -0.0207 C.ar    
   5 C5             2.3829     1.4206    -0.0130 C.ar    
   6 C6             1.1704     2.0863     0.0021 C.ar    
   7 C7             1.2502    -2.1586    -0.0210 C.2     
   8 N8             2.3821    -2.7840    -0.0351 N.2     
   9 O9             2.4088    -4.1998    -0.0425 O.3     
  10 C10            3.7249    -4.7563    -0.0581 C.3     
  11 C11            3.6328    -6.2835    -0.0649 C.3     
  12 C12            5.0207    -6.8704    -0.0813 C.2     
  13 O13            5.9846    -6.1419    -0.0870 O.2     
  14 O14            5.1861    -8.2024    -0.0896 O.3     
  15 C15            3.7379    -0.6823    -0.0367 C.3     
  16 F16            4.7803     0.2508    -0.0417 F       
  17 F17            3.8409    -1.4905     1.1006 F       
  18 F18            3.8196    -1.4790    -1.1839 F       
  19 H19           -0.9599     1.9011     0.0169 H       
  20 H20           -0.9250    -0.5580     0.0082 H       
  21 H21            3.3056     1.9818    -0.0188 H       
  22 H22            1.1501     3.1661     0.0081 H       
  23 H23            0.3252    -2.7162    -0.0148 H       
  24 H24            4.2510    -4.4200    -0.9515 H       
  25 H25            4.2682    -4.4290     0.8283 H       
  26 H26            3.1067    -6.6197     0.8286 H       
  27 H27            3.0894    -6.6108    -0.9513 H       
  28 H28            6.0952    -8.5318    -0.1001 H       
@<TRIPOS>BOND
   1    1    2 ar
   2    1    6 ar
   3    1   19 1
   4    2    3 ar
   5    2   20 1
   6    3    4 ar
   7    3    7 1
   8    4    5 ar
   9    4   15 1
  10    5    6 ar
  11    5   21 1
  12    6   22 1
  13    7    8 2
  14    7   23 1
  15    8    9 1
  16    9   10 1
  17   10   11 1
  18   10   24 1
  19   10   25 1
  20   11   12 1
  21   11   26 1
  22   11   27 1
  23   12   13 2
  24   12   14 1
  25   14   28 1
  26   15   16 1
  27   15   17 1
  28   15   18 1

#	End of record

