#	Name: ASD14300014
#	Creating user name:	WinNT
#	Creation time:	15. 06. 2019 21:31

#	Modifying user name:	WinNT
#	Modification time:	15. 06. 2019 21:31

#	Program:	/corina/corina34_cracker 3.40 0067  02.08.2006

@<TRIPOS>MOLECULE
ASD14300014
  69   73    0    0    0
SMALL
NO_CHARGES


@<TRIPOS>ATOM
   1 N1             0.1473     1.6395     0.3062 N.pl3   
   2 C2             0.3612     0.3002     0.4217 C.2     
   3 C3             1.6842     0.0613     0.2714 C.2     
   4 C4             2.3195     1.2918     0.0546 C.2     
   5 C5             1.3550     2.2575     0.0791 C.2     
   6 C6             1.5694     3.7044    -0.1050 C.ar    
   7 N7             2.8076     4.1972    -0.1335 N.ar    
   8 C8             2.9990     5.5015    -0.2995 C.ar    
   9 N9             1.9563     6.3151    -0.4366 N.ar    
  10 C10            0.7206     5.8253    -0.4084 C.ar    
  11 N11            0.5255     4.5208    -0.2486 N.ar    
  12 N12           -0.3603     6.6719    -0.5510 N.3     
  13 N13            4.2810     6.0123    -0.3291 N.3     
  14 C14            5.2284     4.9974    -0.1678 C.3     
  15 C15            7.1924     6.0074    -1.3076 C.3     
  16 C16            4.4837     6.8642    -1.5177 C.3     
  17 C17            5.5048     7.9179    -1.1687 C.3     
  18 C18            6.9216     7.4976    -1.5954 C.3     
  19 C19           -1.5510     5.9490    -0.6668 C.3     
  20 C20           -0.3648     7.7062     0.5025 C.3     
  21 C21            6.6503     5.5672     0.0285 C.3     
  22 C22           -2.7381     6.8587    -1.0519 C.3     
  23 C23           -1.0222     8.9421    -0.0588 C.3     
  24 C24           -3.1925     7.6172     0.1690 C.3     
  25 C25           -1.0954     2.2803     0.3972 C.ar    
  26 C26           -2.5184     8.9981     0.2939 C.3     
  27 C27           -3.5489     3.5465     0.5763 C.ar    
  28 C28           -2.5306     3.8889     1.4469 C.ar    
  29 C29           -1.3047     3.2586     1.3600 C.ar    
  30 C30           -2.1182     1.9425    -0.4790 C.ar    
  31 C31           -3.3418     2.5763    -0.3871 C.ar    
  32 C32           -4.4545     2.2058    -1.3335 C.3     
  33 C33           -2.7605     4.9467     2.4954 C.3     
  34 H34           -0.3978    -0.4463     0.6035 H       
  35 H35            2.1651    -0.9049     0.3119 H       
  36 H36            3.3767     1.4472    -0.1024 H       
  37 H37            4.9625     4.3982     0.7030 H       
  38 H38            5.2202     4.3599    -1.0519 H       
  39 H39            6.7288     5.4075    -2.0907 H       
  40 H40            8.2685     5.8351    -1.3251 H       
  41 H41            4.8485     6.2583    -2.3471 H       
  42 H42            3.5430     7.3403    -1.7944 H       
  43 H43            5.2426     8.8481    -1.6729 H       
  44 H44            5.4919     8.0828    -0.0914 H       
  45 H45            7.6490     8.1014    -1.0527 H       
  46 H46            7.0388     7.6794    -2.6637 H       
  47 H47           -1.4282     5.1823    -1.4317 H       
  48 H48           -1.7678     5.4666     0.2863 H       
  49 H49           -0.9268     7.3500     1.3658 H       
  50 H50            0.6590     7.9355     0.7978 H       
  51 H51            6.6107     6.4209     0.7051 H       
  52 H52            7.2970     4.7970     0.4486 H       
  53 H53           -2.4231     7.5626    -1.8223 H       
  54 H54           -3.5586     6.2477    -1.4280 H       
  55 H55           -0.5275     9.8241     0.3480 H       
  56 H56           -0.9121     8.9423    -1.1432 H       
  57 H57           -4.2724     7.7559     0.1158 H       
  58 H58           -2.9582     7.0293     1.0564 H       
  59 H59           -2.6281     9.3549     1.3180 H       
  60 H60           -3.0152     9.6974    -0.3787 H       
  61 H61           -4.5068     4.0405     0.6465 H       
  62 H62           -0.5099     3.5262     2.0405 H       
  63 H63           -1.9569     1.1851    -1.2318 H       
  64 H64           -4.4032     2.8382    -2.2199 H       
  65 H65           -4.3498     1.1610    -1.6261 H       
  66 H66           -5.4152     2.3502    -0.8393 H       
  67 H67           -3.0478     4.4719     3.4336 H       
  68 H68           -1.8437     5.5174     2.6428 H       
  69 H69           -3.5563     5.6157     2.1681 H       
@<TRIPOS>BOND
   1    1    2 1
   2    1    5 1
   3    1   25 1
   4    2    3 2
   5    2   34 1
   6    3    4 1
   7    3   35 1
   8    4    5 2
   9    4   36 1
  10    5    6 1
  11    6    7 ar
  12    6   11 ar
  13    7    8 ar
  14    8    9 ar
  15    8   13 1
  16    9   10 ar
  17   10   11 ar
  18   10   12 1
  19   12   19 1
  20   12   20 1
  21   13   14 1
  22   13   16 1
  23   14   21 1
  24   14   37 1
  25   14   38 1
  26   15   18 1
  27   15   21 1
  28   15   39 1
  29   15   40 1
  30   16   17 1
  31   16   41 1
  32   16   42 1
  33   17   18 1
  34   17   43 1
  35   17   44 1
  36   18   45 1
  37   18   46 1
  38   19   22 1
  39   19   47 1
  40   19   48 1
  41   20   23 1
  42   20   49 1
  43   20   50 1
  44   21   51 1
  45   21   52 1
  46   22   24 1
  47   22   53 1
  48   22   54 1
  49   23   26 1
  50   23   55 1
  51   23   56 1
  52   24   26 1
  53   24   57 1
  54   24   58 1
  55   25   30 ar
  56   25   29 ar
  57   26   59 1
  58   26   60 1
  59   27   28 ar
  60   27   31 ar
  61   27   61 1
  62   28   29 ar
  63   28   33 1
  64   29   62 1
  65   30   31 ar
  66   30   63 1
  67   31   32 1
  68   32   64 1
  69   32   65 1
  70   32   66 1
  71   33   67 1
  72   33   68 1
  73   33   69 1

#	End of record

