#	Name: ASD11030040
#	Creating user name:	WinNT
#	Creation time:	15. 06. 2019 21:29

#	Modifying user name:	WinNT
#	Modification time:	15. 06. 2019 21:29

#	Program:	/corina/corina34_cracker 3.40 0067  02.08.2006

@<TRIPOS>MOLECULE
ASD11030040
  79   84    0    0    0
SMALL
NO_CHARGES


@<TRIPOS>ATOM
   1 C1             3.0900     4.5766    -6.4785 C.ar    
   2 C2             2.0523     3.6990    -6.1977 C.ar    
   3 C3             2.0385     3.0286    -4.9878 C.ar    
   4 N4             2.9952     3.2123    -4.1016 N.ar    
   5 C5             4.0061     4.0431    -4.3308 C.ar    
   6 C6             4.0827     4.7515    -5.5302 C.ar    
   7 C7             5.0582     4.2182    -3.3070 C.2     
   8 C8             5.4458     3.2760    -2.4107 C.2     
   9 C9             6.4724     3.8349    -1.6117 C.ar    
  10 C10            6.6776     5.1510    -2.0731 C.ar    
  11 N11            5.8017     5.3597    -3.1175 N.pl3   
  12 C12            7.2379     3.3395    -0.5463 C.ar    
  13 C13            8.1777     4.1290     0.0420 C.ar    
  14 C14            8.3889     5.4397    -0.4103 C.ar    
  15 C15            7.6376     5.9478    -1.4674 C.ar    
  16 C16            5.6768     6.5971    -3.8917 C.3     
  17 C17            4.8838     1.8832    -2.2876 C.3     
  18 C18            9.4115     6.2845     0.2370 C.2     
  19 N19           10.1399     5.7960     1.2604 N.am    
  20 O20            9.5967     7.4212    -0.1529 O.2     
  21 C21           11.2298     6.5925     1.8295 C.3     
  22 C22           10.7457     7.8529     2.4990 C.2     
  23 N23            9.5503     7.8690     3.1211 N.am    
  24 O24           11.4319     8.8527     2.4778 O.2     
  25 C25            9.1311     9.0150     3.7966 C.ar    
  26 C26            9.3977    10.2718     3.2620 C.ar    
  27 C27            8.9856    11.4054     3.9248 C.ar    
  28 C28            8.2971    11.2926     5.1386 C.ar    
  29 C29            8.0310    10.0258     5.6727 C.ar    
  30 C30            8.4422     8.8979     5.0004 C.ar    
  31 C31           12.2065     5.7739     2.6902 C.3     
  32 C32           13.3361     6.6044     2.0582 C.3     
  33 C33           12.3985     6.8215     0.8566 C.3     
  34 C34            7.8555    12.4999     5.8502 C.2     
  35 C35            8.1137    13.7212     5.3333 C.2     
  36 C36            5.9974     0.8442    -2.5070 C.3     
  37 C37            6.0950     0.0214    -1.2058 C.3     
  38 C38            4.7008     0.1807    -0.5501 C.3     
  39 C39            4.3436     1.6555    -0.8607 C.3     
  40 C40            7.2908     9.8978     6.9791 C.3     
  41 C41            7.6876    14.8861     6.0200 C.2     
  42 O42            7.0895    14.7860     7.0745 O.2     
  43 O43            7.9454    16.1058     5.5037 O.3     
  44 H44            3.1246     5.1080    -7.4182 H       
  45 H45            1.2625     3.5412    -6.9172 H       
  46 H46            1.2319     2.3454    -4.7667 H       
  47 H47            4.9048     5.4268    -5.7159 H       
  48 H48            7.0814     2.3313    -0.1921 H       
  49 H49            8.7645     3.7436     0.8627 H       
  50 H50            7.8018     6.9575    -1.8137 H       
  51 H51            6.2727     6.5185    -4.8010 H       
  52 H52            4.6313     6.7570    -4.1552 H       
  53 H53            6.0336     7.4366    -3.2950 H       
  54 H54            4.0873     1.7364    -3.0171 H       
  55 H55            9.9425     4.9170     1.6201 H       
  56 H56            8.9814     7.0836     3.0991 H       
  57 H57            9.9292    10.3578     2.3258 H       
  58 H58            9.1933    12.3804     3.5094 H       
  59 H59            8.2375     7.9204     5.4115 H       
  60 H60           12.0893     5.9398     3.7611 H       
  61 H61           12.2412     4.7171     2.4258 H       
  62 H62           13.5629     7.5200     2.6044 H       
  63 H63           14.2255     6.0214     1.8194 H       
  64 H64           12.4852     6.0512     0.0903 H       
  65 H65           12.4378     7.8317     0.4490 H       
  66 H66            7.3245    12.4111     6.7865 H       
  67 H67            8.6447    13.8101     4.3971 H       
  68 H68            5.7409     0.1926    -3.3424 H       
  69 H69            6.9443     1.3474    -2.7025 H       
  70 H70            6.2932    -1.0266    -1.4310 H       
  71 H71            6.8708     0.4261    -0.5558 H       
  72 H72            3.9792    -0.4962    -1.0076 H       
  73 H73            4.7588     0.0156     0.5258 H       
  74 H74            4.8365     2.3241    -0.1550 H       
  75 H75            3.2636     1.8001    -0.8341 H       
  76 H76            6.2196     9.8401     6.7856 H       
  77 H77            7.6162     8.9939     7.4941 H       
  78 H78            7.5011    10.7669     7.6025 H       
  79 H79            7.6165    16.8385     6.0424 H       
@<TRIPOS>BOND
   1    1    2 ar
   2    1    6 ar
   3    1   44 1
   4    2    3 ar
   5    2   45 1
   6    3    4 ar
   7    3   46 1
   8    4    5 ar
   9    5    6 ar
  10    5    7 1
  11    6   47 1
  12    7    8 2
  13    7   11 1
  14    8    9 1
  15    8   17 1
  16    9   10 ar
  17    9   12 ar
  18   10   11 1
  19   10   15 ar
  20   11   16 1
  21   12   13 ar
  22   12   48 1
  23   13   14 ar
  24   13   49 1
  25   14   15 ar
  26   14   18 1
  27   15   50 1
  28   16   51 1
  29   16   52 1
  30   16   53 1
  31   17   36 1
  32   17   39 1
  33   17   54 1
  34   18   19 am
  35   18   20 2
  36   19   21 1
  37   19   55 1
  38   21   22 1
  39   21   31 1
  40   21   33 1
  41   22   23 am
  42   22   24 2
  43   23   25 1
  44   23   56 1
  45   25   26 ar
  46   25   30 ar
  47   26   27 ar
  48   26   57 1
  49   27   28 ar
  50   27   58 1
  51   28   29 ar
  52   28   34 1
  53   29   30 ar
  54   29   40 1
  55   30   59 1
  56   31   32 1
  57   31   60 1
  58   31   61 1
  59   32   33 1
  60   32   62 1
  61   32   63 1
  62   33   64 1
  63   33   65 1
  64   34   35 2
  65   34   66 1
  66   35   41 1
  67   35   67 1
  68   36   37 1
  69   36   68 1
  70   36   69 1
  71   37   38 1
  72   37   70 1
  73   37   71 1
  74   38   39 1
  75   38   72 1
  76   38   73 1
  77   39   74 1
  78   39   75 1
  79   40   76 1
  80   40   77 1
  81   40   78 1
  82   41   42 2
  83   41   43 1
  84   43   79 1

#	End of record

