#	Name: ASD10160519
#	Creating user name:	WinNT
#	Creation time:	15. 06. 2019 21:26

#	Modifying user name:	WinNT
#	Modification time:	15. 06. 2019 21:26

#	Program:	/corina/corina34_cracker 3.40 0067  02.08.2006

@<TRIPOS>MOLECULE
ASD10160519
  24   24    0    0    0
SMALL
NO_CHARGES


@<TRIPOS>ATOM
   1 C1            -0.0168     1.3850     0.0097 C.ar    
   2 C2             0.0021    -0.0041     0.0020 C.ar    
   3 C3             1.2200    -0.6608    -0.0132 C.ar    
   4 C4             2.3819     0.0990    -0.0202 C.ar    
   5 C5             2.2882     1.4763    -0.0120 C.ar    
   6 N6             1.1119     2.0742     0.0026 N.ar    
   7 C7            -1.2866    -0.7853     0.0107 C.3     
   8 F8            -1.0017    -2.1549     0.0005 F       
   9 F9            -2.0158    -0.4692     1.1620 F       
  10 F10           -2.0386    -0.4569    -1.1224 F       
  11 O11           -1.2045     2.0408     0.0188 O.3     
  12 C12           -1.1569     3.4690     0.0264 C.3     
  13 C13           -2.5816     4.0267     0.0361 C.3     
  14 C14           -3.3135     3.5342     1.2862 C.3     
  15 F15           -2.6335     3.9721     2.4277 F       
  16 F16           -4.6162     4.0441     1.2951 F       
  17 F17           -2.5350     5.4249     0.0435 F       
  18 F18           -3.2616     3.5888    -1.1053 F       
  19 H19            1.2657    -1.7398    -0.0191 H       
  20 H20            3.3487    -0.3822    -0.0317 H       
  21 H21            3.1891     2.0720    -0.0170 H       
  22 H22           -0.6270     3.8102     0.9157 H       
  23 H23           -0.6355     3.8199    -0.8642 H       
  24 H24           -3.3498     2.4448     1.2804 H       
@<TRIPOS>BOND
   1    1    2 ar
   2    1    6 ar
   3    1   11 1
   4    2    3 ar
   5    2    7 1
   6    3    4 ar
   7    3   19 1
   8    4    5 ar
   9    4   20 1
  10    5    6 ar
  11    5   21 1
  12    7    8 1
  13    7    9 1
  14    7   10 1
  15   11   12 1
  16   12   13 1
  17   12   22 1
  18   12   23 1
  19   13   14 1
  20   13   17 1
  21   13   18 1
  22   14   15 1
  23   14   16 1
  24   14   24 1

#	End of record

