#	Name: ASD10160113
#	Creating user name:	WinNT
#	Creation time:	15. 06. 2019 21:25

#	Modifying user name:	WinNT
#	Modification time:	15. 06. 2019 21:25

#	Program:	/corina/corina34_cracker 3.40 0067  02.08.2006

@<TRIPOS>MOLECULE
ASD10160113
  45   46    0    0    0
SMALL
NO_CHARGES


@<TRIPOS>ATOM
   1 C1             1.7576    -1.5539     3.5522 C.ar    
   2 C2             1.3245    -2.1586     2.3684 C.ar    
   3 C3             2.8125    -0.6339     3.5178 C.ar    
   4 C4             3.4192    -0.3286     2.3163 C.ar    
   5 C5             2.9845    -0.9326     1.1438 C.ar    
   6 C6             1.9362    -1.8475     1.1744 C.ar    
   7 C7             1.1016    -1.8794     4.8319 C.2     
   8 N8             0.0827    -2.7612     4.8617 N.am    
   9 O9             1.4798    -1.3524     5.8604 O.2     
  10 S10           -0.6541    -3.1268     6.2990 S.o2    
  11 O11           -1.6415    -4.0880     5.9521 O.2     
  12 O12            0.4194    -3.4603     7.1683 O.2     
  13 O13            3.5837    -0.6297    -0.0355 O.3     
  14 C14            4.6725     0.1843    -0.0078 C.ar    
  15 Cl15           1.3985    -2.5983    -0.2957 Cl      
  16 C16            5.9483    -0.3505     0.1493 C.ar    
  17 C17            4.5265     1.5558    -0.1413 C.ar    
  18 N18            5.5781     2.3524    -0.1158 N.ar    
  19 C19            6.8038     1.8808     0.0365 C.ar    
  20 C20            7.0281     0.5160     0.1713 C.ar    
  21 Cl21           8.6410    -0.0942     0.3716 Cl      
  22 O22            7.8556     2.7392     0.0566 O.3     
  23 F23            3.2352    -0.0459     4.6583 F       
  24 C24            7.5612     4.1296    -0.0920 C.3     
  25 C25           -1.4330    -1.5724     6.8167 C.3     
  26 C26            6.6410     4.5804     1.0442 C.3     
  27 C27            8.8617     4.9342    -0.0447 C.3     
  28 C28            6.8656     4.3630    -1.4346 C.3     
  29 H29            0.5114    -2.8691     2.3904 H       
  30 H30            4.2328     0.3811     2.2880 H       
  31 H31           -0.2191    -3.1816     4.0413 H       
  32 H32            6.0923    -1.4159     0.2518 H       
  33 H33            3.5404     1.9777    -0.2680 H       
  34 H34           -2.1511    -1.2563     6.0601 H       
  35 H35           -1.9474    -1.7223     7.7659 H       
  36 H36           -0.6683    -0.8047     6.9351 H       
  37 H37            7.1366     4.4141     2.0007 H       
  38 H38            6.4165     5.6409     0.9309 H       
  39 H39            5.7145     4.0072     1.0106 H       
  40 H40            9.5172     4.6131    -0.8542 H       
  41 H41            8.6371     5.9948    -0.1581 H       
  42 H42            9.3572     4.7679     0.9118 H       
  43 H43            5.9391     3.7898    -1.4683 H       
  44 H44            6.6410     5.4236    -1.5479 H       
  45 H45            7.5211     4.0419    -2.2441 H       
@<TRIPOS>BOND
   1    1    2 ar
   2    1    3 ar
   3    1    7 1
   4    2    6 ar
   5    2   29 1
   6    3    4 ar
   7    3   23 1
   8    4    5 ar
   9    4   30 1
  10    5    6 ar
  11    5   13 1
  12    6   15 1
  13    7    8 am
  14    7    9 2
  15    8   10 am
  16    8   31 1
  17   10   11 2
  18   10   12 2
  19   10   25 1
  20   13   14 1
  21   14   16 ar
  22   14   17 ar
  23   16   20 ar
  24   16   32 1
  25   17   18 ar
  26   17   33 1
  27   18   19 ar
  28   19   20 ar
  29   19   22 1
  30   20   21 1
  31   22   24 1
  32   24   26 1
  33   24   27 1
  34   24   28 1
  35   25   34 1
  36   25   35 1
  37   25   36 1
  38   26   37 1
  39   26   38 1
  40   26   39 1
  41   27   40 1
  42   27   41 1
  43   27   42 1
  44   28   43 1
  45   28   44 1
  46   28   45 1

#	End of record

