#	Name: ASD11890002
#	Creating user name:	WinNT
#	Creation time:	15. 06. 2019 21:29

#	Modifying user name:	WinNT
#	Modification time:	15. 06. 2019 21:29

#	Program:	/corina/corina34_cracker 3.40 0067  02.08.2006

@<TRIPOS>MOLECULE
ASD11890002
  71   76    0    0    0
SMALL
NO_CHARGES


@<TRIPOS>ATOM
   1 Cl1            1.4073     3.6779     3.8174 Cl      
   2 C2             1.5638     1.4027     1.8502 C.3     
   3 N3             2.1908     0.5916     0.7978 N.pl3   
   4 O4            -0.7950    -4.8117    -0.4770 O.2     
   5 C5             0.1098     0.9026     1.9650 C.3     
   6 N6             1.2745    -0.3505     0.3129 N.am    
   7 O7             2.7351    -1.6982    -0.6733 O.2     
   8 C8            -0.0853     0.0968     0.6615 C.3     
   9 N9             1.1008    -3.7712    -0.9839 N.am    
  10 C10            1.5847    -1.4765    -0.3598 C.2     
  11 N11            0.9164    -6.0966    -1.0718 N.am    
  12 C12            0.5019    -2.4599    -0.7226 C.3     
  13 C13            0.3654    -4.8903    -0.8314 C.2     
  14 C14            3.5065     0.7382     0.3472 C.ar    
  15 C15            3.8834     1.8858    -0.3421 C.ar    
  16 C16            5.1855     2.0266    -0.7859 C.ar    
  17 C17            6.1110     1.0278    -0.5450 C.ar    
  18 C18            5.7385    -0.1140     0.1401 C.ar    
  19 C19            4.4410    -0.2589     0.5919 C.ar    
  20 C20            2.2857     1.2034     3.1580 C.ar    
  21 C21            2.2644     2.1986     4.1185 C.ar    
  22 C22            2.9270     2.0148     5.3193 C.ar    
  23 C23            3.6096     0.8371     5.5582 C.ar    
  24 C24            3.6305    -0.1572     4.5978 C.ar    
  25 C25            2.9644     0.0238     3.4003 C.ar    
  26 C26            0.1170    -7.3131    -0.9060 C.3     
  27 C27            0.6922    -8.4250    -1.7857 C.3     
  28 C28           -0.1426    -9.6955    -1.6126 C.3     
  29 C29           -0.1061   -10.1340    -0.1472 C.3     
  30 C30           -0.6812    -9.0221     0.7324 C.3     
  31 C31            0.1536    -7.7517     0.5593 C.3     
  32 C32            1.6000    -8.0317     0.9719 C.3     
  33 C33            2.1752    -9.1436     0.0923 C.3     
  34 C34            1.3404   -10.4141     0.2654 C.3     
  35 C35            2.1386    -8.7050    -1.3730 C.3     
  36 C36           -0.2292    -1.9743    -1.9758 C.3     
  37 F37            2.9789     2.8612    -0.5781 F       
  38 H38            1.5774     2.4560     1.5702 H       
  39 H39           -0.0089     0.2595     2.8370 H       
  40 H40           -0.5843     1.7420     2.0066 H       
  41 H41           -0.7365    -0.7597     0.8355 H       
  42 H42           -0.4914     0.7336    -0.1244 H       
  43 H43            2.0265    -3.8339    -1.2666 H       
  44 H44            1.8421    -6.1593    -1.3545 H       
  45 H45           -0.2059    -2.5416     0.1023 H       
  46 H46            5.4797     2.9172    -1.3213 H       
  47 H47            7.1272     1.1397    -0.8932 H       
  48 H48            6.4642    -0.8919     0.3263 H       
  49 H49            4.1526    -1.1493     1.1308 H       
  50 H50            2.9111     2.7915     6.0695 H       
  51 H51            4.1271     0.6936     6.4953 H       
  52 H52            4.1643    -1.0772     4.7848 H       
  53 H53            2.9776    -0.7549     2.6521 H       
  54 H54           -0.9134    -7.1136    -1.2000 H       
  55 H55            0.6661    -8.1126    -2.8296 H       
  56 H56           -1.1731    -9.4960    -1.9065 H       
  57 H57            0.2671   -10.4876    -2.2392 H       
  58 H58           -0.7008   -11.0391    -0.0239 H       
  59 H59           -1.7117    -8.8226     0.4385 H       
  60 H60           -0.6552    -9.3346     1.7763 H       
  61 H61           -0.2561    -6.9595     1.1860 H       
  62 H62            2.1948    -7.1266     0.8486 H       
  63 H63            1.6261    -8.3441     2.0159 H       
  64 H64            3.2056    -9.3431     0.3862 H       
  65 H65            1.3664   -10.7265     1.3093 H       
  66 H66            1.7501   -11.2062    -0.3613 H       
  67 H67            2.5483    -9.4972    -1.9997 H       
  68 H68            2.7333    -7.7999    -1.4964 H       
  69 H69           -1.0634    -2.6419    -2.1914 H       
  70 H70           -0.6054    -0.9650    -1.8088 H       
  71 H71            0.4603    -1.9700    -2.8200 H       
@<TRIPOS>BOND
   1    1   21 1
   2    2    3 1
   3    2    5 1
   4    2   20 1
   5    2   38 1
   6    3    6 1
   7    3   14 1
   8    4   13 2
   9    5    8 1
  10    5   39 1
  11    5   40 1
  12    6    8 1
  13    6   10 am
  14    7   10 2
  15    8   41 1
  16    8   42 1
  17    9   12 1
  18    9   13 am
  19    9   43 1
  20   10   12 1
  21   11   13 am
  22   11   26 1
  23   11   44 1
  24   12   36 1
  25   12   45 1
  26   14   15 ar
  27   14   19 ar
  28   15   16 ar
  29   15   37 1
  30   16   17 ar
  31   16   46 1
  32   17   18 ar
  33   17   47 1
  34   18   19 ar
  35   18   48 1
  36   19   49 1
  37   20   21 ar
  38   20   25 ar
  39   21   22 ar
  40   22   23 ar
  41   22   50 1
  42   23   24 ar
  43   23   51 1
  44   24   25 ar
  45   24   52 1
  46   25   53 1
  47   26   27 1
  48   26   31 1
  49   26   54 1
  50   27   28 1
  51   27   35 1
  52   27   55 1
  53   28   29 1
  54   28   56 1
  55   28   57 1
  56   29   30 1
  57   29   34 1
  58   29   58 1
  59   30   31 1
  60   30   59 1
  61   30   60 1
  62   31   32 1
  63   31   61 1
  64   32   33 1
  65   32   62 1
  66   32   63 1
  67   33   34 1
  68   33   35 1
  69   33   64 1
  70   34   65 1
  71   34   66 1
  72   35   67 1
  73   35   68 1
  74   36   69 1
  75   36   70 1
  76   36   71 1

#	End of record

