#	Name: ASD14700001
#	Creating user name:	WinNT
#	Creation time:	15. 06. 2019 21:31

#	Modifying user name:	WinNT
#	Modification time:	15. 06. 2019 21:31

#	Program:	/corina/corina34_cracker 3.40 0067  02.08.2006

@<TRIPOS>MOLECULE
ASD14700001
  34   36    0    0    0
SMALL
NO_CHARGES


@<TRIPOS>ATOM
   1 O1            -0.0173     1.4232     0.0099 O.3     
   2 O2             3.2916    -0.5766     1.0966 O.2     
   3 O3             4.6935     1.5742     0.8822 O.3     
   4 O4             2.4562     5.3695    -0.8925 O.3     
   5 C5             0.0021    -0.0041     0.0020 C.3     
   6 C6             0.9022    -0.5064     1.1403 C.3     
   7 C7             2.3429     1.4668     0.4469 C.ar    
   8 C8            -1.3974    -0.5271     0.1994 C.ar    
   9 C9             2.2853     0.0756     0.9088 C.2     
  10 C10            1.1614     2.0891     0.0022 C.ar    
  11 C11            3.5569     2.1711     0.4452 C.ar    
  12 C12            1.2128     3.3970    -0.4455 C.ar    
  13 C13           -1.7995    -1.6843    -0.4411 C.ar    
  14 C14           -2.2772     0.1471     1.0253 C.ar    
  15 C15            2.4183     4.0876    -0.4496 C.ar    
  16 C16            3.5855     3.4791    -0.0054 C.ar    
  17 C17           -3.0832    -2.1640    -0.2601 C.ar    
  18 C18           -3.5609    -0.3326     1.2063 C.ar    
  19 C19           -3.9647    -1.4869     0.5617 C.ar    
  20 C20            3.7254     6.0257    -0.8719 C.3     
  21 H21            0.3917    -0.3573    -0.9527 H       
  22 H22            0.5122    -0.1662     2.0997 H       
  23 H23            0.9500    -1.5952     1.1230 H       
  24 H24            0.3131     3.8827    -0.7933 H       
  25 H25           -1.1108    -2.2133    -1.0832 H       
  26 H26           -1.9615     1.0486     1.5295 H       
  27 H27            4.5158     4.0275    -0.0112 H       
  28 H28           -3.3976    -3.0677    -0.7611 H       
  29 H29           -4.2482     0.1939     1.8519 H       
  30 H30           -4.9678    -1.8616     0.7028 H       
  31 H31            5.1880     1.1150     0.1896 H       
  32 H32            4.1013     6.0580     0.1507 H       
  33 H33            4.4279     5.4780    -1.5001 H       
  34 H34            3.6153     7.0418    -1.2507 H       
@<TRIPOS>BOND
   1    1    5 1
   2    1   10 1
   3    2    9 2
   4    3   11 1
   5    3   31 1
   6    4   15 1
   7    4   20 1
   8    5    6 1
   9    5    8 1
  10    5   21 1
  11    6    9 1
  12    6   22 1
  13    6   23 1
  14    7    9 1
  15    7   10 ar
  16    7   11 ar
  17    8   13 ar
  18    8   14 ar
  19   10   12 ar
  20   11   16 ar
  21   12   15 ar
  22   12   24 1
  23   13   17 ar
  24   13   25 1
  25   14   18 ar
  26   14   26 1
  27   15   16 ar
  28   16   27 1
  29   17   19 ar
  30   17   28 1
  31   18   19 ar
  32   18   29 1
  33   19   30 1
  34   20   32 1
  35   20   33 1
  36   20   34 1

#	End of record

