#	Name: ASD11000292
#	Creating user name:	WinNT
#	Creation time:	15. 06. 2019 21:29

#	Modifying user name:	WinNT
#	Modification time:	15. 06. 2019 21:29

#	Program:	/corina/corina34_cracker 3.40 0067  02.08.2006

@<TRIPOS>MOLECULE
ASD11000292
  29   30    0    0    0
SMALL
NO_CHARGES


@<TRIPOS>ATOM
   1 C1            -0.0110     1.3146     0.0475 C.ar    
   2 N2             0.0050    -0.0027     0.0215 N.ar    
   3 C3             1.1567    -0.6673     0.0072 C.ar    
   4 C4             2.3529     0.0535     0.0202 C.ar    
   5 C5             2.2869     1.4325     0.0474 C.ar    
   6 N6             1.1000     2.0230     0.0603 N.ar    
   7 N7             1.1698    -2.0533    -0.0197 N.pl3   
   8 C8             3.5487     2.2563     0.0629 C.3     
   9 O9             4.6841     1.3888     0.0450 O.3     
  10 C10            5.9386     2.0730     0.0577 C.3     
  11 C11           -0.0279    -2.7662     0.0935 C.ar    
  12 C12           -0.1909    -3.9652    -0.5884 C.ar    
  13 C13           -1.3754    -4.6678    -0.4744 C.ar    
  14 C14           -2.3991    -4.1767     0.3192 C.ar    
  15 C15           -2.2386    -2.9825     0.9987 C.ar    
  16 C16           -1.0543    -2.2794     0.8924 C.ar    
  17 Cl17          -3.8862    -5.0612     0.4608 Cl      
  18 Cl18          -1.5808    -6.1663    -1.3265 Cl      
  19 H19           -0.9611     1.8281     0.0540 H       
  20 H20            3.3057    -0.4550     0.0095 H       
  21 H21            2.0098    -2.5286    -0.1169 H       
  22 H22            3.5714     2.9026    -0.8145 H       
  23 H23            3.5726     2.8675     0.9651 H       
  24 H24            6.7497     1.3450     0.0428 H       
  25 H25            6.0109     2.7155    -0.8198 H       
  26 H26            6.0121     2.6804     0.9598 H       
  27 H27            0.6072    -4.3479    -1.2074 H       
  28 H28           -3.0384    -2.6017     1.6164 H       
  29 H29           -0.9283    -1.3493     1.4268 H       
@<TRIPOS>BOND
   1    1    2 ar
   2    1    6 ar
   3    1   19 1
   4    2    3 ar
   5    3    4 ar
   6    3    7 1
   7    4    5 ar
   8    4   20 1
   9    5    6 ar
  10    5    8 1
  11    7   11 1
  12    7   21 1
  13    8    9 1
  14    8   22 1
  15    8   23 1
  16    9   10 1
  17   10   24 1
  18   10   25 1
  19   10   26 1
  20   11   12 ar
  21   11   16 ar
  22   12   13 ar
  23   12   27 1
  24   13   14 ar
  25   13   18 1
  26   14   15 ar
  27   14   17 1
  28   15   16 ar
  29   15   28 1
  30   16   29 1

#	End of record

