#	Name: ASD10220031
#	Creating user name:	WinNT
#	Creation time:	15. 06. 2019 21:26

#	Modifying user name:	WinNT
#	Modification time:	15. 06. 2019 21:26

#	Program:	/corina/corina34_cracker 3.40 0067  02.08.2006

@<TRIPOS>MOLECULE
ASD10220031
  30   32    0    0    0
SMALL
NO_CHARGES


@<TRIPOS>ATOM
   1 C1            -0.0058     1.4637    -0.1740 C.2     
   2 C2             0.0245     0.0573    -0.3261 C.2     
   3 C3            -1.1127    -0.6704    -0.3846 C.2     
   4 C4            -2.4354    -0.0528    -0.2955 C.2     
   5 C5            -2.5492     1.3202    -0.1456 C.2     
   6 C6            -1.3370     2.1511    -0.0709 C.2     
   7 O7            -3.6779    -0.5709    -0.3301 O.3     
   8 C8            -4.6075     0.3792    -0.2119 C.2     
   9 C9            -3.9871     1.6056    -0.0903 C.2     
  10 O10           -1.4108     3.3547     0.0606 O.2     
  11 O11            1.0262     2.1029    -0.1227 O.2     
  12 C12           -4.6314     2.9214     0.0626 C.2     
  13 O13           -3.9539     3.9100     0.2689 O.2     
  14 C14           -6.1015     3.0402    -0.0348 C.ar    
  15 C15           -6.7707     4.0517     0.6571 C.ar    
  16 C16           -8.1429     4.1568     0.5617 C.ar    
  17 C17           -8.8560     3.2625    -0.2169 C.ar    
  18 C18           -8.1990     2.2572    -0.9050 C.ar    
  19 C19           -6.8269     2.1447    -0.8239 C.ar    
  20 Br20           1.6932    -0.8234    -0.4507 Br      
  21 Br21          -0.9899    -2.5463    -0.5889 Br      
  22 C22           -8.8670     5.2478     1.3077 C.3     
  23 F23           -8.9576     6.3853     0.4983 F       
  24 F24          -10.1529     4.8098     1.6421 F       
  25 F25           -8.1628     5.5610     2.4752 F       
  26 H26           -5.6749     0.2144    -0.2114 H       
  27 H27           -6.2154     4.7500     1.2657 H       
  28 H28           -9.9302     3.3491    -0.2878 H       
  29 H29           -8.7617     1.5623    -1.5107 H       
  30 H30           -6.3155     1.3601    -1.3617 H       
@<TRIPOS>BOND
   1    1    2 1
   2    1   11 2
   3    1    6 1
   4    2    3 2
   5    2   20 1
   6    3    4 1
   7    3   21 1
   8    4    5 2
   9    4    7 1
  10    5    6 1
  11    5    9 1
  12    6   10 2
  13    7    8 1
  14    8    9 2
  15    8   26 1
  16    9   12 1
  17   12   13 2
  18   12   14 1
  19   14   15 ar
  20   14   19 ar
  21   15   16 ar
  22   15   27 1
  23   16   17 ar
  24   16   22 1
  25   17   18 ar
  26   17   28 1
  27   18   19 ar
  28   18   29 1
  29   19   30 1
  30   22   23 1
  31   22   24 1
  32   22   25 1

#	End of record

