#	Name: ASD10410071
#	Creating user name:	WinNT
#	Creation time:	15. 06. 2019 21:26

#	Modifying user name:	WinNT
#	Modification time:	15. 06. 2019 21:26

#	Program:	/corina/corina34_cracker 3.40 0067  02.08.2006

@<TRIPOS>MOLECULE
ASD10410071
  72   78    0    0    0
SMALL
NO_CHARGES


@<TRIPOS>ATOM
   1 C1             0.0321     1.1128     0.1419 C.ar    
   2 C2             0.1869    -0.1704     0.6465 C.ar    
   3 C3             1.4613    -0.6777     0.8772 C.ar    
   4 C4             2.5726     0.0971     0.6037 C.ar    
   5 C5             2.4159     1.3816     0.0986 C.ar    
   6 C6             1.1434     1.8869    -0.1313 C.ar    
   7 F7             1.6127    -1.9269     1.3689 F       
   8 N8             3.5416     2.1671    -0.1783 N.pl3   
   9 C9             4.7204     1.5658    -0.6167 C.2     
  10 N10            5.8620     2.1819    -0.8087 N.2     
  11 N11            4.8685     0.2668    -0.9031 N.2     
  12 C12            6.1053     0.0350    -1.2869 C.2     
  13 N13            6.7818     1.2152    -1.2465 N.pl3   
  14 C14            8.1152     1.4224    -1.5737 C.ar    
  15 N15            6.6253    -1.1884    -1.6611 N.pl3   
  16 N16           -0.9405    -0.9551     0.9240 N.3     
  17 C17           -1.7994    -0.3075     1.9253 C.3     
  18 C18           -3.0553    -1.1552     2.1411 C.3     
  19 N19           -2.6644    -2.5025     2.5790 N.3     
  20 C20           -1.8055    -3.1501     1.5778 C.3     
  21 C21           -0.5496    -2.3024     1.3619 C.3     
  22 C22           -3.8462    -3.3250     2.8699 C.3     
  23 N23            8.6304     0.9131    -2.6838 N.ar    
  24 C24            9.8992     1.1030    -3.0082 C.ar    
  25 N25           10.7287     1.7985    -2.2668 N.ar    
  26 C26           10.3106     2.3581    -1.1220 C.ar    
  27 C27            8.9573     2.1865    -0.7352 C.ar    
  28 C28           11.1694     3.1070    -0.3075 C.ar    
  29 C29           10.6940     3.6572     0.8499 C.ar    
  30 C30            9.3564     3.4820     1.2338 C.ar    
  31 C31            8.4955     2.7614     0.4562 C.ar    
  32 O32           11.5282     4.3829     1.6391 O.3     
  33 C33           -3.4196    -4.7385     3.3279 C.3     
  34 C34           -3.9877    -4.8726     4.7738 C.3     
  35 C35           -5.5316    -4.9706     4.5791 C.3     
  36 C36           -5.9583    -3.5571     4.1211 C.3     
  37 C37           -4.6319    -2.7383     4.0823 C.3     
  38 C38           -3.8521    -3.3922     5.2772 C.3     
  39 O39            8.9104     4.0406     2.3904 O.3     
  40 C40            7.5383     3.8268     2.7273 C.3     
  41 H41           -0.9573     1.5050    -0.0414 H       
  42 H42            3.5625    -0.2959     0.7829 H       
  43 H43            1.0222     2.8855    -0.5244 H       
  44 H44            3.5011     3.1296    -0.0650 H       
  45 H45            6.0611    -1.9774    -1.6556 H       
  46 H46            7.5548    -1.2587    -1.9295 H       
  47 H47           -1.2562    -0.2162     2.8659 H       
  48 H48           -2.0857     0.6833     1.5726 H       
  49 H49           -3.6801    -0.6917     2.9045 H       
  50 H50           -3.6126    -1.2239     1.2069 H       
  51 H51           -1.5192    -4.1409     1.9304 H       
  52 H52           -2.3487    -3.2414     0.6372 H       
  53 H53            0.0752    -2.7659     0.5985 H       
  54 H54            0.0077    -2.2337     2.2961 H       
  55 H55           -4.4897    -3.3880     1.9924 H       
  56 H56           10.2686     0.6655    -3.9240 H       
  57 H57           12.2016     3.2487    -0.5921 H       
  58 H58            7.4672     2.6317     0.7598 H       
  59 H59           11.5478     5.3264     1.4278 H       
  60 H60           -3.8550    -5.4964     2.6767 H       
  61 H61           -2.3329    -4.8230     3.3372 H       
  62 H62           -3.5355    -5.6469     5.3935 H       
  63 H63           -5.7719    -5.7071     3.8123 H       
  64 H64           -6.0177    -5.2280     5.5201 H       
  65 H65           -6.4083    -3.5988     3.1292 H       
  66 H66           -6.6541    -3.1196     4.8370 H       
  67 H67           -4.7407    -1.6538     4.0997 H       
  68 H68           -4.3585    -3.2363     6.2298 H       
  69 H69           -2.8126    -3.0665     5.3140 H       
  70 H70            6.9033     4.2349     1.9410 H       
  71 H71            7.3510     2.7576     2.8271 H       
  72 H72            7.3138     4.3246     3.6706 H       
@<TRIPOS>BOND
   1    1    2 ar
   2    1    6 ar
   3    1   41 1
   4    2    3 ar
   5    2   16 1
   6    3    4 ar
   7    3    7 1
   8    4    5 ar
   9    4   42 1
  10    5    6 ar
  11    5    8 1
  12    6   43 1
  13    8    9 1
  14    8   44 1
  15    9   10 2
  16    9   11 1
  17   10   13 1
  18   11   12 2
  19   12   13 1
  20   12   15 1
  21   13   14 1
  22   14   23 ar
  23   14   27 ar
  24   15   45 1
  25   15   46 1
  26   16   17 1
  27   16   21 1
  28   17   18 1
  29   17   47 1
  30   17   48 1
  31   18   19 1
  32   18   49 1
  33   18   50 1
  34   19   20 1
  35   19   22 1
  36   20   21 1
  37   20   51 1
  38   20   52 1
  39   21   53 1
  40   21   54 1
  41   22   33 1
  42   22   37 1
  43   22   55 1
  44   23   24 ar
  45   24   25 ar
  46   24   56 1
  47   25   26 ar
  48   26   27 ar
  49   26   28 ar
  50   27   31 ar
  51   28   29 ar
  52   28   57 1
  53   29   30 ar
  54   29   32 1
  55   30   31 ar
  56   30   39 1
  57   31   58 1
  58   32   59 1
  59   33   34 1
  60   33   60 1
  61   33   61 1
  62   34   35 1
  63   34   38 1
  64   34   62 1
  65   35   36 1
  66   35   63 1
  67   35   64 1
  68   36   37 1
  69   36   65 1
  70   36   66 1
  71   37   38 1
  72   37   67 1
  73   38   68 1
  74   38   69 1
  75   39   40 1
  76   40   70 1
  77   40   71 1
  78   40   72 1

#	End of record

