#	Name: ASD11920031
#	Creating user name:	WinNT
#	Creation time:	15. 06. 2019 21:29

#	Modifying user name:	WinNT
#	Modification time:	15. 06. 2019 21:29

#	Program:	/corina/corina34_cracker 3.40 0067  02.08.2006

@<TRIPOS>MOLECULE
ASD11920031
  49   52    0    0    0
SMALL
NO_CHARGES


@<TRIPOS>ATOM
   1 C1            -0.0610     1.4167     0.2546 C.ar    
   2 C2            -0.0246     0.0395     0.0459 C.ar    
   3 C3             1.1987    -0.5984    -0.1490 C.ar    
   4 C4             2.3671     0.1361    -0.1344 C.ar    
   5 C5             2.3252     1.5030     0.0732 C.ar    
   6 C6             1.1135     2.1414     0.2672 C.ar    
   7 C7             3.6044     2.2996     0.0885 C.3     
   8 C8             3.9172     2.7744    -1.3071 C.ar    
   9 C9             3.4324     3.9964    -1.7452 C.ar    
  10 C10            3.7195     4.4272    -3.0179 C.ar    
  11 C11            4.4972     3.6415    -3.8742 C.ar    
  12 C12            4.9820     2.4127    -3.4258 C.ar    
  13 C13            4.6922     1.9909    -2.1441 C.ar    
  14 C14            3.2117     5.7517    -3.5371 C.3     
  15 C15            3.5846     6.1317    -4.9537 C.2     
  16 N16            4.3393     5.2991    -5.6913 N.am    
  17 C17            4.7921     4.1227    -5.2358 C.2     
  18 O18            5.4691     3.4302    -5.9696 O.2     
  19 O19            4.6714     5.6831    -7.0131 O.3     
  20 O20            3.2038     7.1833    -5.4218 O.2     
  21 C21           -1.2841    -0.7451     0.0318 C.ar    
  22 C22           -1.4664    -1.7910     0.9339 C.ar    
  23 C23           -2.6400    -2.5175     0.9163 C.ar    
  24 C24           -3.6338    -2.2088     0.0054 C.ar    
  25 C25           -3.4579    -1.1715    -0.8929 C.ar    
  26 C26           -2.2912    -0.4346    -0.8801 C.ar    
  27 C27           -4.9129    -3.0056    -0.0090 C.3     
  28 C28           -0.3842    -2.1288     1.9267 C.3     
  29 F29           -0.8528    -3.1042     2.8134 F       
  30 F30            0.7368    -2.6168     1.2466 F       
  31 F31           -0.0319    -0.9792     2.6418 F       
  32 F32           -5.8416    -2.4122     0.8527 F       
  33 F33           -5.4318    -3.0310    -1.3079 F       
  34 F34           -4.6525    -4.3131     0.4149 F       
  35 H35           -1.0068     1.9167     0.4018 H       
  36 H36            1.2326    -1.6657    -0.3108 H       
  37 H37            3.3159    -0.3573    -0.2851 H       
  38 H38            1.0865     3.2089     0.4289 H       
  39 H39            3.4887     3.1600     0.7476 H       
  40 H40            4.4190     1.6720     0.4499 H       
  41 H41            2.8309     4.6078    -1.0888 H       
  42 H42            5.5838     1.7963    -4.0771 H       
  43 H43            5.0664     1.0400    -1.7947 H       
  44 H44            2.1239     5.7431    -3.4684 H       
  45 H45            3.5787     6.5343    -2.8731 H       
  46 H46            5.2154     5.0378    -7.4852 H       
  47 H47           -2.7822    -3.3288     1.6149 H       
  48 H48           -4.2369    -0.9351    -1.6026 H       
  49 H49           -2.1550     0.3751    -1.5816 H       
@<TRIPOS>BOND
   1    1    2 ar
   2    1    6 ar
   3    1   35 1
   4    2    3 ar
   5    2   21 1
   6    3    4 ar
   7    3   36 1
   8    4    5 ar
   9    4   37 1
  10    5    6 ar
  11    5    7 1
  12    6   38 1
  13    7    8 1
  14    7   39 1
  15    7   40 1
  16    8    9 ar
  17    8   13 ar
  18    9   10 ar
  19    9   41 1
  20   10   11 ar
  21   10   14 1
  22   11   12 ar
  23   11   17 1
  24   12   13 ar
  25   12   42 1
  26   13   43 1
  27   14   15 1
  28   14   44 1
  29   14   45 1
  30   15   16 am
  31   15   20 2
  32   16   17 am
  33   16   19 1
  34   17   18 2
  35   19   46 1
  36   21   22 ar
  37   21   26 ar
  38   22   23 ar
  39   22   28 1
  40   23   24 ar
  41   23   47 1
  42   24   25 ar
  43   24   27 1
  44   25   26 ar
  45   25   48 1
  46   26   49 1
  47   27   32 1
  48   27   33 1
  49   27   34 1
  50   28   29 1
  51   28   30 1
  52   28   31 1

#	End of record

