#	Name: ASD10160267
#	Creating user name:	WinNT
#	Creation time:	15. 06. 2019 21:25

#	Modifying user name:	WinNT
#	Modification time:	15. 06. 2019 21:25

#	Program:	/corina/corina34_cracker 3.40 0067  02.08.2006

@<TRIPOS>MOLECULE
ASD10160267
  49   50    0    0    0
SMALL
NO_CHARGES


@<TRIPOS>ATOM
   1 C1             0.3713     1.0957     1.9671 C.2     
   2 C2             0.2887    -0.2788     1.4441 C.ar    
   3 C3             1.3768    -0.8372     0.7565 C.ar    
   4 C4             1.2908    -2.1309     0.2683 C.ar    
   5 C5             0.1306    -2.8699     0.4603 C.ar    
   6 C6            -0.9486    -2.3160     1.1416 C.ar    
   7 C7            -0.8724    -1.0342     1.6359 C.ar    
   8 O8             1.3840     1.7489     1.8033 O.2     
   9 N9            -0.6775     1.6315     2.6224 N.am    
  10 S10           -0.5847     3.1768     3.2104 S.o2    
  11 O11           -1.8376     3.3851     3.8478 O.2     
  12 O12            0.6270     3.1973     3.9523 O.2     
  13 C13           -0.4427     4.2165     1.7307 C.3     
  14 O14            2.5091    -0.1126     0.5700 O.3     
  15 C15            3.5161    -0.2112     1.5792 C.3     
  16 O16            0.0491    -4.1372    -0.0192 O.3     
  17 C17           -1.4088    -5.5706     1.2043 C.ar    
  18 C18           -1.1399    -4.7871     0.0933 C.ar    
  19 C19           -2.1026    -4.6733    -0.9059 C.ar    
  20 C20           -3.2985    -5.3518    -0.7492 C.ar    
  21 C21           -3.4974    -6.1183     0.3913 C.ar    
  22 N22           -2.5603    -6.2040     1.3203 N.ar    
  23 O23           -4.6671    -6.7877     0.5544 O.3     
  24 C24           -4.8121    -7.5592     1.7484 C.3     
  25 C25           -6.1843    -8.2360     1.7549 C.3     
  26 C26           -6.2599    -9.2465     0.6085 C.3     
  27 C27           -6.3897    -8.9599     3.0871 C.3     
  28 F28            2.3353    -2.6735    -0.3949 F       
  29 H29           -1.8480    -2.8960     1.2868 H       
  30 H30           -1.7108    -0.6100     2.1684 H       
  31 H31           -1.4868     1.1120     2.7495 H       
  32 H32           -1.3203     4.0730     1.1002 H       
  33 H33           -0.3755     5.2632     2.0271 H       
  34 H34            0.4529     3.9379     1.1755 H       
  35 H35            4.3654     0.4156     1.3075 H       
  36 H36            3.1083     0.1230     2.5332 H       
  37 H37            3.8425    -1.2475     1.6666 H       
  38 H38           -0.6655    -5.6676     1.9817 H       
  39 H39           -1.9205    -4.0694    -1.7826 H       
  40 H40           -4.0676    -5.2857    -1.5045 H       
  41 H41           -4.0319    -8.3193     1.7869 H       
  42 H42           -4.7255    -6.9053     2.6162 H       
  43 H43           -6.9616    -7.4827     1.6270 H       
  44 H44           -5.4825    -9.9998     0.7363 H       
  45 H45           -7.2374    -9.7287     0.6130 H       
  46 H46           -6.1135    -8.7308    -0.3406 H       
  47 H47           -6.3358    -8.2400     3.9038 H       
  48 H48           -7.3672    -9.4421     3.0916 H       
  49 H49           -5.6123    -9.7132     3.2149 H       
@<TRIPOS>BOND
   1    1    2 1
   2    1    8 2
   3    1    9 am
   4    2    3 ar
   5    2    7 ar
   6    3    4 ar
   7    3   14 1
   8    4    5 ar
   9    4   28 1
  10    5    6 ar
  11    5   16 1
  12    6    7 ar
  13    6   29 1
  14    7   30 1
  15    9   10 am
  16    9   31 1
  17   10   11 2
  18   10   12 2
  19   10   13 1
  20   13   32 1
  21   13   33 1
  22   13   34 1
  23   14   15 1
  24   15   35 1
  25   15   36 1
  26   15   37 1
  27   16   18 1
  28   17   18 ar
  29   17   22 ar
  30   17   38 1
  31   18   19 ar
  32   19   20 ar
  33   19   39 1
  34   20   21 ar
  35   20   40 1
  36   21   22 ar
  37   21   23 1
  38   23   24 1
  39   24   25 1
  40   24   41 1
  41   24   42 1
  42   25   26 1
  43   25   27 1
  44   25   43 1
  45   26   44 1
  46   26   45 1
  47   26   46 1
  48   27   47 1
  49   27   48 1
  50   27   49 1

#	End of record

