#	Name: ASD10610180
#	Creating user name:	WinNT
#	Creation time:	15. 06. 2019 21:28

#	Modifying user name:	WinNT
#	Modification time:	15. 06. 2019 21:28

#	Program:	/corina/corina34_cracker 3.40 0067  02.08.2006

@<TRIPOS>MOLECULE
ASD10610180
  76   82    0    0    0
SMALL
NO_CHARGES


@<TRIPOS>ATOM
   1 C1            -0.7564    -0.1992     1.2299 C.2     
   2 N2            -0.0300    -0.0786     0.1011 N.am    
   3 O3            -0.3250    -0.8457     2.1639 O.2     
   4 O4            -1.9577     0.4013     1.3247 O.3     
   5 O5             1.2015    -2.2261    -1.2777 O.3     
   6 C6             1.3936    -2.1615     0.1414 C.3     
   7 C7             1.3248    -0.6328     0.0392 C.3     
   8 C8             1.8243    -0.9389    -1.3781 C.3     
   9 C9             2.3145     0.0984     0.9092 C.2     
  10 N10            2.2203     1.4343     1.0607 N.am    
  11 O11            3.1957    -0.5152     1.4729 O.2     
  12 C12            3.2447     2.1598     1.8160 C.3     
  13 C13            2.9066     2.1143     3.3075 C.3     
  14 C14            3.2880     3.5937     1.3543 C.ar    
  15 C15            4.5124     4.1967     1.1152 C.ar    
  16 C16            4.5459     5.5157     0.6902 C.ar    
  17 C17            3.3320     6.1877     0.5194 C.ar    
  18 C18            2.1430     5.5095     0.7814 C.ar    
  19 N19            2.1598     4.2538     1.1789 N.ar    
  20 F20            5.6602     3.5073     1.2945 F       
  21 C21            3.3099     7.5994     0.0673 C.ar    
  22 C22            2.4870     7.9846    -1.0032 C.ar    
  23 C23            2.4750     9.3154    -1.4193 C.ar    
  24 C24            3.2711    10.2466    -0.7777 C.ar    
  25 C25            4.0823     9.8647     0.2775 C.ar    
  26 C26            4.1003     8.5504     0.7052 C.ar    
  27 O27            0.7663     5.1642    -2.1461 O.3     
  28 N28            1.5523     5.7086    -1.3998 N.2     
  29 C29            1.6363     6.9824    -1.6873 C.2     
  30 N30            0.8004     7.2129    -2.7256 N.2     
  31 C31            0.2577     6.0540    -3.0043 C.2     
  32 C32           -0.7508     5.7758    -4.0889 C.3     
  33 F33            1.6865     9.6947    -2.4487 F       
  34 Cl34           5.0767    11.0448     1.0727 Cl      
  35 C35           -2.6847     0.2285     2.5696 C.3     
  36 C36           -4.0166     0.9774     2.4907 C.3     
  37 C37           -4.8381     0.7081     3.7275 C.ar    
  38 C38           -5.3532    -0.4540     4.2622 C.ar    
  39 C39           -6.0864    -0.4115     5.4346 C.ar    
  40 C40           -6.3049     0.7964     6.0727 C.ar    
  41 C41           -5.7940     1.9637     5.5448 C.ar    
  42 C42           -5.0527     1.9283     4.3622 C.ar    
  43 C43           -4.3981     3.0107     3.5863 C.ar    
  44 C44           -4.3285     4.3875     3.8071 C.ar    
  45 C45           -3.6466     5.1939     2.9200 C.ar    
  46 C46           -3.0298     4.6439     1.8105 C.ar    
  47 C47           -3.0950     3.2804     1.5852 C.ar    
  48 C48           -3.7746     2.4667     2.4669 C.ar    
  49 H49           -0.4041     0.3751    -0.6703 H       
  50 H50            0.5705    -2.5948     0.7096 H       
  51 H51            2.3674    -2.5303     0.4635 H       
  52 H52            2.9106    -0.9884    -1.4528 H       
  53 H53            1.3786    -0.3008    -2.1413 H       
  54 H54            1.4744     1.9154     0.6696 H       
  55 H55            4.2164     1.6950     1.6494 H       
  56 H56            1.9348     2.5791     3.4741 H       
  57 H57            2.8752     1.0772     3.6414 H       
  58 H58            3.6687     2.6541     3.8695 H       
  59 H59            5.4856     6.0115     0.4965 H       
  60 H60            1.1984     6.0172     0.6534 H       
  61 H61            3.2603    11.2769    -1.1016 H       
  62 H62            4.7316     8.2605     1.5322 H       
  63 H63           -1.0159     4.7186    -4.0760 H       
  64 H64           -1.6440     6.3765    -3.9173 H       
  65 H65           -0.3220     6.0310    -5.0579 H       
  66 H66           -2.8735    -0.8321     2.7359 H       
  67 H67           -2.0928     0.6258     3.3942 H       
  68 H68           -4.5666     0.6712     1.6008 H       
  69 H69           -5.1837    -1.3979     3.7656 H       
  70 H70           -6.4891    -1.3225     5.8521 H       
  71 H71           -6.8781     0.8255     6.9876 H       
  72 H72           -5.9672     2.9046     6.0460 H       
  73 H73           -4.8087     4.8210     4.6720 H       
  74 H74           -3.5938     6.2587     3.0922 H       
  75 H75           -2.4968     5.2798     1.1192 H       
  76 H76           -2.6131     2.8531     0.7183 H       
@<TRIPOS>BOND
   1    1    2 am
   2    1    3 2
   3    1    4 1
   4    2    7 1
   5    2   49 1
   6    4   35 1
   7    5    6 1
   8    5    8 1
   9    6    7 1
  10    6   50 1
  11    6   51 1
  12    7    8 1
  13    7    9 1
  14    8   52 1
  15    8   53 1
  16    9   10 am
  17    9   11 2
  18   10   12 1
  19   10   54 1
  20   12   13 1
  21   12   14 1
  22   12   55 1
  23   13   56 1
  24   13   57 1
  25   13   58 1
  26   14   15 ar
  27   14   19 ar
  28   15   16 ar
  29   15   20 1
  30   16   17 ar
  31   16   59 1
  32   17   18 ar
  33   17   21 1
  34   18   19 ar
  35   18   60 1
  36   21   22 ar
  37   21   26 ar
  38   22   23 ar
  39   22   29 1
  40   23   24 ar
  41   23   33 1
  42   24   25 ar
  43   24   61 1
  44   25   26 ar
  45   25   34 1
  46   26   62 1
  47   27   28 1
  48   27   31 1
  49   28   29 2
  50   29   30 1
  51   30   31 2
  52   31   32 1
  53   32   63 1
  54   32   64 1
  55   32   65 1
  56   35   36 1
  57   35   66 1
  58   35   67 1
  59   36   37 1
  60   36   48 1
  61   36   68 1
  62   37   38 ar
  63   37   42 ar
  64   38   39 ar
  65   38   69 1
  66   39   40 ar
  67   39   70 1
  68   40   41 ar
  69   40   71 1
  70   41   42 ar
  71   41   72 1
  72   42   43 1
  73   43   44 ar
  74   43   48 ar
  75   44   45 ar
  76   44   73 1
  77   45   46 ar
  78   45   74 1
  79   46   47 ar
  80   46   75 1
  81   47   48 ar
  82   47   76 1

#	End of record

