#	Name: ASD11920019
#	Creating user name:	WinNT
#	Creation time:	15. 06. 2019 21:29

#	Modifying user name:	WinNT
#	Modification time:	15. 06. 2019 21:29

#	Program:	/corina/corina34_cracker 3.40 0067  02.08.2006

@<TRIPOS>MOLECULE
ASD11920019
  42   43    0    0    0
SMALL
NO_CHARGES


@<TRIPOS>ATOM
   1 C1            -0.0179     1.4663     0.0101 C.3     
   2 N2             0.0021    -0.0041     0.0020 N.am    
   3 O3            -1.6296    -0.1419     1.5018 O.2     
   4 S4             1.7614     3.4845     0.7261 S.2     
   5 C5             1.4002     1.9771    -0.0007 C.2     
   6 N6             2.3864     1.2623    -0.5744 N.am    
   7 O7            -0.8019    -2.0611     0.7549 O.3     
   8 S8            -2.4956     1.4721    -1.1487 S.3     
   9 C9             2.1274     0.0039    -1.1320 C.ar    
  10 O10            1.3296    -3.7185    -2.7421 O.3     
  11 C11            0.9252    -0.6434    -0.8409 C.ar    
  12 C12            0.6569    -1.8891    -1.3779 C.ar    
  13 C13            1.5877    -2.4937    -2.2113 C.ar    
  14 C14            2.7815    -1.8495    -2.5028 C.ar    
  15 C15            3.0516    -0.6043    -1.9666 C.ar    
  16 C16           -0.8386    -0.7152     0.7792 C.2     
  17 C17           -1.7361    -2.7616     1.6179 C.3     
  18 C18           -2.1045    -4.1056     0.9862 C.3     
  19 C19           -1.0884    -3.0003     2.9833 C.3     
  20 C20           -0.7546     1.9751    -1.2306 C.3     
  21 C21           -3.1902     2.1556    -2.6787 C.3     
  22 C22            2.3314    -4.2818    -3.5912 C.3     
  23 H23           -0.5257     1.8192     0.9077 H       
  24 H24            3.2864     1.6231    -0.6022 H       
  25 H25           -0.2725    -2.3895    -1.1496 H       
  26 H26            3.5028    -2.3227    -3.1527 H       
  27 H27            3.9822    -0.1067    -2.1965 H       
  28 H28           -2.6364    -2.1601     1.7430 H       
  29 H29           -1.2042    -4.7072     0.8611 H       
  30 H30           -2.8058    -4.6315     1.6341 H       
  31 H31           -2.5659    -3.9356     0.0135 H       
  32 H32           -0.8260    -2.0429     3.4333 H       
  33 H33           -1.7897    -3.5262     3.6312 H       
  34 H34           -0.1881    -3.6019     2.8582 H       
  35 H35           -0.6921     3.0625    -1.2699 H       
  36 H36           -0.2959     1.5522    -2.1244 H       
  37 H37           -3.0667     3.2386    -2.6817 H       
  38 H38           -2.6706     1.7282    -3.5363 H       
  39 H39           -4.2507     1.9107    -2.7374 H       
  40 H40            2.4982    -3.6226    -4.4432 H       
  41 H41            3.2601    -4.3948    -3.0320 H       
  42 H42            2.0001    -5.2576    -3.9463 H       
@<TRIPOS>BOND
   1    1    2 1
   2    1    5 1
   3    1   20 1
   4    1   23 1
   5    2   11 1
   6    2   16 am
   7    3   16 2
   8    4    5 2
   9    5    6 am
  10    6    9 1
  11    6   24 1
  12    7   16 1
  13    7   17 1
  14    8   20 1
  15    8   21 1
  16    9   11 ar
  17    9   15 ar
  18   10   13 1
  19   10   22 1
  20   11   12 ar
  21   12   13 ar
  22   12   25 1
  23   13   14 ar
  24   14   15 ar
  25   14   26 1
  26   15   27 1
  27   17   18 1
  28   17   19 1
  29   17   28 1
  30   18   29 1
  31   18   30 1
  32   18   31 1
  33   19   32 1
  34   19   33 1
  35   19   34 1
  36   20   35 1
  37   20   36 1
  38   21   37 1
  39   21   38 1
  40   21   39 1
  41   22   40 1
  42   22   41 1
  43   22   42 1

#	End of record

