#	Name: ASD10360002
#	Creating user name:	WinNT
#	Creation time:	15. 06. 2019 21:26

#	Modifying user name:	WinNT
#	Modification time:	15. 06. 2019 21:26

#	Program:	/corina/corina34_cracker 3.40 0067  02.08.2006

@<TRIPOS>MOLECULE
ASD10360002
  71   75    0    0    0
SMALL
NO_CHARGES


@<TRIPOS>ATOM
   1 C1            -0.0166     1.3747     0.0096 C.ar    
   2 C2             0.0021    -0.0041     0.0020 C.ar    
   3 C3             1.2302    -0.6650    -0.0133 C.ar    
   4 C4             2.3940     0.1036    -0.0203 C.ar    
   5 C5             2.2888     1.4785    -0.0119 C.ar    
   6 N6             1.1073     2.0668     0.0026 N.ar    
   7 N7             1.2927    -2.0553    -0.0209 N.pl3   
   8 C8             0.0582    -2.8441    -0.0128 C.3     
   9 C9             2.5930    -2.7300    -0.0370 C.3     
  10 C10            1.0415     3.5303     0.0111 C.3     
  11 C11            1.0053     4.0398    -1.4067 C.ar    
  12 C12           -0.2073     4.2196    -2.0458 C.ar    
  13 C13            2.1843     4.3326    -2.0663 C.ar    
  14 C14            2.1510     4.7999    -3.3668 C.ar    
  15 C15            0.9388     4.9739    -4.0080 C.ar    
  16 C16           -0.2405     4.6868    -3.3464 C.ar    
  17 C17            0.9332     4.1457   -10.2205 C.ar    
  18 C18            2.1122     4.4394   -10.8797 C.ar    
  19 C19           -0.2787     4.3143   -10.8636 C.ar    
  20 C20           -0.3117     4.7767   -12.1659 C.ar    
  21 C21            0.8672     5.0708   -12.8250 C.ar    
  22 C22            2.0792     4.9018   -12.1820 C.ar    
  23 C23            0.8313     5.5739   -14.2451 C.3     
  24 N24            0.7538     7.0368   -14.2431 N.pl3   
  25 C25           -0.3828     7.7844   -14.3301 C.2     
  26 N26           -0.0851     9.0510   -14.2991 N.2     
  27 C27            1.2574     9.1961   -14.1904 C.ar    
  28 C28            1.8112     7.9057   -14.1472 C.ar    
  29 C29            2.1298    10.2954   -14.1146 C.ar    
  30 N30            3.4340    10.0628   -14.0115 N.ar    
  31 C31            3.9086     8.8306   -13.9803 C.ar    
  32 N32            3.1294     7.7716   -14.0409 N.ar    
  33 N33            1.6419    11.5900   -14.1469 N.pl3   
  34 C34            0.9025     5.4839    -5.4256 C.3     
  35 C35            0.9544     4.3009    -6.3946 C.3     
  36 C36            0.9176     4.8187    -7.8339 C.3     
  37 C37            0.9695     3.6357    -8.8029 C.3     
  38 H38           -0.9630     1.8950     0.0169 H       
  39 H39           -0.9212    -0.5643     0.0082 H       
  40 H40            3.3639    -0.3713    -0.0318 H       
  41 H41            3.1847     2.0817    -0.0173 H       
  42 H42           -0.2580    -3.0346    -1.0384 H       
  43 H43            0.2362    -3.7923     0.4945 H       
  44 H44           -0.7221    -2.2924     0.5114 H       
  45 H45            2.9255    -2.9025     0.9866 H       
  46 H46            2.5006    -3.6847    -0.5548 H       
  47 H47            3.3204    -2.1047    -0.5548 H       
  48 H48            0.1411     3.8505     0.5353 H       
  49 H49            1.9192     3.9305     0.5186 H       
  50 H50           -1.1286     3.9946    -1.5291 H       
  51 H51            3.1314     4.1967    -1.5654 H       
  52 H52            3.0722     5.0294    -3.8819 H       
  53 H53           -1.1876     4.8228    -3.8472 H       
  54 H54            3.0591     4.3080   -10.3772 H       
  55 H55           -1.1998     4.0845   -10.3486 H       
  56 H56           -1.2586     4.9077   -12.6685 H       
  57 H57            3.0003     5.1319   -12.6969 H       
  58 H58            1.7359     5.2587   -14.7652 H       
  59 H59           -0.0415     5.1645   -14.7536 H       
  60 H60           -1.3826     7.3846   -14.4130 H       
  61 H61            4.9757     8.6866   -13.8957 H       
  62 H62            0.6877    11.7470   -14.2227 H       
  63 H63            2.2541    12.3405   -14.0938 H       
  64 H64           -0.0179     6.0451    -5.5864 H       
  65 H65            1.7598     6.1341    -5.5999 H       
  66 H66            1.8749     3.7397    -6.2338 H       
  67 H67            0.0972     3.6507    -6.2204 H       
  68 H68           -0.0028     5.3799    -7.9947 H       
  69 H69            1.7749     5.4689    -8.0081 H       
  70 H70            0.1123     2.9855    -8.6286 H       
  71 H71            1.8900     3.0745    -8.6421 H       
@<TRIPOS>BOND
   1    1    2 ar
   2    1    6 ar
   3    1   38 1
   4    2    3 ar
   5    2   39 1
   6    3    4 ar
   7    3    7 1
   8    4    5 ar
   9    4   40 1
  10    5    6 ar
  11    5   41 1
  12    6   10 1
  13    7    8 1
  14    7    9 1
  15    8   42 1
  16    8   43 1
  17    8   44 1
  18    9   45 1
  19    9   46 1
  20    9   47 1
  21   10   11 1
  22   10   48 1
  23   10   49 1
  24   11   12 ar
  25   11   13 ar
  26   12   16 ar
  27   12   50 1
  28   13   14 ar
  29   13   51 1
  30   14   15 ar
  31   14   52 1
  32   15   16 ar
  33   15   34 1
  34   16   53 1
  35   17   18 ar
  36   17   19 ar
  37   17   37 1
  38   18   22 ar
  39   18   54 1
  40   19   20 ar
  41   19   55 1
  42   20   21 ar
  43   20   56 1
  44   21   22 ar
  45   21   23 1
  46   22   57 1
  47   23   24 1
  48   23   58 1
  49   23   59 1
  50   24   25 1
  51   24   28 1
  52   25   26 2
  53   25   60 1
  54   26   27 1
  55   27   28 ar
  56   27   29 ar
  57   28   32 ar
  58   29   30 ar
  59   29   33 1
  60   30   31 ar
  61   31   32 ar
  62   31   61 1
  63   33   62 1
  64   33   63 1
  65   34   35 1
  66   34   64 1
  67   34   65 1
  68   35   36 1
  69   35   66 1
  70   35   67 1
  71   36   37 1
  72   36   68 1
  73   36   69 1
  74   37   70 1
  75   37   71 1

#	End of record

