#	Name: ASD11030039
#	Creating user name:	WinNT
#	Creation time:	15. 06. 2019 21:29

#	Modifying user name:	WinNT
#	Modification time:	15. 06. 2019 21:29

#	Program:	/corina/corina34_cracker 3.40 0067  02.08.2006

@<TRIPOS>MOLECULE
ASD11030039
  77   82    0    0    0
SMALL
NO_CHARGES


@<TRIPOS>ATOM
   1 C1             2.7059     4.0404    -5.8817 C.ar    
   2 C2             1.7394     3.1290    -5.4804 C.ar    
   3 C3             1.8579     2.5119    -4.2480 C.ar    
   4 N4             2.8737     2.7777    -3.4531 N.ar    
   5 C5             3.8201     3.6434    -3.7990 C.ar    
   6 C6             3.7630     4.3018    -5.0276 C.ar    
   7 C7             4.9425     3.9112    -2.8748 C.2     
   8 C8             5.4301     3.0374    -1.9582 C.2     
   9 C9             6.4968     3.6734    -1.2784 C.ar    
  10 C10            6.6215     4.9639    -1.8317 C.ar    
  11 N11            5.6602     5.0828    -2.8133 N.pl3   
  12 C12            7.3592     3.2666    -0.2501 C.ar    
  13 C13            8.3154     4.1172     0.2133 C.ar    
  14 C14            8.4470     5.4030    -0.3312 C.ar    
  15 C15            7.5989     5.8234    -1.3530 C.ar    
  16 C16            5.4343     6.2662    -3.6469 C.3     
  17 C17            4.9260     1.6394    -1.7083 C.3     
  18 C18            9.4883     6.3148     0.1812 C.2     
  19 N19           10.3103     5.9112     1.1701 N.am    
  20 O20            9.6047     7.4301    -0.2889 O.2     
  21 C21           11.4179     6.7693     1.5979 C.3     
  22 C22           10.9516     8.0572     2.2261 C.2     
  23 N23            9.8429     8.0705     2.9924 N.am    
  24 O24           11.5739     9.0819     2.0421 O.2     
  25 C25            9.4618     9.2427     3.6487 C.ar    
  26 C26            9.7554    10.4791     3.0859 C.ar    
  27 C27            9.3823    11.6383     3.7292 C.ar    
  28 C28            8.7054    11.5729     4.9525 C.ar    
  29 C29            8.4093    10.3270     5.5191 C.ar    
  30 C30            8.7818     9.1696     4.8660 C.ar    
  31 C31           12.4848     6.0318     2.4243 C.3     
  32 C32           13.5345     6.8482     1.6520 C.3     
  33 C33           12.4973     6.9650     0.5202 C.3     
  34 C34            8.3068    12.8085     5.6407 C.2     
  35 C35            8.5937    14.0096     5.0927 C.2     
  36 C36            6.0529     0.6209    -1.9542 C.3     
  37 C37            6.2792    -0.1171    -0.6185 C.3     
  38 C38            4.9359     0.0427     0.1360 C.3     
  39 C39            4.5067     1.4848    -0.2318 C.3     
  40 O40            8.4959     7.9581     5.4133 O.3     
  41 C41            8.2092    15.2018     5.7568 C.2     
  42 O42            7.6209    15.1432     6.8199 O.2     
  43 O43            8.4957    16.4014     5.2095 O.3     
  44 H44            2.6370     4.5314    -6.8412 H       
  45 H45            0.9020     2.9038    -6.1243 H       
  46 H46            1.1069     1.8025    -3.9332 H       
  47 H47            4.5327     5.0055    -5.3082 H       
  48 H48            7.2644     2.2781     0.1745 H       
  49 H49            8.9770     3.8000     1.0058 H       
  50 H50            7.7019     6.8141    -1.7705 H       
  51 H51            5.9691     6.1537    -4.5900 H       
  52 H52            4.3677     6.3731    -3.8445 H       
  53 H53            5.7979     7.1521    -3.1263 H       
  54 H54            4.0802     1.4254    -2.3618 H       
  55 H55           10.1684     5.0526     1.5986 H       
  56 H56            9.3097     7.2659     3.0879 H       
  57 H57           10.2777    10.5310     2.1420 H       
  58 H58            9.6124    12.5978     3.2899 H       
  59 H59            7.8874    10.2720     6.4630 H       
  60 H60           12.4490     6.2625     3.4890 H       
  61 H61           12.5298     4.9614     2.2234 H       
  62 H62           13.7768     7.8021     2.1204 H       
  63 H63           14.4190     6.2736     1.3773 H       
  64 H64           12.5453     6.1498    -0.2018 H       
  65 H65           12.4735     7.9478     0.0495 H       
  66 H66            7.7845    12.7564     6.5846 H       
  67 H67            9.1160    14.0617     4.1488 H       
  68 H68            5.7537    -0.0879    -2.7264 H       
  69 H69            6.9645     1.1378    -2.2542 H       
  70 H70            6.4938    -1.1708    -0.7964 H       
  71 H71            7.0894     0.3489    -0.0577 H       
  72 H72            4.2036    -0.6813    -0.2215 H       
  73 H73            5.0832    -0.0541     1.2116 H       
  74 H74            5.0307     2.2094     0.3914 H       
  75 H75            3.4279     1.6000    -0.1275 H       
  76 H76            7.6388     7.5983     5.1465 H       
  77 H77            8.1942    17.1554     5.7346 H       
@<TRIPOS>BOND
   1    1    2 ar
   2    1    6 ar
   3    1   44 1
   4    2    3 ar
   5    2   45 1
   6    3    4 ar
   7    3   46 1
   8    4    5 ar
   9    5    6 ar
  10    5    7 1
  11    6   47 1
  12    7    8 2
  13    7   11 1
  14    8    9 1
  15    8   17 1
  16    9   10 ar
  17    9   12 ar
  18   10   11 1
  19   10   15 ar
  20   11   16 1
  21   12   13 ar
  22   12   48 1
  23   13   14 ar
  24   13   49 1
  25   14   15 ar
  26   14   18 1
  27   15   50 1
  28   16   51 1
  29   16   52 1
  30   16   53 1
  31   17   36 1
  32   17   39 1
  33   17   54 1
  34   18   19 am
  35   18   20 2
  36   19   21 1
  37   19   55 1
  38   21   22 1
  39   21   31 1
  40   21   33 1
  41   22   23 am
  42   22   24 2
  43   23   25 1
  44   23   56 1
  45   25   26 ar
  46   25   30 ar
  47   26   27 ar
  48   26   57 1
  49   27   28 ar
  50   27   58 1
  51   28   29 ar
  52   28   34 1
  53   29   30 ar
  54   29   59 1
  55   30   40 1
  56   31   32 1
  57   31   60 1
  58   31   61 1
  59   32   33 1
  60   32   62 1
  61   32   63 1
  62   33   64 1
  63   33   65 1
  64   34   35 2
  65   34   66 1
  66   35   41 1
  67   35   67 1
  68   36   37 1
  69   36   68 1
  70   36   69 1
  71   37   38 1
  72   37   70 1
  73   37   71 1
  74   38   39 1
  75   38   72 1
  76   38   73 1
  77   39   74 1
  78   39   75 1
  79   40   76 1
  80   41   42 2
  81   41   43 1
  82   43   77 1

#	End of record

