#	Name: ASD10160496
#	Creating user name:	WinNT
#	Creation time:	15. 06. 2019 21:26

#	Modifying user name:	WinNT
#	Modification time:	15. 06. 2019 21:26

#	Program:	/corina/corina34_cracker 3.40 0067  02.08.2006

@<TRIPOS>MOLECULE
ASD10160496
  41   42    0    0    0
SMALL
NO_CHARGES


@<TRIPOS>ATOM
   1 C1            -0.0168     1.3889     0.0097 C.ar    
   2 C2             0.0021    -0.0041     0.0020 C.ar    
   3 C3             1.2158    -0.6614    -0.0131 C.ar    
   4 C4             2.3884     0.1057    -0.0201 C.ar    
   5 C5             2.2879     1.4955    -0.0117 C.ar    
   6 N6             1.1101     2.0839     0.0027 N.ar    
   7 O7            -1.2044     2.0412     0.0188 O.3     
   8 C8            -1.1600     3.4695     0.0264 C.3     
   9 C9            -2.3961     4.0219    -0.6861 C.3     
  10 C10           -1.1373     3.9714     1.4715 C.3     
  11 F11           -3.5492     3.5877    -0.0235 F       
  12 F12           -2.3527     5.4202    -0.6787 F       
  13 F13           -2.4168     3.5630    -2.0075 F       
  14 O14            5.0836     0.0406    -0.0456 O.3     
  15 B15            3.7953    -0.5908    -0.0368 Du      
  16 O16            4.0744    -1.9980    -0.0460 O.3     
  17 C17            5.2090    -2.1512     0.8327 C.3     
  18 C18            5.8932    -0.7690     0.8329 C.3     
  19 C19            7.3198    -0.8802     0.2914 C.3     
  20 C20            5.9020    -0.1788     2.2445 C.3     
  21 C21            4.7447    -2.5165     2.2440 C.3     
  22 C22            6.1626    -3.2180     0.2910 C.3     
  23 Cl23          -1.4833    -0.9026     0.0119 Cl      
  24 H24            1.2605    -1.7405    -0.0189 H       
  25 H25            3.1854     2.0962    -0.0167 H       
  26 H26           -0.2615     3.8078    -0.4899 H       
  27 H27           -0.2567     3.5778     1.9791 H       
  28 H28           -1.1035     5.0608     1.4773 H       
  29 H29           -2.0357     3.6330     1.9878 H       
  30 H30            7.7688     0.1119     0.2438 H       
  31 H31            7.9106    -1.5151     0.9518 H       
  32 H32            7.2965    -1.3168    -0.7070 H       
  33 H33            4.8806    -0.1215     2.6207 H       
  34 H34            6.4958    -0.8151     2.9007 H       
  35 H35            6.3358     0.8208     2.2176 H       
  36 H36            4.2130    -3.4676     2.2168 H       
  37 H37            5.6107    -2.6031     2.9003 H       
  38 H38            4.0799    -1.7391     2.6204 H       
  39 H39            6.4957    -2.9344    -0.7073 H       
  40 H40            7.0255    -3.3031     0.9515 H       
  41 H41            5.6459    -4.1766     0.2430 H       
@<TRIPOS>BOND
   1    1    2 ar
   2    1    6 ar
   3    1    7 1
   4    2    3 ar
   5    2   23 1
   6    3    4 ar
   7    3   24 1
   8    4    5 ar
   9    4   15 1
  10    5    6 ar
  11    5   25 1
  12    7    8 1
  13    8    9 1
  14    8   10 1
  15    8   26 1
  16    9   11 1
  17    9   12 1
  18    9   13 1
  19   10   27 1
  20   10   28 1
  21   10   29 1
  22   14   15 1
  23   14   18 1
  24   15   16 1
  25   16   17 1
  26   17   18 1
  27   17   21 1
  28   17   22 1
  29   18   19 1
  30   18   20 1
  31   19   30 1
  32   19   31 1
  33   19   32 1
  34   20   33 1
  35   20   34 1
  36   20   35 1
  37   21   36 1
  38   21   37 1
  39   21   38 1
  40   22   39 1
  41   22   40 1
  42   22   41 1

#	End of record

