#	Name: ASD10220170
#	Creating user name:	WinNT
#	Creation time:	15. 06. 2019 21:26

#	Modifying user name:	WinNT
#	Modification time:	15. 06. 2019 21:26

#	Program:	/corina/corina34_cracker 3.40 0067  02.08.2006

@<TRIPOS>MOLECULE
ASD10220170
  32   34    0    0    0
SMALL
NO_CHARGES


@<TRIPOS>ATOM
   1 C1            -3.6232     0.4349    -3.7511 C.ar    
   2 C2            -3.0407    -0.7847    -3.4247 C.ar    
   3 C3            -2.7600    -1.0995    -2.1122 C.ar    
   4 C4            -3.0592    -0.1958    -1.1003 C.ar    
   5 C5            -3.6468     1.0344    -1.4290 C.ar    
   6 C6            -3.9221     1.3493    -2.7557 C.ar    
   7 O7            -2.9022    -0.2291     0.2402 O.3     
   8 C8            -3.3471     0.8959     0.8111 C.2     
   9 C9            -3.8277     1.7402    -0.1443 C.2     
  10 C10           -4.4053     3.0760     0.0608 C.2     
  11 O11           -3.6800     4.0209     0.3100 O.2     
  12 C12           -5.8654     3.2716    -0.0354 C.ar    
  13 O13           -3.8944     0.7320    -5.0500 O.3     
  14 C14           -6.4100     4.5535     0.0820 C.ar    
  15 C15           -7.7723     4.7317    -0.0088 C.ar    
  16 C16           -8.6058     3.6387    -0.2165 C.ar    
  17 C17           -8.0682     2.3621    -0.3338 C.ar    
  18 C18           -6.7065     2.1761    -0.2499 C.ar    
  19 Br19          -4.7139     3.0094    -3.1951 Br      
  20 O20           -9.9481     3.8184    -0.3045 O.3     
  21 C21          -10.7461     2.6525    -0.5185 C.3     
  22 H22           -2.8062    -1.4919    -4.2065 H       
  23 H23           -2.3074    -2.0498    -1.8703 H       
  24 H24           -3.3285     1.1037     1.8707 H       
  25 H25           -4.7750     0.4576    -5.3407 H       
  26 H26           -5.7631     5.4031     0.2440 H       
  27 H27           -8.1939     5.7218     0.0817 H       
  28 H28           -8.7192     1.5155    -0.4950 H       
  29 H29           -6.2896     1.1840    -0.3414 H       
  30 H30          -10.4521     2.1778    -1.4547 H       
  31 H31          -10.5975     1.9543     0.3052 H       
  32 H32          -11.7973     2.9360    -0.5693 H       
@<TRIPOS>BOND
   1    1    2 ar
   2    1   13 1
   3    1    6 ar
   4    2    3 ar
   5    2   22 1
   6    3    4 ar
   7    3   23 1
   8    4    5 ar
   9    4    7 1
  10    5    6 ar
  11    5    9 1
  12    6   19 1
  13    7    8 1
  14    8    9 2
  15    8   24 1
  16    9   10 1
  17   10   11 2
  18   10   12 1
  19   12   14 ar
  20   12   18 ar
  21   13   25 1
  22   14   15 ar
  23   14   26 1
  24   15   16 ar
  25   15   27 1
  26   16   17 ar
  27   16   20 1
  28   17   18 ar
  29   17   28 1
  30   18   29 1
  31   20   21 1
  32   21   30 1
  33   21   31 1
  34   21   32 1

#	End of record

