#	Name: ASD10160239
#	Creating user name:	WinNT
#	Creation time:	15. 06. 2019 21:25

#	Modifying user name:	WinNT
#	Modification time:	15. 06. 2019 21:25

#	Program:	/corina/corina34_cracker 3.40 0067  02.08.2006

@<TRIPOS>MOLECULE
ASD10160239
  45   46    0    0    0
SMALL
NO_CHARGES


@<TRIPOS>ATOM
   1 C1            -0.0179     1.4702     0.0101 C.2     
   2 C2             0.0021    -0.0041     0.0020 C.ar    
   3 C3             1.2225    -0.6896    -0.0133 C.ar    
   4 C4             1.2360    -2.0699    -0.0209 C.ar    
   5 C5             0.0415    -2.7777    -0.0133 C.ar    
   6 C6            -1.1747    -2.0994     0.0019 C.ar    
   7 C7            -1.1979    -0.7218     0.0154 C.ar    
   8 O8             1.0268     2.0925     0.0035 O.2     
   9 N9            -1.1941     2.1281     0.0193 N.am    
  10 S10           -1.2166     3.7840     0.0284 S.o2    
  11 O11           -2.5980     4.1155     0.0625 O.2     
  12 O12           -0.3511     4.1403     1.0975 O.2     
  13 C13           -0.4880     4.2553    -1.5646 C.3     
  14 F14           -2.3338    -2.7935     0.0088 F       
  15 F15            2.3851    -0.0015    -0.0211 F       
  16 O16            0.0593    -4.1349    -0.0213 O.3     
  17 C17            3.6494    -5.9848    -0.0668 C.ar    
  18 N18            3.0873    -5.6957     1.0970 N.ar    
  19 C19            1.9124    -5.0901     1.1499 C.ar    
  20 C20            1.2683    -4.7575    -0.0366 C.ar    
  21 C21            1.8890    -5.0768    -1.2392 C.ar    
  22 N22            3.0646    -5.6828    -1.2161 N.ar    
  23 C23            1.2312    -4.7366    -2.5517 C.3     
  24 C24            1.2801    -4.7654     2.4788 C.3     
  25 N25            4.8842    -6.6146    -0.0824 N.pl3   
  26 C26            5.5505    -6.9518     1.1779 C.3     
  27 C27            5.5229    -6.9431    -1.3593 C.3     
  28 H28            2.1769    -2.5999    -0.0331 H       
  29 H29           -2.1417    -0.1970     0.0321 H       
  30 H30           -2.0275     1.6318     0.0205 H       
  31 H31           -1.0900     3.8446    -2.3752 H       
  32 H32           -0.4628     5.3420    -1.6453 H       
  33 H33            0.5266     3.8625    -1.6305 H       
  34 H34            1.5437    -3.7412    -2.8675 H       
  35 H35            1.5260    -5.4663    -3.3058 H       
  36 H36            0.1481    -4.7561    -2.4311 H       
  37 H37            1.5985    -3.7737     2.8000 H       
  38 H38            0.1948    -4.7840     2.3790 H       
  39 H39            1.5897    -5.5037     3.2185 H       
  40 H40            5.2488    -7.9508     1.4925 H       
  41 H41            6.6309    -6.9263     1.0359 H       
  42 H42            5.2675    -6.2290     1.9432 H       
  43 H43            4.8829    -6.6184    -2.1798 H       
  44 H44            6.4848    -6.4347    -1.4258 H       
  45 H45            5.6761    -8.0204    -1.4225 H       
@<TRIPOS>BOND
   1    1    2 1
   2    1    8 2
   3    1    9 am
   4    2    3 ar
   5    2    7 ar
   6    3    4 ar
   7    3   15 1
   8    4    5 ar
   9    4   28 1
  10    5    6 ar
  11    5   16 1
  12    6    7 ar
  13    6   14 1
  14    7   29 1
  15    9   10 am
  16    9   30 1
  17   10   11 2
  18   10   12 2
  19   10   13 1
  20   13   31 1
  21   13   32 1
  22   13   33 1
  23   16   20 1
  24   17   18 ar
  25   17   22 ar
  26   17   25 1
  27   18   19 ar
  28   19   20 ar
  29   19   24 1
  30   20   21 ar
  31   21   22 ar
  32   21   23 1
  33   23   34 1
  34   23   35 1
  35   23   36 1
  36   24   37 1
  37   24   38 1
  38   24   39 1
  39   25   26 1
  40   25   27 1
  41   26   40 1
  42   26   41 1
  43   26   42 1
  44   27   43 1
  45   27   44 1
  46   27   45 1

#	End of record

