#	Name: ASD10160036
#	Creating user name:	WinNT
#	Creation time:	15. 06. 2019 21:25

#	Modifying user name:	WinNT
#	Modification time:	15. 06. 2019 21:25

#	Program:	/corina/corina34_cracker 3.40 0067  02.08.2006

@<TRIPOS>MOLECULE
ASD10160036
  45   46    0    0    0
SMALL
NO_CHARGES


@<TRIPOS>ATOM
   1 C1            -0.1020     0.9586    -2.0048 C.3     
   2 C2             0.8631     5.2786    -0.7101 C.ar    
   3 C3            -0.2005     6.1722    -0.8731 C.ar    
   4 C4             2.1680     5.7672    -0.5790 C.ar    
   5 C5             2.3996     7.1280    -0.6111 C.ar    
   6 C6             1.3404     8.0105    -0.7727 C.ar    
   7 C7             0.0402     7.5282    -0.9039 C.ar    
   8 C8             0.6096     3.8267    -0.6703 C.2     
   9 N9            -0.6485     3.3587    -0.7912 N.am    
  10 O10            1.5357     3.0515    -0.5285 O.2     
  11 S11           -0.9516     1.7412    -0.6061 S.o2    
  12 O12           -2.3606     1.6297    -0.7530 O.2     
  13 O13           -0.3135     1.4029     0.6176 O.2     
  14 O14            1.5724     9.3475    -0.8028 O.3     
  15 C15            2.8513     9.7775    -0.6347 C.ar    
  16 C16            3.7900     9.6112    -1.6499 C.ar    
  17 C17            3.2351    10.3915     0.5463 C.ar    
  18 N18            4.4744    10.8120     0.7171 N.ar    
  19 C19            5.3932    10.6668    -0.2220 C.ar    
  20 C20            5.0802    10.0646    -1.4351 C.ar    
  21 Cl21           6.2933     9.8780    -2.6628 Cl      
  22 O22            6.6555    11.1152    -0.0011 O.3     
  23 F23           -0.9868     8.3919    -1.0609 F       
  24 F24            3.1992     4.9088    -0.4208 F       
  25 C25           -0.3862    -0.5447    -1.9977 C.3     
  26 C26            0.2295    -1.1742    -0.7464 C.3     
  27 C27            6.9138    11.7297     1.2630 C.3     
  28 C28           -0.6080     1.5671    -3.3142 C.3     
  29 H29            0.9716     1.1259    -1.9174 H       
  30 H30           -1.2090     5.7995    -0.9750 H       
  31 H31            3.4061     7.5063    -0.5101 H       
  32 H32           -1.3764     3.9693    -0.9865 H       
  33 H33            3.5179     9.1394    -2.5825 H       
  34 H34            2.5116    10.5280     1.3364 H       
  35 H35           -1.4634    -0.7108    -1.9955 H       
  36 H36            0.0500    -1.0012    -2.8862 H       
  37 H37            1.3068    -1.0081    -0.7486 H       
  38 H38           -0.2067    -0.7178     0.1421 H       
  39 H39            0.0270    -2.2453    -0.7414 H       
  40 H40            6.2687    12.6001     1.3824 H       
  41 H41            6.7126    11.0159     2.0618 H       
  42 H42            7.9572    12.0417     1.3088 H       
  43 H43           -0.0369     1.1602    -4.1486 H       
  44 H44           -1.6629     1.3250    -3.4435 H       
  45 H45           -0.4849     2.6497    -3.2832 H       
@<TRIPOS>BOND
   1    1   25 1
   2    1   28 1
   3    1   11 1
   4    1   29 1
   5    2    3 ar
   6    2    4 ar
   7    2    8 1
   8    3    7 ar
   9    3   30 1
  10    4    5 ar
  11    4   24 1
  12    5    6 ar
  13    5   31 1
  14    6    7 ar
  15    6   14 1
  16    7   23 1
  17    8    9 am
  18    8   10 2
  19    9   11 am
  20    9   32 1
  21   11   12 2
  22   11   13 2
  23   14   15 1
  24   15   16 ar
  25   15   17 ar
  26   16   20 ar
  27   16   33 1
  28   17   18 ar
  29   17   34 1
  30   18   19 ar
  31   19   20 ar
  32   19   22 1
  33   20   21 1
  34   22   27 1
  35   25   26 1
  36   25   35 1
  37   25   36 1
  38   26   37 1
  39   26   38 1
  40   26   39 1
  41   27   40 1
  42   27   41 1
  43   27   42 1
  44   28   43 1
  45   28   44 1
  46   28   45 1

#	End of record

