#	Name: ASD10410224
#	Creating user name:	WinNT
#	Creation time:	15. 06. 2019 21:27

#	Modifying user name:	WinNT
#	Modification time:	15. 06. 2019 21:27

#	Program:	/corina/corina34_cracker 3.40 0067  02.08.2006

@<TRIPOS>MOLECULE
ASD10410224
  52   56    0    0    0
SMALL
NO_CHARGES


@<TRIPOS>ATOM
   1 C1            -0.0184     1.3926    -0.0801 C.ar    
   2 C2            -0.0057     0.0095     0.0248 C.ar    
   3 C3             1.2007    -0.6691     0.1149 C.ar    
   4 C4             2.3904     0.0319     0.0998 C.ar    
   5 C5             2.3788     1.4166    -0.0056 C.ar    
   6 C6             1.1704     2.0952    -0.0952 C.ar    
   7 O7            -1.1769    -0.6816     0.0396 O.3     
   8 N8             3.5843     2.1280    -0.0204 N.pl3   
   9 C9             3.6713     3.3382    -0.7079 C.2     
  10 N10            4.7100     4.1386    -0.7092 N.2     
  11 N11            2.7103     3.8649    -1.4759 N.2     
  12 C12            3.1194     5.0115    -1.9749 C.2     
  13 N13            4.3817     5.2359    -1.5217 N.pl3   
  14 C14            5.1882     6.3354    -1.8063 C.ar    
  15 N15            2.3965     5.8386    -2.8128 N.pl3   
  16 C16            6.4780     6.4330    -1.2641 C.ar    
  17 C17           -1.0897    -2.1037     0.1498 C.3     
  18 C18           -2.4976    -2.7025     0.1502 C.3     
  19 N19           -3.1367    -2.4518    -1.1485 N.3     
  20 C20           -4.3935    -3.2124    -1.2746 C.3     
  21 C21           -5.5168    -2.1947    -1.5642 C.3     
  22 C22           -4.7468    -0.9813    -2.1487 C.3     
  23 C23           -3.4368    -1.0146    -1.3227 C.3     
  24 N24            4.7512     7.3053    -2.5993 N.ar    
  25 C25            5.5117     8.3500    -2.8724 C.ar    
  26 N26            6.7199     8.4887    -2.3867 N.ar    
  27 C27            7.2573     7.5524    -1.5733 C.ar    
  28 C28            8.5182     7.5151    -0.9574 C.2     
  29 C29            8.7612     6.4523    -0.2070 C.2     
  30 S30            7.3827     5.3650    -0.2014 S.3     
  31 H31           -0.9580     1.9198    -0.1543 H       
  32 H32            1.2096    -1.7459     0.1972 H       
  33 H33            3.3297    -0.4966     0.1703 H       
  34 H34            1.1604     3.1720    -0.1775 H       
  35 H35            4.3591     1.7791     0.4474 H       
  36 H36            1.4990     5.5897    -3.0838 H       
  37 H37            2.7865     6.6681    -3.1301 H       
  38 H38           -0.5266    -2.4997    -0.6954 H       
  39 H39           -0.5831    -2.3658     1.0787 H       
  40 H40           -2.4354    -3.7769     0.3231 H       
  41 H41           -3.0886    -2.2408     0.9411 H       
  42 H42           -4.3159    -3.9231    -2.0974 H       
  43 H43           -4.6023    -3.7404    -0.3441 H       
  44 H44           -6.2194    -2.5939    -2.2957 H       
  45 H45           -6.0321    -1.9174    -0.6446 H       
  46 H46           -4.5429    -1.1227    -3.2101 H       
  47 H47           -5.2926    -0.0534    -1.9778 H       
  48 H48           -3.5868    -0.5381    -0.3539 H       
  49 H49           -2.6317    -0.5222    -1.8681 H       
  50 H50            5.1221     9.1199    -3.5220 H       
  51 H51            9.2444     8.3037    -1.0881 H       
  52 H52            9.6817     6.2784     0.3305 H       
@<TRIPOS>BOND
   1    1    2 ar
   2    1    6 ar
   3    1   31 1
   4    2    3 ar
   5    2    7 1
   6    3    4 ar
   7    3   32 1
   8    4    5 ar
   9    4   33 1
  10    5    6 ar
  11    5    8 1
  12    6   34 1
  13    7   17 1
  14    8    9 1
  15    8   35 1
  16    9   10 2
  17    9   11 1
  18   10   13 1
  19   11   12 2
  20   12   13 1
  21   12   15 1
  22   13   14 1
  23   14   16 ar
  24   14   24 ar
  25   15   36 1
  26   15   37 1
  27   16   27 ar
  28   16   30 1
  29   17   18 1
  30   17   38 1
  31   17   39 1
  32   18   19 1
  33   18   40 1
  34   18   41 1
  35   19   20 1
  36   19   23 1
  37   20   21 1
  38   20   42 1
  39   20   43 1
  40   21   22 1
  41   21   44 1
  42   21   45 1
  43   22   23 1
  44   22   46 1
  45   22   47 1
  46   23   48 1
  47   23   49 1
  48   24   25 ar
  49   25   26 ar
  50   25   50 1
  51   26   27 ar
  52   27   28 1
  53   28   29 2
  54   28   51 1
  55   29   30 1
  56   29   52 1

#	End of record

