#	Name: ASD10160229
#	Creating user name:	WinNT
#	Creation time:	15. 06. 2019 21:25

#	Modifying user name:	WinNT
#	Modification time:	15. 06. 2019 21:25

#	Program:	/corina/corina34_cracker 3.40 0067  02.08.2006

@<TRIPOS>MOLECULE
ASD10160229
  38   40    0    0    0
SMALL
NO_CHARGES


@<TRIPOS>ATOM
   1 C1            -0.3865     1.1254    -1.9063 C.2     
   2 C2            -0.2695    -0.2582    -1.4102 C.ar    
   3 C3             0.9145    -0.9778    -1.6098 C.ar    
   4 C4             1.0191    -2.2728    -1.1435 C.ar    
   5 C5            -0.0478    -2.8612    -0.4777 C.ar    
   6 C6            -1.2275    -2.1489    -0.2776 C.ar    
   7 C7            -1.3388    -0.8534    -0.7341 C.ar    
   8 O8             0.5465     1.6431    -2.4898 O.2     
   9 N9            -1.5294     1.8145    -1.7179 N.am    
  10 S10           -1.6607     3.3684    -2.2751 S.o2    
  11 O11           -2.9647     3.7730    -1.8809 O.2     
  12 O12           -0.5059     4.0218    -1.7665 O.2     
  13 C13           -1.5610     3.2122    -4.0796 C.3     
  14 O14            0.0593    -4.1350    -0.0209 O.3     
  15 C15            3.0914    -6.9343    -2.4922 C.ar    
  16 N16            4.2654    -7.5167    -2.5626 N.ar    
  17 C17            5.1823    -7.4006    -1.6116 C.ar    
  18 C18            4.9641    -6.6623    -0.4883 C.ar    
  19 C19            3.7281    -6.0072    -0.3402 C.ar    
  20 C20            3.4258    -5.2291     0.7872 C.ar    
  21 C21            2.2125    -4.6191     0.8763 C.ar    
  22 C22            1.2616    -4.7565    -0.1402 C.ar    
  23 C23            1.5242    -5.5073    -1.2517 C.ar    
  24 C24            2.7656    -6.1491    -1.3739 C.ar    
  25 F25           -2.2625    -2.7268     0.3705 F       
  26 F26            1.9528    -0.4060    -2.2579 F       
  27 H27            1.9319    -2.8292    -1.2971 H       
  28 H28           -2.2524    -0.3002    -0.5737 H       
  29 H29           -2.2750     1.4002    -1.2560 H       
  30 H30           -2.3762     2.5821    -4.4354 H       
  31 H31           -1.6398     4.1996    -4.5346 H       
  32 H32           -0.6071     2.7612    -4.3531 H       
  33 H33            2.3787    -7.0549    -3.2946 H       
  34 H34            6.1290    -7.9064    -1.7313 H       
  35 H35            5.7249    -6.5816     0.2740 H       
  36 H36            4.1510    -5.1151     1.5794 H       
  37 H37            1.9805    -4.0201     1.7446 H       
  38 H38            0.7816    -5.6061    -2.0297 H       
@<TRIPOS>BOND
   1    1    2 1
   2    1    8 2
   3    1    9 am
   4    2    3 ar
   5    2    7 ar
   6    3    4 ar
   7    3   26 1
   8    4    5 ar
   9    4   27 1
  10    5    6 ar
  11    5   14 1
  12    6    7 ar
  13    6   25 1
  14    7   28 1
  15    9   10 am
  16    9   29 1
  17   10   11 2
  18   10   12 2
  19   10   13 1
  20   13   30 1
  21   13   31 1
  22   13   32 1
  23   14   22 1
  24   15   16 ar
  25   15   24 ar
  26   15   33 1
  27   16   17 ar
  28   17   18 ar
  29   17   34 1
  30   18   19 ar
  31   18   35 1
  32   19   20 ar
  33   19   24 ar
  34   20   21 ar
  35   20   36 1
  36   21   22 ar
  37   21   37 1
  38   22   23 ar
  39   23   24 ar
  40   23   38 1

#	End of record

