#	Name: ASD11710029
#	Creating user name:	WinNT
#	Creation time:	15. 06. 2019 21:29

#	Modifying user name:	WinNT
#	Modification time:	15. 06. 2019 21:29

#	Program:	/corina/corina34_cracker 3.40 0067  02.08.2006

@<TRIPOS>MOLECULE
ASD11710029
  52   54    0    0    0
SMALL
NO_CHARGES


@<TRIPOS>ATOM
   1 C1            -0.3960     0.1288     0.4409 C.3     
   2 N2            -0.5351    -1.3295     0.4256 N.am    
   3 C3             0.1635    -2.0822     1.2984 C.2     
   4 C4            -0.0812    -3.5380     1.3803 C.ar    
   5 O5             0.9949    -1.5643     2.0182 O.2     
   6 C6             0.0060    -4.1954     2.6085 C.ar    
   7 C7            -0.4063    -4.2598     0.2308 C.ar    
   8 C8            -0.6339    -5.6179     0.3142 C.ar    
   9 C9            -0.5411    -6.2644     1.5340 C.ar    
  10 C10           -0.2241    -5.5538     2.6781 C.ar    
  11 S11           -0.8346    -7.9990     1.6319 S.o2    
  12 N12            0.6381    -8.7511     1.5425 N.am    
  13 C13            1.4244    -8.6131     0.3964 C.ar    
  14 C14            2.7784    -8.3249     0.5117 C.ar    
  15 C15            0.8553    -8.7692    -0.8611 C.ar    
  16 C16            1.6356    -8.6320    -1.9923 C.ar    
  17 C17            2.9821    -8.3399    -1.8741 C.ar    
  18 C18            3.5529    -8.1890    -0.6236 C.ar    
  19 O19           -1.3339    -8.2484     2.9387 O.2     
  20 O20           -1.5389    -8.3542     0.4499 O.2     
  21 C21            0.7188     0.5369    -0.4874 C.ar    
  22 C22            0.4480     0.8081    -1.8156 C.ar    
  23 C23            1.4706     1.1823    -2.6671 C.ar    
  24 C24            2.7640     1.2858    -2.1903 C.ar    
  25 C25            3.0347     1.0155    -0.8620 C.ar    
  26 C26            2.0114     0.6454    -0.0095 C.ar    
  27 C27           -1.4335    -1.9695    -0.5384 C.3     
  28 C28           -0.7194    -2.1128    -1.8839 C.3     
  29 N29           -1.5632    -2.8841    -2.8064 N.3     
  30 H30           -1.3289     0.5863     0.1114 H       
  31 H31           -0.1660     0.4613     1.4531 H       
  32 H32            0.2534    -3.6419     3.5022 H       
  33 H33           -0.4797    -3.7563    -0.7218 H       
  34 H34           -0.8855    -6.1777    -0.5745 H       
  35 H35           -0.1532    -6.0644     3.6271 H       
  36 H36            0.9546    -9.2876     2.2861 H       
  37 H37            3.2248    -8.2070     1.4880 H       
  38 H38           -0.1961    -8.9980    -0.9541 H       
  39 H39            1.1939    -8.7532    -2.9703 H       
  40 H40            3.5903    -8.2338    -2.7603 H       
  41 H41            4.6048    -7.9610    -0.5348 H       
  42 H42           -0.5625     0.7272    -2.1880 H       
  43 H43            1.2591     1.3935    -3.7049 H       
  44 H44            3.5631     1.5775    -2.8558 H       
  45 H45            4.0453     1.0960    -0.4896 H       
  46 H46            2.2229     0.4343     1.0284 H       
  47 H47           -1.7177    -2.9557    -0.1710 H       
  48 H48           -2.3267    -1.3576    -0.6645 H       
  49 H49           -0.5323    -1.1242    -2.3030 H       
  50 H50            0.2283    -2.6313    -1.7388 H       
  51 H51           -2.4722    -2.4577    -2.9073 H       
  52 H52           -1.1133    -2.9927    -3.7030 H       
@<TRIPOS>BOND
   1    1    2 1
   2    1   21 1
   3    1   30 1
   4    1   31 1
   5    2    3 am
   6    2   27 1
   7    3    4 1
   8    3    5 2
   9    4    6 ar
  10    4    7 ar
  11    6   10 ar
  12    6   32 1
  13    7    8 ar
  14    7   33 1
  15    8    9 ar
  16    8   34 1
  17    9   10 ar
  18    9   11 1
  19   10   35 1
  20   11   12 am
  21   11   19 2
  22   11   20 2
  23   12   13 1
  24   12   36 1
  25   13   14 ar
  26   13   15 ar
  27   14   18 ar
  28   14   37 1
  29   15   16 ar
  30   15   38 1
  31   16   17 ar
  32   16   39 1
  33   17   18 ar
  34   17   40 1
  35   18   41 1
  36   21   22 ar
  37   21   26 ar
  38   22   23 ar
  39   22   42 1
  40   23   24 ar
  41   23   43 1
  42   24   25 ar
  43   24   44 1
  44   25   26 ar
  45   25   45 1
  46   26   46 1
  47   27   28 1
  48   27   47 1
  49   27   48 1
  50   28   29 1
  51   28   49 1
  52   28   50 1
  53   29   51 1
  54   29   52 1

#	End of record

