#	Name: ASD13490015
#	Creating user name:	WinNT
#	Creation time:	15. 06. 2019 21:30

#	Modifying user name:	WinNT
#	Modification time:	15. 06. 2019 21:30

#	Program:	/corina/corina34_cracker 3.40 0067  02.08.2006

@<TRIPOS>MOLECULE
ASD13490015
  60   64    0    0    0
SMALL
NO_CHARGES


@<TRIPOS>ATOM
   1 C1             1.3579     0.9689    -1.5010 C.2     
   2 C2             1.4085    -0.3571    -1.2715 C.2     
   3 N3             2.2051    -0.5689    -0.2135 N.2     
   4 C4             2.6537     0.5754     0.2261 C.2     
   5 N5             2.1471     1.5664    -0.5526 N.pl3   
   6 C6             2.3864     2.9402    -0.4130 C.ar    
   7 C7             2.7763     3.6907    -1.5143 C.ar    
   8 C8             3.0130     5.0421    -1.3826 C.ar    
   9 C9             2.8601     5.6606    -0.1380 C.ar    
  10 C10            2.4671     4.9048     0.9711 C.ar    
  11 C11            2.2268     3.5514     0.8306 C.ar    
  12 C12            3.1129     7.1038     0.0048 C.2     
  13 O13            1.8396     2.8146     1.9055 O.3     
  14 C14            1.6960     3.5057     3.1481 C.3     
  15 C15            0.6936    -1.4194    -2.0662 C.3     
  16 C16            2.6873     7.9585    -0.9437 C.2     
  17 C17            1.8206     7.4247    -2.0485 C.3     
  18 C18            1.1637     8.5882    -2.7911 C.3     
  19 C19            0.1920     9.4252    -1.9773 C.3     
  20 N20            2.0728    10.2569    -0.6262 N.pl3   
  21 C21            3.0854     9.3569    -0.8444 C.2     
  22 C22            0.6975     9.8107    -0.6168 C.3     
  23 N23            4.3229     9.7323    -0.9641 N.2     
  24 O24            4.6879    11.0973    -0.8992 O.3     
  25 C25            3.6371    12.0102    -1.2309 C.3     
  26 C26            2.4055    11.6682    -0.3787 C.3     
  27 C27            2.7235    11.8706     1.0804 C.ar    
  28 C28            2.2780    13.0047     1.7331 C.ar    
  29 C29            2.5691    13.1925     3.0733 C.ar    
  30 C30            3.3076    12.2423     3.7608 C.ar    
  31 C31            3.7534    11.1058     3.1046 C.ar    
  32 C32            3.4554    10.9191     1.7657 C.ar    
  33 F33            4.4739    10.1784     3.7725 F       
  34 F34            3.5931    12.4239     5.0688 F       
  35 F35            2.1338    14.3013     3.7107 F       
  36 H36            0.8053     1.4659    -2.2846 H       
  37 H37            3.3163     0.7114     1.0680 H       
  38 H38            2.8947     3.2143    -2.4763 H       
  39 H39            3.3168     5.6233    -2.2408 H       
  40 H40            2.3479     5.3786     1.9343 H       
  41 H41            3.6399     7.4767     0.8706 H       
  42 H42            1.3835     2.8031     3.9206 H       
  43 H43            2.6500     3.9525     3.4277 H       
  44 H44            0.9448     4.2886     3.0437 H       
  45 H45            1.3324    -1.7529    -2.8840 H       
  46 H46            0.4626    -2.2645    -1.4177 H       
  47 H47           -0.2313    -1.0091    -2.4717 H       
  48 H48            2.4319     6.8491    -2.7436 H       
  49 H49            1.0487     6.7816    -1.6258 H       
  50 H50            1.9513     9.2442    -3.1619 H       
  51 H51            0.6292     8.1854    -3.6514 H       
  52 H52           -0.0316    10.3352    -2.5342 H       
  53 H53           -0.7330     8.8616    -1.8561 H       
  54 H54            0.0721    10.6128    -0.2249 H       
  55 H55            0.6137     8.9489     0.0453 H       
  56 H56            3.9576    13.0301    -1.0183 H       
  57 H57            3.3889    11.9143    -2.2879 H       
  58 H58            1.5668    12.3020    -0.6668 H       
  59 H59            1.7028    13.7450     1.1969 H       
  60 H60            3.7988    10.0315     1.2551 H       
@<TRIPOS>BOND
   1    1    2 2
   2    1    5 1
   3    1   36 1
   4    2    3 1
   5    2   15 1
   6    3    4 2
   7    4    5 1
   8    4   37 1
   9    5    6 1
  10    6    7 ar
  11    6   11 ar
  12    7    8 ar
  13    7   38 1
  14    8    9 ar
  15    8   39 1
  16    9   10 ar
  17    9   12 1
  18   10   11 ar
  19   10   40 1
  20   11   13 1
  21   12   16 2
  22   12   41 1
  23   13   14 1
  24   14   42 1
  25   14   43 1
  26   14   44 1
  27   15   45 1
  28   15   46 1
  29   15   47 1
  30   16   17 1
  31   16   21 1
  32   17   18 1
  33   17   48 1
  34   17   49 1
  35   18   19 1
  36   18   50 1
  37   18   51 1
  38   19   22 1
  39   19   52 1
  40   19   53 1
  41   20   22 1
  42   20   26 1
  43   20   21 1
  44   21   23 2
  45   22   54 1
  46   22   55 1
  47   23   24 1
  48   24   25 1
  49   25   26 1
  50   25   56 1
  51   25   57 1
  52   26   27 1
  53   26   58 1
  54   27   28 ar
  55   27   32 ar
  56   28   29 ar
  57   28   59 1
  58   29   30 ar
  59   29   35 1
  60   30   31 ar
  61   30   34 1
  62   31   32 ar
  63   31   33 1
  64   32   60 1

#	End of record

