#	Name: ASD10950056
#	Creating user name:	WinNT
#	Creation time:	15. 06. 2019 21:28

#	Modifying user name:	WinNT
#	Modification time:	15. 06. 2019 21:28

#	Program:	/corina/corina34_cracker 3.40 0067  02.08.2006

@<TRIPOS>MOLECULE
ASD10950056
  57   60    0    0    0
SMALL
NO_CHARGES


@<TRIPOS>ATOM
   1 C1            -0.9195     0.2910     0.1318 C.3     
   2 C2            -0.0385    -0.9512    -0.0151 C.3     
   3 O3             0.5768    -1.2621     1.2628 O.3     
   4 C4             1.3892    -2.3358     1.3054 C.2     
   5 O5             1.5784    -2.9943     0.3024 O.2     
   6 C6             2.0501    -2.7123     2.5719 C.ar    
   7 C7             1.8345    -1.9572     3.7263 C.ar    
   8 C8             2.4535    -2.3120     4.9074 C.ar    
   9 C9             3.2879    -3.4134     4.9521 C.ar    
  10 C10            3.5089    -4.1704     3.8092 C.ar    
  11 C11            2.8879    -3.8277     2.6202 C.ar    
  12 O12            4.3306    -5.2518     3.8592 O.3     
  13 C13            3.9604    -3.7937     6.2460 C.3     
  14 N14            4.6335    -2.6261     6.8267 N.am    
  15 C15            5.7131    -1.8561     6.2041 C.3     
  16 C16            5.1145    -0.7328     5.3552 C.3     
  17 C17            6.2227     0.0229     4.6682 C.2     
  18 C18            6.8110     1.1482     5.1036 C.2     
  19 N19            7.7755     1.5433     4.2171 N.pl3   
  20 C20            7.8328     0.6593     3.1630 C.ar    
  21 C21            6.8666    -0.3347     3.4020 C.ar    
  22 C22            6.6978    -1.3764     2.4876 C.ar    
  23 C23            7.4734    -1.4247     1.3639 C.ar    
  24 C24            8.4287    -0.4464     1.1237 C.ar    
  25 C25            8.6141     0.5881     2.0141 C.ar    
  26 C26            4.0842    -2.3870     8.0313 C.2     
  27 O27            4.4104    -1.4880     8.7804 O.2     
  28 C28            3.0234    -3.3805     8.3084 C.2     
  29 C29            2.9283    -4.2330     7.2582 C.2     
  30 C30            2.0350    -5.3234     7.1341 C.2     
  31 O31            1.1706    -5.4976     7.9681 O.2     
  32 C32            2.1570    -6.2683     5.9665 C.3     
  33 O33            2.2693    -3.4302     9.4291 O.3     
  34 H34           -0.3084     1.1336     0.4554 H       
  35 H35           -1.3814     0.5243    -0.8275 H       
  36 H36           -1.6963     0.1000     0.8723 H       
  37 H37           -0.6496    -1.7939    -0.3386 H       
  38 H38            0.7383    -0.7603    -0.7555 H       
  39 H39            1.1839    -1.0958     3.6947 H       
  40 H40            2.2859    -1.7271     5.7998 H       
  41 H41            3.0587    -4.4159     1.7307 H       
  42 H42            3.8943    -6.0641     4.1506 H       
  43 H43            4.6805    -4.5934     6.0726 H       
  44 H44            6.3472    -1.4267     6.9798 H       
  45 H45            6.3088    -2.5127     5.5700 H       
  46 H46            4.4472    -1.1595     4.6063 H       
  47 H47            4.5537    -0.0524     5.9960 H       
  48 H48            6.5598     1.6655     6.0178 H       
  49 H49            8.3354     2.3292     4.3164 H       
  50 H50            5.9571    -2.1413     2.6682 H       
  51 H51            7.3425    -2.2307     0.6569 H       
  52 H52            9.0344    -0.4985     0.2310 H       
  53 H53            9.3599     1.3444     1.8183 H       
  54 H54            2.9067    -7.0273     6.1901 H       
  55 H55            1.1956    -6.7493     5.7863 H       
  56 H56            2.4569    -5.7118     5.0785 H       
  57 H57            2.4762    -2.7394    10.0733 H       
@<TRIPOS>BOND
   1    1    2 1
   2    1   34 1
   3    1   35 1
   4    1   36 1
   5    2    3 1
   6    2   37 1
   7    2   38 1
   8    3    4 1
   9    4    5 2
  10    4    6 1
  11    6    7 ar
  12    6   11 ar
  13    7    8 ar
  14    7   39 1
  15    8    9 ar
  16    8   40 1
  17    9   10 ar
  18    9   13 1
  19   10   11 ar
  20   10   12 1
  21   11   41 1
  22   12   42 1
  23   13   14 1
  24   13   29 1
  25   13   43 1
  26   14   15 1
  27   14   26 am
  28   15   16 1
  29   15   44 1
  30   15   45 1
  31   16   17 1
  32   16   46 1
  33   16   47 1
  34   17   18 2
  35   17   21 1
  36   18   19 1
  37   18   48 1
  38   19   20 1
  39   19   49 1
  40   20   21 ar
  41   20   25 ar
  42   21   22 ar
  43   22   23 ar
  44   22   50 1
  45   23   24 ar
  46   23   51 1
  47   24   25 ar
  48   24   52 1
  49   25   53 1
  50   26   27 2
  51   26   28 1
  52   28   29 2
  53   28   33 1
  54   29   30 1
  55   30   31 2
  56   30   32 1
  57   32   54 1
  58   32   55 1
  59   32   56 1
  60   33   57 1

#	End of record

