#	Name: ASD10160031
#	Creating user name:	WinNT
#	Creation time:	15. 06. 2019 21:25

#	Modifying user name:	WinNT
#	Modification time:	15. 06. 2019 21:25

#	Program:	/corina/corina34_cracker 3.40 0067  02.08.2006

@<TRIPOS>MOLECULE
ASD10160031
  42   43    0    0    0
SMALL
NO_CHARGES


@<TRIPOS>ATOM
   1 C1             0.0726     1.0309    -1.4425 C.ar    
   2 C2             0.0495    -0.1967    -0.7736 C.ar    
   3 C3             1.2894     1.6961    -1.6339 C.ar    
   4 C4             2.4602     1.1376    -1.1618 C.ar    
   5 C5             2.4318    -0.0819    -0.4987 C.ar    
   6 C6             1.2233    -0.7466    -0.3058 C.ar    
   7 C7            -1.1801     1.6202    -1.9500 C.2     
   8 N8            -2.3497     0.9753    -1.7695 N.am    
   9 O9            -1.1579     2.6879    -2.5315 O.2     
  10 S10           -3.7566     1.6371    -2.3395 S.o2    
  11 O11           -4.7621     0.7111    -1.9511 O.2     
  12 O12           -3.7492     2.9652    -1.8341 O.2     
  13 O13            3.5854    -0.6280    -0.0369 O.3     
  14 C14            4.7269     0.1022    -0.1489 C.ar    
  15 C15            5.1016     0.9837     0.8614 C.ar    
  16 C16            5.5347    -0.0261    -1.2676 C.ar    
  17 N17            6.6444     0.6783    -1.3834 N.ar    
  18 C18            7.0291     1.5283    -0.4468 C.ar    
  19 C19            6.2723     1.7065     0.7050 C.ar    
  20 Cl20           6.7849     2.8254     1.9293 Cl      
  21 C21            8.9156     2.0008    -1.8125 C.3     
  22 O22            8.1791     2.2315    -0.6099 O.3     
  23 F23            1.3178     2.8823    -2.2798 F       
  24 F24            1.2018    -1.9329     0.3401 F       
  25 C25           10.1709     2.8756    -1.8176 C.3     
  26 C26           10.9595     2.6285    -3.1052 C.3     
  27 F27           10.1625     2.9500    -4.2091 F       
  28 F28           12.1072     3.4284    -3.1098 F       
  29 F29           11.3298     1.2812    -3.1739 F       
  30 C30           -3.5571     1.6411    -4.1425 C.3     
  31 H31           -0.8870    -0.7132    -0.6234 H       
  32 H32            3.3996     1.6497    -1.3089 H       
  33 H33           -2.3674     0.1236    -1.3056 H       
  34 H34            4.4934     1.1012     1.7461 H       
  35 H35            5.2527    -0.7109    -2.0537 H       
  36 H36            9.2042     0.9510    -1.8661 H       
  37 H37            8.2947     2.2513    -2.6726 H       
  38 H38            9.8823     3.9254    -1.7640 H       
  39 H39           10.7918     2.6251    -0.9575 H       
  40 H40           -3.4161     0.6192    -4.4947 H       
  41 H41           -4.4478     2.0654    -4.6057 H       
  42 H42           -2.6873     2.2410    -4.4104 H       
@<TRIPOS>BOND
   1    1    2 ar
   2    1    3 ar
   3    1    7 1
   4    2    6 ar
   5    2   31 1
   6    3    4 ar
   7    3   23 1
   8    4    5 ar
   9    4   32 1
  10    5    6 ar
  11    5   13 1
  12    6   24 1
  13    7    8 am
  14    7    9 2
  15    8   10 am
  16    8   33 1
  17   10   11 2
  18   10   12 2
  19   10   30 1
  20   13   14 1
  21   14   15 ar
  22   14   16 ar
  23   15   19 ar
  24   15   34 1
  25   16   17 ar
  26   16   35 1
  27   17   18 ar
  28   18   19 ar
  29   18   22 1
  30   19   20 1
  31   21   25 1
  32   21   22 1
  33   21   36 1
  34   21   37 1
  35   25   26 1
  36   25   38 1
  37   25   39 1
  38   26   27 1
  39   26   28 1
  40   26   29 1
  41   30   40 1
  42   30   41 1
  43   30   42 1

#	End of record

