#	Name: ASD10160435
#	Creating user name:	WinNT
#	Creation time:	15. 06. 2019 21:25

#	Modifying user name:	WinNT
#	Modification time:	15. 06. 2019 21:25

#	Program:	/corina/corina34_cracker 3.40 0067  02.08.2006

@<TRIPOS>MOLECULE
ASD10160435
  48   50    0    0    0
SMALL
NO_CHARGES


@<TRIPOS>ATOM
   1 C1             0.2233     1.4265     0.1315 C.2     
   2 C2             0.2067    -0.0439     0.0489 C.ar    
   3 C3             1.3946    -0.7697     0.2031 C.ar    
   4 C4             1.3735    -2.1475     0.1253 C.ar    
   5 C5             0.1772    -2.8136    -0.1058 C.ar    
   6 C6            -1.0063    -2.0957    -0.2601 C.ar    
   7 C7            -0.9966    -0.7205    -0.1780 C.ar    
   8 O8             1.2689     2.0121     0.3337 O.2     
   9 O9            -0.9203     2.1231    -0.0228 O.3     
  10 F10           -2.1669    -2.7494    -0.4857 F       
  11 F11            2.5590    -0.1222     0.4271 F       
  12 O12            0.1613    -4.1686    -0.1819 O.3     
  13 C13            2.0303    -5.3422    -1.0795 C.ar    
  14 C14            1.3333    -4.8323     0.0042 C.ar    
  15 C15            1.8481    -5.0074     1.2858 C.ar    
  16 C16            3.0449    -5.6892     1.4279 C.ar    
  17 C17            3.6875    -6.1723     0.2944 C.ar    
  18 N18            3.1688    -5.9867    -0.9073 N.ar    
  19 O19            4.8615    -6.8422     0.4226 O.3     
  20 C20            5.4737    -7.3143    -0.7793 C.3     
  21 C21            6.7772    -8.0387    -0.4372 C.3     
  22 C22            6.4757    -9.2245     0.4814 C.3     
  23 F23            7.6676    -9.8869     0.7942 F       
  24 F24            5.8764    -8.7624     1.6580 F       
  25 F25            7.3764    -8.5009    -1.6139 F       
  26 F26            7.6454    -7.1547     0.2122 F       
  27 Cl27           3.7341    -5.9367     3.0019 Cl      
  28 C28           -0.8304     3.4779     0.0377 C.ar    
  29 C29           -0.3728     4.1936    -1.0592 C.ar    
  30 C30           -0.6485     6.2357     0.1604 C.ar    
  31 C31           -1.2016     4.1480     1.1944 C.ar    
  32 C32           -0.2828     5.5706    -0.9954 C.ar    
  33 C33           -1.1098     5.5251     1.2531 C.ar    
  34 C34           -0.5489     7.7379     0.2274 C.3     
  35 H35            2.2887    -2.7084     0.2440 H       
  36 H36           -1.9157    -0.1653    -0.2934 H       
  37 H37            1.6350    -5.2142    -2.0764 H       
  38 H38            1.3265    -4.6203     2.1487 H       
  39 H39            4.7972    -8.0031    -1.2853 H       
  40 H40            5.6884    -6.4695    -1.4337 H       
  41 H41            5.7992    -9.9133    -0.0246 H       
  42 H42           -0.0868     3.6746    -1.9621 H       
  43 H43           -1.5624     3.5935     2.0481 H       
  44 H44            0.0737     6.1282    -1.8489 H       
  45 H45           -1.3948     6.0469     2.1548 H       
  46 H46           -1.4877     8.1795    -0.1067 H       
  47 H47           -0.3489     8.0433     1.2545 H       
  48 H48            0.2620     8.0773    -0.4170 H       
@<TRIPOS>BOND
   1    1    2 1
   2    1    8 2
   3    1    9 1
   4    2    3 ar
   5    2    7 ar
   6    3    4 ar
   7    3   11 1
   8    4    5 ar
   9    4   35 1
  10    5    6 ar
  11    5   12 1
  12    6    7 ar
  13    6   10 1
  14    7   36 1
  15    9   28 1
  16   12   14 1
  17   13   14 ar
  18   13   18 ar
  19   13   37 1
  20   14   15 ar
  21   15   16 ar
  22   15   38 1
  23   16   17 ar
  24   16   27 1
  25   17   18 ar
  26   17   19 1
  27   19   20 1
  28   20   21 1
  29   20   39 1
  30   20   40 1
  31   21   22 1
  32   21   25 1
  33   21   26 1
  34   22   23 1
  35   22   24 1
  36   22   41 1
  37   28   29 ar
  38   28   31 ar
  39   29   32 ar
  40   29   42 1
  41   30   32 ar
  42   30   33 ar
  43   30   34 1
  44   31   33 ar
  45   31   43 1
  46   32   44 1
  47   33   45 1
  48   34   46 1
  49   34   47 1
  50   34   48 1

#	End of record

