#	Name: ASD10220032
#	Creating user name:	WinNT
#	Creation time:	15. 06. 2019 21:26

#	Modifying user name:	WinNT
#	Modification time:	15. 06. 2019 21:26

#	Program:	/corina/corina34_cracker 3.40 0067  02.08.2006

@<TRIPOS>MOLECULE
ASD10220032
  27   29    0    0    0
SMALL
NO_CHARGES


@<TRIPOS>ATOM
   1 C1            -0.0063     1.4612    -0.1689 C.2     
   2 C2             0.0235     0.0542    -0.3145 C.2     
   3 C3            -1.1141    -0.6734    -0.3702 C.2     
   4 C4            -2.4360    -0.0547    -0.2835 C.2     
   5 C5            -2.5497     1.3191    -0.1394 C.2     
   6 C6            -1.3371     2.1498    -0.0684 C.2     
   7 O7            -3.6802    -0.5689    -0.3153 O.3     
   8 C8            -4.6052     0.3861    -0.2007 C.2     
   9 C9            -3.9875     1.6033    -0.0854 C.2     
  10 O10           -1.4104     3.3540     0.0575 O.2     
  11 O11            1.0260     2.1002    -0.1209 O.2     
  12 C12           -4.6317     2.9202     0.0619 C.2     
  13 O13           -3.9538     3.9096     0.2639 O.2     
  14 C14           -6.1005     3.0388    -0.0357 C.ar    
  15 C15           -6.7699     4.0509     0.6571 C.ar    
  16 C16           -8.1405     4.1571     0.5619 C.ar    
  17 C17           -8.8555     3.2615    -0.2193 C.ar    
  18 C18           -8.1963     2.2550    -0.9091 C.ar    
  19 C19           -6.8254     2.1428    -0.8258 C.ar    
  20 Br20           1.6919    -0.8278    -0.4343 Br      
  21 Br21          -0.9923    -2.5502    -0.5671 Br      
  22 F22          -10.1992     3.3698    -0.3083 F       
  23 H23           -5.6731     0.2247    -0.1996 H       
  24 H24           -6.2142     4.7484     1.2662 H       
  25 H25           -8.6590     4.9390     1.0969 H       
  26 H26           -8.7582     1.5601    -1.5156 H       
  27 H27           -6.3131     1.3586    -1.3634 H       
@<TRIPOS>BOND
   1    1    2 1
   2    1   11 2
   3    1    6 1
   4    2    3 2
   5    2   20 1
   6    3    4 1
   7    3   21 1
   8    4    5 2
   9    4    7 1
  10    5    6 1
  11    5    9 1
  12    6   10 2
  13    7    8 1
  14    8    9 2
  15    8   23 1
  16    9   12 1
  17   12   13 2
  18   12   14 1
  19   14   15 ar
  20   14   19 ar
  21   15   16 ar
  22   15   24 1
  23   16   17 ar
  24   16   25 1
  25   17   18 ar
  26   17   22 1
  27   18   19 ar
  28   18   26 1
  29   19   27 1

#	End of record

