#	Name: ASD11000217
#	Creating user name:	WinNT
#	Creation time:	15. 06. 2019 21:28

#	Modifying user name:	WinNT
#	Modification time:	15. 06. 2019 21:28

#	Program:	/corina/corina34_cracker 3.40 0067  02.08.2006

@<TRIPOS>MOLECULE
ASD11000217
  47   50    0    0    0
SMALL
NO_CHARGES


@<TRIPOS>ATOM
   1 N1            -0.0172     1.3214    -0.0111 N.ar    
   2 C2             0.0016    -0.0034    -0.0059 C.ar    
   3 N3             1.1402    -0.6810    -0.0154 N.ar    
   4 C4             2.3025    -0.0498    -0.0304 C.ar    
   5 C5             2.3192     1.3362    -0.0362 C.ar    
   6 C6             1.1099     2.0135    -0.0260 C.ar    
   7 N7            -1.1977    -0.6966     0.0102 N.pl3   
   8 C8            -1.2012    -2.0901    -0.1028 C.ar    
   9 C9            -2.1494    -2.8411     0.5800 C.ar    
  10 C10           -0.2602    -2.7256    -0.9024 C.ar    
  11 C11           -0.2669    -4.1043    -1.0122 C.ar    
  12 C12           -1.2112    -4.8497    -0.3252 C.ar    
  13 C13           -2.1516    -4.2178     0.4667 C.ar    
  14 C14            3.6238     2.0903    -0.0528 C.3     
  15 C15            4.0505     2.3396    -1.5008 C.3     
  16 C16            5.3551     3.0937    -1.5174 C.ar    
  17 C17            6.5538     2.3941    -1.5269 C.ar    
  18 C18            7.7588     3.0633    -1.5421 C.ar    
  19 C19            7.7758     4.4540    -1.5484 C.ar    
  20 C20            6.5578     5.1601    -1.5392 C.ar    
  21 C21            5.3473     4.4600    -1.5286 C.ar    
  22 F22            0.6474    -4.7243    -1.7899 F       
  23 N23            8.9664     5.1488    -1.5631 N.am    
  24 C24            8.9824     6.4932    -1.5688 C.2     
  25 C25            7.7900     7.2482    -1.5600 C.2     
  26 C26            6.5864     6.6239    -1.5460 C.2     
  27 O27           10.0536     7.0746    -1.5814 O.2     
  28 C28           -1.2169    -6.3518    -0.4462 C.3     
  29 H29            3.2272    -0.6076    -0.0377 H       
  30 H30            1.0881     3.0933    -0.0306 H       
  31 H31           -2.0350    -0.2152     0.0999 H       
  32 H32           -2.8845    -2.3489     1.1994 H       
  33 H33            0.4756    -2.1441    -1.4380 H       
  34 H34           -2.8865    -4.8016     1.0010 H       
  35 H35            3.4983     3.0447     0.4584 H       
  36 H36            4.3891     1.5037     0.4555 H       
  37 H37            4.1760     1.3852    -2.0121 H       
  38 H38            3.2852     2.9262    -2.0092 H       
  39 H39            6.5423     1.3142    -1.5221 H       
  40 H40            8.6862     2.5099    -1.5487 H       
  41 H41            4.4103     4.9970    -1.5215 H       
  42 H42            9.8047     4.6607    -1.5691 H       
  43 H43            7.8364     8.3272    -1.5646 H       
  44 H44            5.6690     7.1939    -1.5399 H       
  45 H45           -0.5809    -6.7811     0.3280 H       
  46 H46           -2.2351    -6.7222    -0.3267 H       
  47 H47           -0.8388    -6.6388    -1.4274 H       
@<TRIPOS>BOND
   1    1    2 ar
   2    1    6 ar
   3    2    3 ar
   4    2    7 1
   5    3    4 ar
   6    4    5 ar
   7    4   29 1
   8    5    6 ar
   9    5   14 1
  10    6   30 1
  11    7    8 1
  12    7   31 1
  13    8    9 ar
  14    8   10 ar
  15    9   13 ar
  16    9   32 1
  17   10   11 ar
  18   10   33 1
  19   11   12 ar
  20   11   22 1
  21   12   13 ar
  22   12   28 1
  23   13   34 1
  24   14   15 1
  25   14   35 1
  26   14   36 1
  27   15   16 1
  28   15   37 1
  29   15   38 1
  30   16   17 ar
  31   16   21 ar
  32   17   18 ar
  33   17   39 1
  34   18   19 ar
  35   18   40 1
  36   19   20 ar
  37   19   23 1
  38   20   21 ar
  39   20   26 1
  40   21   41 1
  41   23   24 am
  42   23   42 1
  43   24   25 1
  44   24   27 2
  45   25   26 2
  46   25   43 1
  47   26   44 1
  48   28   45 1
  49   28   46 1
  50   28   47 1

#	End of record

