#	Name: ASD11740013
#	Creating user name:	WinNT
#	Creation time:	15. 06. 2019 21:29

#	Modifying user name:	WinNT
#	Modification time:	15. 06. 2019 21:29

#	Program:	/corina/corina34_cracker 3.40 0067  02.08.2006

@<TRIPOS>MOLECULE
ASD11740013
  44   45    0    0    0
SMALL
NO_CHARGES


@<TRIPOS>ATOM
   1 C1            -0.0163     1.3729     0.0320 C.ar    
   2 C2             0.0034    -0.0064     0.0533 C.ar    
   3 C3             1.2085    -0.6913     0.0479 C.ar    
   4 C4             2.4008    -0.0020     0.0208 C.ar    
   5 C5             2.3979     1.3953    -0.0015 C.ar    
   6 C6             1.1760     2.0859     0.0044 C.ar    
   7 N7             1.1588     3.4744    -0.0180 N.am    
   8 S8             1.2534     4.2805    -1.4615 S.o2    
   9 O9             1.8184     5.5397    -1.1233 O.2     
  10 O10            1.9355     3.3788    -2.3223 O.2     
  11 C11            3.6702     2.1393    -0.0301 C.2     
  12 N12            4.8411     1.4719    -0.0348 N.am    
  13 O13            3.6632     3.3553    -0.0494 O.2     
  14 C14            6.0473     2.1747    -0.1478 C.ar    
  15 C15            7.1734     1.5490    -0.6791 C.ar    
  16 C16            8.3635     2.2490    -0.7883 C.ar    
  17 C17            8.4325     3.5656    -0.3707 C.ar    
  18 C18            7.3159     4.1870     0.1564 C.ar    
  19 C19            6.1227     3.4971     0.2636 C.ar    
  20 O20            7.1041     0.2543    -1.0888 O.3     
  21 C21            8.2977    -0.3219    -1.6231 C.3     
  22 C22            8.0273    -1.7726    -2.0268 C.3     
  23 C23           -0.4725     4.4770    -1.9841 C.3     
  24 C24            1.0569     4.2260     1.2354 C.3     
  25 H25           -0.9595     1.8990     0.0322 H       
  26 H26           -0.9260    -0.5560     0.0746 H       
  27 H27            1.2127    -1.7711     0.0655 H       
  28 H28            3.3368    -0.5408     0.0171 H       
  29 H29            4.8485     0.5048     0.0401 H       
  30 H30            9.2379     1.7665    -1.1994 H       
  31 H31            9.3615     4.1097    -0.4564 H       
  32 H32            7.3747     5.2152     0.4815 H       
  33 H33            5.2517     3.9852     0.6755 H       
  34 H34            8.6150     0.2456    -2.4979 H       
  35 H35            9.0835    -0.2952    -0.8681 H       
  36 H36            7.7100    -2.3401    -1.1519 H       
  37 H37            7.2415    -1.7993    -2.7818 H       
  38 H38            8.9377    -2.2121    -2.4343 H       
  39 H39           -1.0166     5.0497    -1.2331 H       
  40 H40           -0.5057     5.0042    -2.9376 H       
  41 H41           -0.9324     3.4950    -2.0958 H       
  42 H42            2.0564     4.4264     1.6212 H       
  43 H43            0.5422     5.1693     1.0526 H       
  44 H44            0.4962     3.6416     1.9649 H       
@<TRIPOS>BOND
   1    1    2 ar
   2    1    6 ar
   3    1   25 1
   4    2    3 ar
   5    2   26 1
   6    3    4 ar
   7    3   27 1
   8    4    5 ar
   9    4   28 1
  10    5    6 ar
  11    5   11 1
  12    6    7 1
  13    7    8 am
  14    7   24 1
  15    8    9 2
  16    8   10 2
  17    8   23 1
  18   11   12 am
  19   11   13 2
  20   12   14 1
  21   12   29 1
  22   14   15 ar
  23   14   19 ar
  24   15   16 ar
  25   15   20 1
  26   16   17 ar
  27   16   30 1
  28   17   18 ar
  29   17   31 1
  30   18   19 ar
  31   18   32 1
  32   19   33 1
  33   20   21 1
  34   21   22 1
  35   21   34 1
  36   21   35 1
  37   22   36 1
  38   22   37 1
  39   22   38 1
  40   23   39 1
  41   23   40 1
  42   23   41 1
  43   24   42 1
  44   24   43 1
  45   24   44 1

#	End of record

