#	Name: ASD11920017
#	Creating user name:	WinNT
#	Creation time:	15. 06. 2019 21:29

#	Modifying user name:	WinNT
#	Modification time:	15. 06. 2019 21:29

#	Program:	/corina/corina34_cracker 3.40 0067  02.08.2006

@<TRIPOS>MOLECULE
ASD11920017
  43   46    0    0    0
SMALL
NO_CHARGES


@<TRIPOS>ATOM
   1 C1            -0.0168     1.3892     0.0097 C.ar    
   2 C2             0.0021    -0.0041     0.0020 C.ar    
   3 C3             1.2210    -0.6791    -0.0132 C.ar    
   4 C4             2.4022     0.0347    -0.0207 C.ar    
   5 C5             2.3775     1.4177    -0.0126 C.ar    
   6 C6             1.1704     2.0930     0.0021 C.ar    
   7 C7             3.6706     2.1916    -0.0203 C.3     
   8 C8             4.0883     2.4577    -1.4436 C.ar    
   9 C9             3.6626     3.6106    -2.0836 C.ar    
  10 C10            4.0452     3.8510    -3.3811 C.ar    
  11 C11            4.8611     2.9408    -4.0603 C.ar    
  12 C12            5.2860     1.7827    -3.4091 C.ar    
  13 C13            4.9003     1.5525    -2.1042 C.ar    
  14 C14            3.6043     5.0940    -4.1175 C.3     
  15 C15            4.0812     5.2626    -5.5438 C.2     
  16 N16            4.8650     4.3233    -6.1007 N.am    
  17 C17            5.2587     3.2184    -5.4522 C.2     
  18 O18            5.9680     2.4193    -6.0307 O.2     
  19 O19            5.2948     4.5097    -7.4370 O.3     
  20 O20            3.7573     6.2412    -6.1820 O.2     
  21 C21           -1.2711    -0.7661     0.0106 C.ar    
  22 C22           -1.2516    -2.1594     0.0029 C.ar    
  23 C23           -2.4378    -2.8640     0.0109 C.ar    
  24 C24           -3.6472    -2.1882     0.0260 C.ar    
  25 C25           -3.6712    -0.8029     0.0337 C.ar    
  26 C26           -2.4897    -0.0905     0.0321 C.ar    
  27 F27           -4.8064    -2.8820     0.0328 F       
  28 H28           -0.9588     1.9174     0.0170 H       
  29 H29            1.2413    -1.7589    -0.0189 H       
  30 H30            3.3475    -0.4875    -0.0325 H       
  31 H31            1.1570     3.1728     0.0084 H       
  32 H32            3.5302     3.1389     0.5003 H       
  33 H33            4.4442     1.6116     0.4830 H       
  34 H34            3.0320     4.3174    -1.5647 H       
  35 H35            5.9164     1.0716    -3.9223 H       
  36 H36            5.2280     0.6565    -1.5979 H       
  37 H37            2.5144     5.1095    -4.1252 H       
  38 H38            3.9432     5.9588    -3.5470 H       
  39 H39            5.8548     3.7966    -7.7731 H       
  40 H40           -0.3093    -2.6870    -0.0096 H       
  41 H41           -2.4236    -3.9439     0.0049 H       
  42 H42           -4.6162    -0.2801     0.0451 H       
  43 H43           -2.5093     0.9893     0.0384 H       
@<TRIPOS>BOND
   1    1    2 ar
   2    1    6 ar
   3    1   28 1
   4    2    3 ar
   5    2   21 1
   6    3    4 ar
   7    3   29 1
   8    4    5 ar
   9    4   30 1
  10    5    6 ar
  11    5    7 1
  12    6   31 1
  13    7    8 1
  14    7   32 1
  15    7   33 1
  16    8    9 ar
  17    8   13 ar
  18    9   10 ar
  19    9   34 1
  20   10   11 ar
  21   10   14 1
  22   11   12 ar
  23   11   17 1
  24   12   13 ar
  25   12   35 1
  26   13   36 1
  27   14   15 1
  28   14   37 1
  29   14   38 1
  30   15   16 am
  31   15   20 2
  32   16   17 am
  33   16   19 1
  34   17   18 2
  35   19   39 1
  36   21   22 ar
  37   21   26 ar
  38   22   23 ar
  39   22   40 1
  40   23   24 ar
  41   23   41 1
  42   24   25 ar
  43   24   27 1
  44   25   26 ar
  45   25   42 1
  46   26   43 1

#	End of record

