#	Name: ASD10420194
#	Creating user name:	WinNT
#	Creation time:	15. 06. 2019 21:27

#	Modifying user name:	WinNT
#	Modification time:	15. 06. 2019 21:27

#	Program:	/corina/corina34_cracker 3.40 0067  02.08.2006

@<TRIPOS>MOLECULE
ASD10420194
  27   29    0    0    0
SMALL
NO_CHARGES


@<TRIPOS>ATOM
   1 C1            -0.0164     1.3580     0.0095 C.ar    
   2 C2             0.0021    -0.0041     0.0020 C.ar    
   3 C3             4.9967    -5.7781    -0.0774 C.ar    
   4 C4             2.9119    -4.5966    -0.0514 C.ar    
   5 C5             4.9983    -3.3817    -0.0642 C.ar    
   6 C6             2.4071     1.4149    -0.0133 C.ar    
   7 C7             1.1498     3.5582     0.0097 C.2     
   8 C8             3.6122    -5.7865    -0.0645 C.ar    
   9 C9             5.6874    -4.5782    -0.0773 C.ar    
  10 C10            1.1825     2.0841     0.0020 C.ar    
  11 C11            3.6025    -3.3836    -0.0512 C.ar    
  12 C12            2.8589    -2.1065    -0.0372 C.2     
  13 C13            1.2234    -0.6887    -0.0133 C.ar    
  14 C14            2.4308     0.0332    -0.0209 C.ar    
  15 N15            1.5535    -1.9975    -0.0239 N.2     
  16 O16            2.1884     4.1890     0.0031 O.2     
  17 O17           -0.0318     4.2059     0.0240 O.3     
  18 O18            3.4236    -0.8847    -0.0357 O.3     
  19 Cl19           2.7551    -7.2962    -0.0653 Cl      
  20 Cl20           7.4233    -4.5779    -0.0935 Cl      
  21 H21           -0.9609     1.8818     0.0168 H       
  22 H22           -0.9260    -0.5563     0.0083 H       
  23 H23            5.5401    -6.7114    -0.0831 H       
  24 H24            1.8319    -4.6044    -0.0417 H       
  25 H25            5.5381    -2.4463    -0.0638 H       
  26 H26            3.3313     1.9738    -0.0195 H       
  27 H27           -0.0026     5.1725     0.0286 H       
@<TRIPOS>BOND
   1    1    2 ar
   2    1   10 ar
   3    1   21 1
   4    2   13 ar
   5    2   22 1
   6    3    8 ar
   7    3    9 ar
   8    3   23 1
   9    4    8 ar
  10    4   11 ar
  11    4   24 1
  12    5    9 ar
  13    5   11 ar
  14    5   25 1
  15    6   10 ar
  16    6   14 ar
  17    6   26 1
  18    7   10 1
  19    7   16 2
  20    7   17 1
  21    8   19 1
  22    9   20 1
  23   11   12 1
  24   12   15 2
  25   12   18 1
  26   13   14 ar
  27   13   15 1
  28   14   18 1
  29   17   27 1

#	End of record

