#	Name: ASD13490076
#	Creating user name:	WinNT
#	Creation time:	15. 06. 2019 21:30

#	Modifying user name:	WinNT
#	Modification time:	15. 06. 2019 21:30

#	Program:	/corina/corina34_cracker 3.40 0067  02.08.2006

@<TRIPOS>MOLECULE
ASD13490076
  49   53    0    0    0
SMALL
NO_CHARGES


@<TRIPOS>ATOM
   1 C1            -0.0166     1.3758     0.0096 C.ar    
   2 C2             0.0021    -0.0041     0.0020 C.ar    
   3 C3             1.2250    -0.6991    -0.0134 C.ar    
   4 C4             2.4258     0.0060    -0.0212 C.ar    
   5 C5             2.4060     1.3989    -0.0135 C.ar    
   6 N6             1.4631     3.4370     0.0070 N.pl3   
   7 C7             1.1769     2.0904     0.0020 C.ar    
   8 C8             3.4524     2.4232    -0.0172 C.2     
   9 C9             2.8272     3.6255    -0.0044 C.2     
  10 C10            3.5061     4.9393    -0.0029 C.2     
  11 C11            2.8970     6.1593     0.0098 C.2     
  12 N12            3.8896     7.0859     0.0062 N.pl3   
  13 N13            4.8424     5.1464    -0.0080 N.2     
  14 C14            6.4105     7.1288    -0.0092 C.3     
  15 C15            5.0749     6.4221    -0.0068 C.2     
  16 C16            3.7808     8.5478     0.0135 C.3     
  17 C17            5.1378     9.1292    -0.4054 C.3     
  18 O18            6.1824     8.5000     0.3419 O.3     
  19 C19            7.3262     6.4929     1.0048 C.ar    
  20 C20            8.0691     5.3783     0.6624 C.ar    
  21 C21            8.9088     4.7951     1.5924 C.ar    
  22 C22            9.0063     5.3266     2.8650 C.ar    
  23 C23            8.2643     6.4413     3.2071 C.ar    
  24 C24            7.4275     7.0273     2.2754 C.ar    
  25 C25            1.2350    -2.1311    -0.0207 C.1     
  26 N26            1.2429    -3.2670    -0.0265 N.1     
  27 O27           -1.1669    -0.6949     0.0100 O.3     
  28 C28           -2.3731     0.0711     0.0261 C.3     
  29 C29            7.9628     4.7991    -0.7248 C.3     
  30 F30            8.8020     3.6847    -0.8303 F       
  31 F31            6.6407     4.4120    -0.9685 F       
  32 F32            8.3471     5.7628    -1.6633 F       
  33 H33           -0.9598     1.9020     0.0169 H       
  34 H34            3.3668    -0.5239    -0.0327 H       
  35 H35            0.8024     4.1472     0.0169 H       
  36 H36            4.5189     2.2531    -0.0278 H       
  37 H37            1.8342     6.3509     0.0205 H       
  38 H38            6.8583     7.0684    -1.0011 H       
  39 H39            3.0118     8.8631    -0.6917 H       
  40 H40            3.5261     8.8929     1.0155 H       
  41 H41            5.2955     8.9521    -1.4693 H       
  42 H42            5.1483    10.2018    -0.2114 H       
  43 H43            9.4886     3.9240     1.3251 H       
  44 H44            9.6619     4.8704     3.5920 H       
  45 H45            8.3402     6.8563     4.2013 H       
  46 H46            6.8506     7.9007     2.5416 H       
  47 H47           -3.2307    -0.6017     0.0310 H       
  48 H48           -2.3955     0.6948     0.9197 H       
  49 H49           -2.4132     0.7044    -0.8601 H       
@<TRIPOS>BOND
   1    1    2 ar
   2    1    7 ar
   3    1   33 1
   4    2    3 ar
   5    2   27 1
   6    3    4 ar
   7    3   25 1
   8    4    5 ar
   9    4   34 1
  10    5    8 1
  11    5    7 ar
  12    6    7 1
  13    6    9 1
  14    6   35 1
  15    8    9 2
  16    8   36 1
  17    9   10 1
  18   10   11 2
  19   10   13 1
  20   11   12 1
  21   11   37 1
  22   12   16 1
  23   12   15 1
  24   13   15 2
  25   14   15 1
  26   14   18 1
  27   14   19 1
  28   14   38 1
  29   16   17 1
  30   16   39 1
  31   16   40 1
  32   17   18 1
  33   17   41 1
  34   17   42 1
  35   19   20 ar
  36   19   24 ar
  37   20   21 ar
  38   20   29 1
  39   21   22 ar
  40   21   43 1
  41   22   23 ar
  42   22   44 1
  43   23   24 ar
  44   23   45 1
  45   24   46 1
  46   25   26 3
  47   27   28 1
  48   28   47 1
  49   28   48 1
  50   28   49 1
  51   29   30 1
  52   29   31 1
  53   29   32 1

#	End of record

