#	Name: ASD10610074
#	Creating user name:	WinNT
#	Creation time:	15. 06. 2019 21:27

#	Modifying user name:	WinNT
#	Modification time:	15. 06. 2019 21:27

#	Program:	/corina/corina34_cracker 3.40 0067  02.08.2006

@<TRIPOS>MOLECULE
ASD10610074
  62   67    0    0    0
SMALL
NO_CHARGES


@<TRIPOS>ATOM
   1 O1            -0.3538     1.3178    -0.3413 O.3     
   2 N2            -0.8170     0.2633    -0.7085 N.2     
   3 C3            -1.3060     0.3388    -1.9120 C.2     
   4 C4            -1.1036     1.6674    -2.3471 C.2     
   5 C5            -0.4790     2.2673    -1.2877 C.2     
   6 C6            -0.0336     3.6708    -1.2000 C.2     
   7 O7            -0.2120     4.4249    -2.1368 O.2     
   8 N8             0.5712     4.1172    -0.0813 N.am    
   9 O9            -0.1050     6.5017     1.2920 O.3     
  10 C10            0.0571     6.5870    -0.1297 C.3     
  11 C11            1.1120     5.4779    -0.0341 C.3     
  12 C12            1.2555     6.0584     1.3782 C.3     
  13 C13            2.3143     5.6786    -0.9202 C.2     
  14 N14            3.2094     4.6834    -1.0773 N.am    
  15 O15            2.4764     6.7358    -1.4921 O.2     
  16 C16            4.4330     4.9138    -1.8493 C.3     
  17 C17            5.5415     3.9387    -1.3994 C.3     
  18 C18            5.3602     2.7573    -2.3757 C.3     
  19 C19            4.7316     3.3596    -3.6143 C.ar    
  20 C20            4.6350     2.8609    -4.9004 C.ar    
  21 C21            4.0010     3.6048    -5.8924 C.ar    
  22 C22            3.4654     4.8540    -5.5820 C.ar    
  23 C23            3.5671     5.3431    -4.2972 C.ar    
  24 C24            4.1983     4.5998    -3.3118 C.ar    
  25 C25            3.8967     3.0713    -7.2716 C.ar    
  26 C26            2.6577     3.0611    -7.9324 C.ar    
  27 C27            2.5724     2.5566    -9.2295 C.ar    
  28 C28            3.7047     2.0703    -9.8570 C.ar    
  29 C29            4.9256     2.0812    -9.2038 C.ar    
  30 C30            5.0270     2.5833    -7.9199 C.ar    
  31 O31            0.2510     4.4192    -5.7910 O.3     
  32 N32            1.3877     4.0818    -6.0465 N.2     
  33 C33            1.4475     3.5831    -7.2548 C.2     
  34 N34            0.1976     3.6339    -7.7696 N.2     
  35 C35           -0.5474     4.1649    -6.8325 C.2     
  36 C36           -2.0274     4.4374    -6.9129 C.3     
  37 F37            1.3843     2.5426    -9.8725 F       
  38 Cl38           6.3382     1.4667   -10.0042 Cl      
  39 C39           -1.9597    -0.7740    -2.6901 C.3     
  40 H40           -1.3775     2.1070    -3.2948 H       
  41 H41            0.6483     3.5375     0.6926 H       
  42 H42           -0.8328     6.2911    -0.6852 H       
  43 H43            0.4626     7.5424    -0.4625 H       
  44 H44            1.9740     6.8758     1.4391 H       
  45 H45            1.4157     5.2993     2.1439 H       
  46 H46            3.0435     3.8146    -0.6791 H       
  47 H47            4.7662     5.9450    -1.7326 H       
  48 H48            6.5263     4.3909    -1.5170 H       
  49 H49            5.3815     3.6186    -0.3698 H       
  50 H50            6.3267     2.3157    -2.6187 H       
  51 H51            4.6988     2.0069    -1.9427 H       
  52 H52            5.0515     1.8927    -5.1358 H       
  53 H53            2.9726     5.4370    -6.3460 H       
  54 H54            3.1525     6.3109    -4.0568 H       
  55 H55            3.6363     1.6797   -10.8616 H       
  56 H56            5.9833     2.5929    -7.4181 H       
  57 H57           -2.3660     4.8838    -5.9779 H       
  58 H58           -2.2262     5.1237    -7.7361 H       
  59 H59           -2.5604     3.5020    -7.0830 H       
  60 H60           -3.0312    -0.7764    -2.4901 H       
  61 H61           -1.7894    -0.6210    -3.7558 H       
  62 H62           -1.5314    -1.7295    -2.3871 H       
@<TRIPOS>BOND
   1    1    2 1
   2    1    5 1
   3    2    3 2
   4    3    4 1
   5    3   39 1
   6    4    5 2
   7    4   40 1
   8    5    6 1
   9    6    7 2
  10    6    8 am
  11    8   11 1
  12    8   41 1
  13    9   10 1
  14    9   12 1
  15   10   11 1
  16   10   42 1
  17   10   43 1
  18   11   12 1
  19   11   13 1
  20   12   44 1
  21   12   45 1
  22   13   14 am
  23   13   15 2
  24   14   16 1
  25   14   46 1
  26   16   17 1
  27   16   24 1
  28   16   47 1
  29   17   18 1
  30   17   48 1
  31   17   49 1
  32   18   19 1
  33   18   50 1
  34   18   51 1
  35   19   20 ar
  36   19   24 ar
  37   20   21 ar
  38   20   52 1
  39   21   22 ar
  40   21   25 1
  41   22   23 ar
  42   22   53 1
  43   23   24 ar
  44   23   54 1
  45   25   26 ar
  46   25   30 ar
  47   26   27 ar
  48   26   33 1
  49   27   28 ar
  50   27   37 1
  51   28   29 ar
  52   28   55 1
  53   29   30 ar
  54   29   38 1
  55   30   56 1
  56   31   32 1
  57   31   35 1
  58   32   33 2
  59   33   34 1
  60   34   35 2
  61   35   36 1
  62   36   57 1
  63   36   58 1
  64   36   59 1
  65   39   60 1
  66   39   61 1
  67   39   62 1

#	End of record

