#	Name: ASD10160339
#	Creating user name:	WinNT
#	Creation time:	15. 06. 2019 21:25

#	Modifying user name:	WinNT
#	Modification time:	15. 06. 2019 21:25

#	Program:	/corina/corina34_cracker 3.40 0067  02.08.2006

@<TRIPOS>MOLECULE
ASD10160339
  35   36    0    0    0
SMALL
NO_CHARGES


@<TRIPOS>ATOM
   1 C1            -0.0179     1.4704     0.0101 C.2     
   2 C2             0.0021    -0.0041     0.0020 C.ar    
   3 C3             1.2211    -0.6881    -0.0133 C.ar    
   4 C4             1.2361    -2.0670    -0.0204 C.ar    
   5 C5             0.0397    -2.7774    -0.0123 C.ar    
   6 C6            -1.1755    -2.0998     0.0030 C.ar    
   7 C7            -1.1979    -0.7211     0.0155 C.ar    
   8 O8             1.0260     2.0922     0.0035 O.2     
   9 O9            -1.1939     2.1282     0.0193 O.3     
  10 F10           -2.3348    -2.7935     0.0108 F       
  11 F11            2.4137    -2.7289    -0.0356 F       
  12 O12            0.0581    -4.1350    -0.0197 O.3     
  13 C13            0.0806    -4.0601     2.3615 C.ar    
  14 C14            0.0787    -4.7797     1.1772 C.ar    
  15 C15            0.0977    -6.1708     1.2281 C.ar    
  16 C16            0.1178    -6.7848     2.4690 C.ar    
  17 C17            0.1184    -5.9974     3.6140 C.ar    
  18 N18            0.1001    -4.6783     3.5271 N.ar    
  19 O19            0.1377    -6.5893     4.8358 O.3     
  20 C20            0.1372    -5.7264     5.9749 C.3     
  21 C21           -0.5640    -6.4234     7.1425 C.3     
  22 C22            1.5794    -5.3997     6.3678 C.3     
  23 Cl23           0.1415    -8.5163     2.5929 Cl      
  24 H24            2.1501    -0.1373    -0.0199 H       
  25 H25           -2.1414    -0.1958     0.0318 H       
  26 H26           -1.1564     3.0945     0.0244 H       
  27 H27            0.0705    -2.9806     2.3301 H       
  28 H28            0.0964    -6.7572     0.3211 H       
  29 H29           -0.3909    -4.8043     5.7320 H       
  30 H30           -0.0359    -7.3454     7.3854 H       
  31 H31           -0.5643    -5.7652     8.0113 H       
  32 H32           -1.5914    -6.6561     6.8626 H       
  33 H33            2.0790    -4.9031     5.5359 H       
  34 H34            1.5791    -4.7415     7.2366 H       
  35 H35            2.1076    -6.3217     6.6106 H       
@<TRIPOS>BOND
   1    1    2 1
   2    1    8 2
   3    1    9 1
   4    2    3 ar
   5    2    7 ar
   6    3    4 ar
   7    3   24 1
   8    4    5 ar
   9    4   11 1
  10    5    6 ar
  11    5   12 1
  12    6    7 ar
  13    6   10 1
  14    7   25 1
  15    9   26 1
  16   12   14 1
  17   13   14 ar
  18   13   18 ar
  19   13   27 1
  20   14   15 ar
  21   15   16 ar
  22   15   28 1
  23   16   17 ar
  24   16   23 1
  25   17   18 ar
  26   17   19 1
  27   19   20 1
  28   20   21 1
  29   20   22 1
  30   20   29 1
  31   21   30 1
  32   21   31 1
  33   21   32 1
  34   22   33 1
  35   22   34 1
  36   22   35 1

#	End of record

