#	Name: ASD10160488
#	Creating user name:	WinNT
#	Creation time:	15. 06. 2019 21:26

#	Modifying user name:	WinNT
#	Modification time:	15. 06. 2019 21:26

#	Program:	/corina/corina34_cracker 3.40 0067  02.08.2006

@<TRIPOS>MOLECULE
ASD10160488
  21   22    0    0    0
SMALL
NO_CHARGES


@<TRIPOS>ATOM
   1 C1            -0.0167     1.3793     0.0096 C.ar    
   2 C2             0.0021    -0.0041     0.0020 C.ar    
   3 C3             1.2229    -0.6630    -0.0132 C.ar    
   4 C4             2.3826     0.0969    -0.0203 C.ar    
   5 C5             2.2849     1.4753    -0.0119 C.ar    
   6 N6             1.1072     2.0686     0.0026 N.ar    
   7 C7            -1.3366     2.1064     0.0198 C.3     
   8 C8            -1.5305     3.0141     1.2460 C.3     
   9 C9            -2.1697     4.0355     0.2905 C.3     
  10 C10           -1.3408     3.3874    -0.8309 C.3     
  11 F11           -3.5501     3.8695     0.1347 F       
  12 F12           -1.8077     5.3594     0.5616 F       
  13 Cl13          -1.4826    -0.9037     0.0120 Cl      
  14 H14            1.2688    -1.7420    -0.0191 H       
  15 H15            3.3503    -0.3825    -0.0318 H       
  16 H16            3.1838     2.0739    -0.0170 H       
  17 H17           -2.1837     1.4486    -0.1748 H       
  18 H18           -2.2254     2.6106     1.9824 H       
  19 H19           -0.5948     3.3561     1.6883 H       
  20 H20           -0.3533     3.8315    -0.9564 H       
  21 H21           -1.8827     3.2854    -1.7712 H       
@<TRIPOS>BOND
   1    1    2 ar
   2    1    6 ar
   3    1    7 1
   4    2    3 ar
   5    2   13 1
   6    3    4 ar
   7    3   14 1
   8    4    5 ar
   9    4   15 1
  10    5    6 ar
  11    5   16 1
  12    7    8 1
  13    7   10 1
  14    7   17 1
  15    8    9 1
  16    8   18 1
  17    8   19 1
  18    9   10 1
  19    9   11 1
  20    9   12 1
  21   10   20 1
  22   10   21 1

#	End of record

