#	Name: ASD10610141
#	Creating user name:	WinNT
#	Creation time:	15. 06. 2019 21:28

#	Modifying user name:	WinNT
#	Modification time:	15. 06. 2019 21:28

#	Program:	/corina/corina34_cracker 3.40 0067  02.08.2006

@<TRIPOS>MOLECULE
ASD10610141
  53   55    0    0    0
SMALL
NO_CHARGES


@<TRIPOS>ATOM
   1 C1            -0.0162     1.3436     0.0094 C.2     
   2 N2             0.0021    -0.0041     0.0020 N.am    
   3 O3             1.0277     1.9654     0.0028 O.2     
   4 O4            -1.1912     2.0008     0.0186 O.3     
   5 C5             1.2806    -0.7192    -0.0140 C.3     
   6 C6             1.7733    -0.8507    -1.4565 C.3     
   7 C7             0.7561    -4.6137     1.6751 C.ar    
   8 C8             2.0109    -4.0070     1.6961 C.ar    
   9 C9             2.1757    -2.7486     1.1490 C.ar    
  10 C10            1.0960    -2.0915     0.5809 C.ar    
  11 C11           -0.1501    -2.6903     0.5583 C.ar    
  12 C12           -0.3255    -3.9468     1.1020 C.ar    
  13 C13            0.5738    -5.9659     2.2548 C.ar    
  14 C14           -0.4671    -6.2088     3.1654 C.ar    
  15 C15           -0.6282    -7.4849     3.7037 C.ar    
  16 C16            0.2352    -8.5020     3.3395 C.ar    
  17 C17            1.2611    -8.2605     2.4414 C.ar    
  18 C18            1.4299    -7.0021     1.8949 C.ar    
  19 O19           -2.2440    -3.2346     3.6330 O.3     
  20 N20           -1.3506    -3.8787     3.1250 N.2     
  21 C21           -1.3890    -5.1149     3.5524 C.2     
  22 N22           -2.4283    -5.2072     4.4134 N.2     
  23 C23           -2.9588    -4.0106     4.4539 C.2     
  24 C24           -4.1515    -3.5878     5.2723 C.3     
  25 F25           -1.6267    -7.7274     4.5809 F       
  26 F26            3.3909    -2.1585     1.1680 F       
  27 Cl27           2.3370    -9.5472     1.9937 Cl      
  28 C28           -1.1349     3.4517     0.0262 C.3     
  29 C29           -0.4003     3.9401    -1.2239 C.3     
  30 C30           -2.5565     4.0172     0.0360 C.3     
  31 C31           -0.3885     3.9266     1.2745 C.3     
  32 H32           -0.8313    -0.5005     0.0073 H       
  33 H33            2.0142    -0.1651     0.5714 H       
  34 H34            2.7245    -1.3828    -1.4685 H       
  35 H35            1.0396    -1.4049    -2.0420 H       
  36 H36            1.9068     0.1418    -1.8868 H       
  37 H37            2.8523    -4.5191     2.1392 H       
  38 H38           -0.9882    -2.1734     0.1146 H       
  39 H39           -1.2996    -4.4129     1.0831 H       
  40 H40            0.1089    -9.4896     3.7580 H       
  41 H41            2.2292    -6.8220     1.1913 H       
  42 H42           -4.3565    -2.5317     5.0968 H       
  43 H43           -5.0196    -4.1795     4.9820 H       
  44 H44           -3.9410    -3.7462     6.3299 H       
  45 H45           -0.9321     3.6018    -2.1132 H       
  46 H46           -0.3581     5.0293    -1.2182 H       
  47 H47            0.6125     3.5373    -1.2309 H       
  48 H48           -3.0798     3.6692     0.9266 H       
  49 H49           -2.5142     5.1064     0.0417 H       
  50 H50           -3.0883     3.6789    -0.8533 H       
  51 H51            0.6243     3.5237     1.2675 H       
  52 H52           -0.3462     5.0157     1.2802 H       
  53 H53           -0.9118     3.5786     2.1651 H       
@<TRIPOS>BOND
   1    1    2 am
   2    1    3 2
   3    1    4 1
   4    2    5 1
   5    2   32 1
   6    4   28 1
   7    5    6 1
   8    5   10 1
   9    5   33 1
  10    6   34 1
  11    6   35 1
  12    6   36 1
  13    7    8 ar
  14    7   12 ar
  15    7   13 1
  16    8    9 ar
  17    8   37 1
  18    9   10 ar
  19    9   26 1
  20   10   11 ar
  21   11   12 ar
  22   11   38 1
  23   12   39 1
  24   13   14 ar
  25   13   18 ar
  26   14   15 ar
  27   14   21 1
  28   15   16 ar
  29   15   25 1
  30   16   17 ar
  31   16   40 1
  32   17   18 ar
  33   17   27 1
  34   18   41 1
  35   19   20 1
  36   19   23 1
  37   20   21 2
  38   21   22 1
  39   22   23 2
  40   23   24 1
  41   24   42 1
  42   24   43 1
  43   24   44 1
  44   28   29 1
  45   28   31 1
  46   28   30 1
  47   29   45 1
  48   29   46 1
  49   29   47 1
  50   30   48 1
  51   30   49 1
  52   30   50 1
  53   31   51 1
  54   31   52 1
  55   31   53 1

#	End of record

