#	Name: ASD11000253
#	Creating user name:	WinNT
#	Creation time:	15. 06. 2019 21:29

#	Modifying user name:	WinNT
#	Modification time:	15. 06. 2019 21:29

#	Program:	/corina/corina34_cracker 3.40 0067  02.08.2006

@<TRIPOS>MOLECULE
ASD11000253
  72   77    0    0    0
SMALL
NO_CHARGES


@<TRIPOS>ATOM
   1 C1             1.0431     1.9189     0.2588 C.2     
   2 C2             0.8851     0.4782     0.0007 C.2     
   3 C3             1.6735    -0.3518     0.7055 C.2     
   4 C4             2.6384     0.2586     1.6946 C.3     
   5 C5             3.3490     1.4490     1.0400 C.3     
   6 C6             2.4472     2.4691     0.3579 C.3     
   7 C7             2.9494     2.8300    -1.0435 C.3     
   8 C8             4.7724     1.2305     0.5489 C.3     
   9 C9             5.2530     1.9466    -0.7001 C.3     
  10 C10            4.4341     3.2199    -0.9526 C.3     
  11 C11            2.6109     4.5917    -2.8576 C.3     
  12 C12            2.0776     3.9727    -1.5607 C.3     
  13 C13            4.0247     5.0658    -2.5640 C.3     
  14 C14            4.7617     5.7305    -3.7238 C.3     
  15 C15            4.8616     3.7888    -2.2953 C.3     
  16 C16            6.2937     4.3318    -2.3582 C.3     
  17 C17            6.2430     5.3064    -3.5663 C.3     
  18 O18            4.4941     1.9744     1.7290 O.3     
  19 C19            4.2070     5.2317    -5.0597 C.3     
  20 C20            4.4592     3.7280    -5.1871 C.3     
  21 O21            2.8018     5.4854    -5.1164 O.3     
  22 C22            4.9044     5.9649    -6.2072 C.3     
  23 C23            6.3909     6.3363    -8.5407 C.2     
  24 C24            7.0285     6.2066    -7.2180 C.2     
  25 O25            6.3161     5.5988    -6.2351 O.3     
  26 C26            4.2649     5.5617    -7.5373 C.3     
  27 C27            5.1052     6.0410    -8.6884 C.2     
  28 C28            7.1977     6.8053    -9.7240 C.3     
  29 C29            4.4706     6.1892   -10.0472 C.3     
  30 O30            8.1507     6.6270    -7.0153 O.2     
  31 O31            0.0771     2.6424     0.3829 O.2     
  32 O32            1.9212     0.7059     2.8469 O.3     
  33 C33            2.4192     3.7459     1.2004 C.3     
  34 C34            4.0316     5.9724    -1.3316 C.3     
  35 H35            0.1709     0.1065    -0.7191 H       
  36 H36            1.6185    -1.4218     0.5690 H       
  37 H37            3.3759    -0.4872     1.9912 H       
  38 H38            2.8406     1.9674    -1.7010 H       
  39 H39            5.1949     0.2376     0.7029 H       
  40 H40            6.3026     2.2141    -0.5780 H       
  41 H41            5.1516     1.2799    -1.5565 H       
  42 H42            4.5924     3.9426    -0.1521 H       
  43 H43            2.6253     3.8433    -3.6499 H       
  44 H44            1.9877     5.4362    -3.1518 H       
  45 H45            1.0718     3.5930    -1.7407 H       
  46 H46            2.0260     4.7484    -0.7967 H       
  47 H47            4.6703     6.8146    -3.6575 H       
  48 H48            4.6890     3.0556    -3.0832 H       
  49 H49            6.5442     4.8661    -1.4418 H       
  50 H50            7.0040     3.5258    -2.5425 H       
  51 H51            6.5855     4.8010    -4.4692 H       
  52 H52            6.8633     6.1805    -3.3680 H       
  53 H53            3.8508     3.1944    -4.4569 H       
  54 H54            4.1933     3.3989    -6.1916 H       
  55 H55            5.5133     3.5196    -5.0036 H       
  56 H56            2.5677     6.4207    -5.0416 H       
  57 H57            4.8065     7.0413    -6.0661 H       
  58 H58            4.1784     4.4760    -7.5814 H       
  59 H59            3.2708     6.0032    -7.6080 H       
  60 H60            8.2236     6.9987    -9.4106 H       
  61 H61            7.1925     6.0353   -10.4954 H       
  62 H62            6.7605     7.7211   -10.1218 H       
  63 H63            5.2158     6.5429   -10.7597 H       
  64 H64            4.0839     5.2242   -10.3749 H       
  65 H65            3.6529     6.9077    -9.9900 H       
  66 H66            1.4441     0.0039     3.3102 H       
  67 H67            2.1735     3.4951     2.2322 H       
  68 H68            3.3975     4.2254     1.1661 H       
  69 H69            1.6667     4.4270     0.8029 H       
  70 H70            3.6664     5.4154    -0.4688 H       
  71 H71            5.0481     6.3156    -1.1388 H       
  72 H72            3.3854     6.8320    -1.5092 H       
@<TRIPOS>BOND
   1    1    2 1
   2    1    6 1
   3    1   31 2
   4    2    3 2
   5    2   35 1
   6    3    4 1
   7    3   36 1
   8    4    5 1
   9    4   32 1
  10    4   37 1
  11    5    6 1
  12    5    8 1
  13    5   18 1
  14    6   33 1
  15    6    7 1
  16    7   10 1
  17    7   12 1
  18    7   38 1
  19    8    9 1
  20    8   18 1
  21    8   39 1
  22    9   10 1
  23    9   40 1
  24    9   41 1
  25   10   15 1
  26   10   42 1
  27   11   12 1
  28   11   13 1
  29   11   43 1
  30   11   44 1
  31   12   45 1
  32   12   46 1
  33   13   15 1
  34   13   34 1
  35   13   14 1
  36   14   17 1
  37   14   19 1
  38   14   47 1
  39   15   16 1
  40   15   48 1
  41   16   17 1
  42   16   49 1
  43   16   50 1
  44   17   51 1
  45   17   52 1
  46   19   20 1
  47   19   21 1
  48   19   22 1
  49   20   53 1
  50   20   54 1
  51   20   55 1
  52   21   56 1
  53   22   26 1
  54   22   25 1
  55   22   57 1
  56   23   24 1
  57   23   27 2
  58   23   28 1
  59   24   25 1
  60   24   30 2
  61   26   27 1
  62   26   58 1
  63   26   59 1
  64   27   29 1
  65   28   60 1
  66   28   61 1
  67   28   62 1
  68   29   63 1
  69   29   64 1
  70   29   65 1
  71   32   66 1
  72   33   67 1
  73   33   68 1
  74   33   69 1
  75   34   70 1
  76   34   71 1
  77   34   72 1

#	End of record

