#	Name: ASD13110007
#	Creating user name:	WinNT
#	Creation time:	15. 06. 2019 21:30

#	Modifying user name:	WinNT
#	Modification time:	15. 06. 2019 21:30

#	Program:	/corina/corina34_cracker 3.40 0067  02.08.2006

@<TRIPOS>MOLECULE
ASD13110007
  59   64    0    0    0
SMALL
NO_CHARGES


@<TRIPOS>ATOM
   1 C1            -0.0167     1.3813     0.0096 C.ar    
   2 C2             0.0021    -0.0041     0.0020 C.ar    
   3 C3             2.4055     0.0360    -0.0212 C.ar    
   4 C4             2.3791     1.4181    -0.0131 C.ar    
   5 C5             1.1705     2.0893     0.0021 C.ar    
   6 O6            -1.0073    -0.9230     0.0072 O.3     
   7 C7            -0.4037    -2.1594    -0.4172 C.3     
   8 O8             0.9729    -2.0227    -0.0177 O.3     
   9 C9             1.2195    -0.6802    -0.0133 C.ar    
  10 C10            1.1474     3.5961     0.0100 C.3     
  11 C11            0.0067     4.2293     0.8037 C.3     
  12 C12            0.5611     5.2419     1.8059 C.3     
  13 C13            1.4301     6.2528     1.0489 C.3     
  14 C14            2.7501     5.5778     0.6759 C.3     
  15 C15            2.4804     4.3138    -0.1328 C.3     
  16 N16            1.6958     7.4150     1.9072 N.3     
  17 C17            0.4553     8.1444     2.2050 C.3     
  18 C18            0.7622     9.2978     3.1631 C.3     
  19 N19            1.7589    10.1875     2.5510 N.3     
  20 C20            2.9995     9.4581     2.2533 C.3     
  21 C21            2.6925     8.3048     1.2952 C.3     
  22 C22            1.5413     4.3111    -1.2917 C.3     
  23 C23            2.0246    11.3497     3.4093 C.3     
  24 C24            3.2154    12.1050     2.8777 C.ar    
  25 C25            4.4595    11.9277     3.4533 C.ar    
  26 C26            3.0644    12.9714     1.8102 C.ar    
  27 C27            4.1576    13.6645     1.3216 C.ar    
  28 C28            5.4003    13.4917     1.9005 C.ar    
  29 C29            5.5525    12.6210     2.9652 C.ar    
  30 Br30           1.3638    13.2080     1.0178 Br      
  31 Cl31           7.1151    12.3984     3.6881 Cl      
  32 H32           -0.9594     1.9082     0.0170 H       
  33 H33            3.3510    -0.4858    -0.0336 H       
  34 H34            3.3046     1.9747    -0.0192 H       
  35 H35           -0.8673    -3.0058     0.0897 H       
  36 H36           -0.4793    -2.2712    -1.4988 H       
  37 H37           -0.6734     4.7347     0.1181 H       
  38 H38           -0.5362     3.4507     1.3396 H       
  39 H39           -0.2629     5.7615     2.2950 H       
  40 H40            1.1656     4.7256     2.5515 H       
  41 H41            0.9144     6.5733     0.1437 H       
  42 H42            3.3413     6.2581     0.0630 H       
  43 H43            3.3027     5.3413     1.5851 H       
  44 H44            3.3552     3.6749    -0.2542 H       
  45 H45            0.0360     8.5414     1.2805 H       
  46 H46           -0.2621     7.4674     2.6688 H       
  47 H47           -0.1514     9.8578     3.3625 H       
  48 H48            1.1561     8.8989     4.0979 H       
  49 H49            3.7169    10.1351     1.7894 H       
  50 H50            3.4188     9.0612     3.1777 H       
  51 H51            3.6062     7.7448     1.0957 H       
  52 H52            2.2986     8.7036     0.3603 H       
  53 H53            1.8123     3.6902    -2.1456 H       
  54 H54            1.0275     5.2423    -1.5305 H       
  55 H55            1.1527    12.0038     3.4155 H       
  56 H56            2.2325    11.0117     4.4245 H       
  57 H57            4.5781    11.2481     4.2843 H       
  58 H58            4.0397    14.3404     0.4876 H       
  59 H59            6.2537    14.0325     1.5189 H       
@<TRIPOS>BOND
   1    1    2 ar
   2    1    5 ar
   3    1   32 1
   4    2    9 ar
   5    2    6 1
   6    3    4 ar
   7    3    9 ar
   8    3   33 1
   9    4    5 ar
  10    4   34 1
  11    5   10 1
  12    6    7 1
  13    7    8 1
  14    7   35 1
  15    7   36 1
  16    8    9 1
  17   10   11 1
  18   10   15 1
  19   10   22 1
  20   11   12 1
  21   11   37 1
  22   11   38 1
  23   12   13 1
  24   12   39 1
  25   12   40 1
  26   13   14 1
  27   13   16 1
  28   13   41 1
  29   14   15 1
  30   14   42 1
  31   14   43 1
  32   15   22 1
  33   15   44 1
  34   16   17 1
  35   16   21 1
  36   17   18 1
  37   17   45 1
  38   17   46 1
  39   18   19 1
  40   18   47 1
  41   18   48 1
  42   19   20 1
  43   19   23 1
  44   20   21 1
  45   20   49 1
  46   20   50 1
  47   21   51 1
  48   21   52 1
  49   22   53 1
  50   22   54 1
  51   23   24 1
  52   23   55 1
  53   23   56 1
  54   24   26 ar
  55   24   25 ar
  56   25   29 ar
  57   25   57 1
  58   26   27 ar
  59   26   30 1
  60   27   28 ar
  61   27   58 1
  62   28   29 ar
  63   28   59 1
  64   29   31 1

#	End of record

