#	Name: ASD13490055
#	Creating user name:	WinNT
#	Creation time:	15. 06. 2019 21:30

#	Modifying user name:	WinNT
#	Modification time:	15. 06. 2019 21:30

#	Program:	/corina/corina34_cracker 3.40 0067  02.08.2006

@<TRIPOS>MOLECULE
ASD13490055
  45   48    0    0    0
SMALL
NO_CHARGES


@<TRIPOS>ATOM
   1 C1            -0.0167     1.3792     0.0096 C.ar    
   2 C2             0.0021    -0.0041     0.0020 C.ar    
   3 C3             1.2189    -0.6835    -0.0133 C.ar    
   4 C4             2.4111     0.0261    -0.0208 C.ar    
   5 C5             2.3955     1.4060    -0.0128 C.ar    
   6 C6             1.1817     2.0899     0.0020 C.ar    
   7 N7             1.2383    -2.0867    -0.0205 N.pl3   
   8 C8             1.9497    -2.8872    -0.8759 C.2     
   9 C9             1.6798    -4.1614    -0.5331 C.2     
  10 N10            0.8276    -4.1447     0.5024 N.2     
  11 C11            0.5603    -2.9076     0.8223 C.2     
  12 C12            1.1653     3.5741     0.0101 C.2     
  13 C13            2.2476     4.4058     0.0043 C.2     
  14 N14            1.7519     5.6641     0.0153 N.pl3   
  15 N15            0.4673     5.5965     0.0269 N.2     
  16 N16            0.0809     4.3698     0.0188 N.2     
  17 C17            2.2386    -5.3929    -1.1980 C.3     
  18 O18           -1.1656    -0.7002     0.0099 O.3     
  19 C19           -2.3748     0.0612     0.0260 C.3     
  20 C20            2.5444     6.8963     0.0146 C.3     
  21 C21            2.1202     7.7656    -1.1410 C.ar    
  22 C22            2.3514     8.4310    -3.4294 C.ar    
  23 C23            2.7405     7.6336    -2.3694 C.ar    
  24 C24            1.1071     8.6912    -0.9743 C.ar    
  25 C25            0.7181     9.4886    -2.0343 C.ar    
  26 C26            1.3425     9.3609    -3.2609 C.ar    
  27 H27           -0.9587     1.9073     0.0169 H       
  28 H28            3.3529    -0.5024    -0.0327 H       
  29 H29            3.3248     1.9562    -0.0180 H       
  30 H30            2.6012    -2.5592    -1.6723 H       
  31 H31           -0.0931    -2.5902     1.6215 H       
  32 H32            3.2883     4.1176    -0.0069 H       
  33 H33            3.1669    -5.6822    -0.7054 H       
  34 H34            1.5174    -6.2065    -1.1208 H       
  35 H35            2.4358    -5.1807    -2.2488 H       
  36 H36           -3.2298    -0.6148     0.0308 H       
  37 H37           -2.3996     0.6848     0.9196 H       
  38 H38           -2.4172     0.6944    -0.8602 H       
  39 H39            2.3840     7.4319     0.9502 H       
  40 H40            3.6011     6.6486    -0.0858 H       
  41 H41            2.8362     8.3281    -4.3889 H       
  42 H42            3.5292     6.9076    -2.5008 H       
  43 H43            0.6193     8.7910    -0.0159 H       
  44 H44           -0.0739    10.2113    -1.9042 H       
  45 H45            1.0385     9.9839    -4.0891 H       
@<TRIPOS>BOND
   1    1    2 ar
   2    1    6 ar
   3    1   27 1
   4    2    3 ar
   5    2   18 1
   6    3    4 ar
   7    3    7 1
   8    4    5 ar
   9    4   28 1
  10    5    6 ar
  11    5   29 1
  12    6   12 1
  13    7    8 1
  14    7   11 1
  15    8    9 2
  16    8   30 1
  17    9   10 1
  18    9   17 1
  19   10   11 2
  20   11   31 1
  21   12   13 2
  22   12   16 1
  23   13   14 1
  24   13   32 1
  25   14   15 1
  26   14   20 1
  27   15   16 2
  28   17   33 1
  29   17   34 1
  30   17   35 1
  31   18   19 1
  32   19   36 1
  33   19   37 1
  34   19   38 1
  35   20   21 1
  36   20   39 1
  37   20   40 1
  38   21   24 ar
  39   21   23 ar
  40   22   23 ar
  41   22   26 ar
  42   22   41 1
  43   23   42 1
  44   24   25 ar
  45   24   43 1
  46   25   26 ar
  47   25   44 1
  48   26   45 1

#	End of record

