#	Name: ASD10410066
#	Creating user name:	WinNT
#	Creation time:	15. 06. 2019 21:26

#	Modifying user name:	WinNT
#	Modification time:	15. 06. 2019 21:26

#	Program:	/corina/corina34_cracker 3.40 0067  02.08.2006

@<TRIPOS>MOLECULE
ASD10410066
  75   81    0    0    0
SMALL
NO_CHARGES


@<TRIPOS>ATOM
   1 C1             0.0306     1.1169     0.1442 C.ar    
   2 C2             0.1863    -0.1677     0.6483 C.ar    
   3 C3             1.4588    -0.6742     0.8775 C.ar    
   4 C4             2.5694     0.0996     0.6046 C.ar    
   5 C5             2.4137     1.3842     0.1005 C.ar    
   6 C6             1.1411     1.8906    -0.1291 C.ar    
   7 N7             3.5400     2.1690    -0.1763 N.pl3   
   8 C8             4.7181     1.5671    -0.6158 C.2     
   9 N9             5.8601     2.1824    -0.8079 N.2     
  10 N10            4.8649     0.2682    -0.9034 N.2     
  11 C11            6.1011     0.0358    -1.2887 C.2     
  12 N12            6.7786     1.2155    -1.2478 N.pl3   
  13 C13            8.1120     1.4218    -1.5755 C.ar    
  14 N14            6.6198    -1.1876    -1.6645 N.pl3   
  15 N15           -0.9395    -0.9518     0.9259 N.3     
  16 C16           -0.5484    -2.2685     1.4483 C.3     
  17 C17           -1.8045    -3.0633     1.8129 C.3     
  18 N18           -2.6551    -3.2035     0.6227 N.3     
  19 C19           -3.0461    -1.8868     0.1003 C.3     
  20 C20           -1.7900    -1.0920    -0.2643 C.3     
  21 C21           -3.8366    -4.0264     0.9140 C.3     
  22 C22           -4.7913    -4.0621    -0.3183 C.3     
  23 C23           -3.8603    -4.3953    -1.5239 C.3     
  24 C24           -3.4496    -5.8694    -1.3048 C.3     
  25 C25           -3.4259    -5.5005     1.1331 C.3     
  26 C26           -4.1712    -6.2880     0.0125 C.3     
  27 C27           -5.4929    -5.4493    -0.1016 C.3     
  28 N28            8.6258     0.9130    -2.6863 N.ar    
  29 C29            9.8958     1.1018    -3.0113 C.ar    
  30 N30           10.7268     1.7961    -2.2680 N.ar    
  31 C31           10.3087     2.3545    -1.1225 C.ar    
  32 C32            8.9550     2.1845    -0.7365 C.ar    
  33 Cl33          10.4884     0.4002    -4.4845 Cl      
  34 C34           11.1684     3.1009    -0.3065 C.ar    
  35 C35           10.6935     3.6498     0.8518 C.ar    
  36 C36            9.3558     3.4754     1.2353 C.ar    
  37 C37            8.4938     2.7583     0.4557 C.ar    
  38 O38           11.5284     4.3734     1.6421 O.3     
  39 C39           12.8796     4.5159     1.1993 C.3     
  40 O40            8.9105     4.0319     2.3933 O.3     
  41 C41            7.5381     3.8189     2.7297 C.3     
  42 H42           -0.9590     1.5092    -0.0382 H       
  43 H43            1.5799    -1.6732     1.2695 H       
  44 H44            3.5590    -0.2941     0.7835 H       
  45 H45            1.0200     2.8895    -0.5215 H       
  46 H46            3.5004     3.1315    -0.0622 H       
  47 H47            6.0550    -1.9762    -1.6590 H       
  48 H48            7.5490    -1.2584    -1.9339 H       
  49 H49            0.0156    -2.8085     0.6878 H       
  50 H50            0.0701    -2.1383     2.3363 H       
  51 H51           -1.5179    -4.0512     2.1735 H       
  52 H52           -2.3544    -2.5366     2.5929 H       
  53 H53           -3.6647    -2.0169    -0.7877 H       
  54 H54           -3.6102    -1.3467     0.8608 H       
  55 H55           -2.0767    -0.1041    -0.6249 H       
  56 H56           -1.2401    -1.6187    -1.0443 H       
  57 H57           -4.3601    -3.6419     1.7893 H       
  58 H58           -5.4409    -3.1958    -0.4431 H       
  59 H59           -4.4021    -4.2874    -2.4635 H       
  60 H60           -2.9814    -3.7506    -1.5148 H       
  61 H61           -3.7895    -6.4862    -2.1368 H       
  62 H62           -2.3688    -5.9494    -1.1881 H       
  63 H63           -2.3473    -5.6146     1.0246 H       
  64 H64           -3.7481    -5.8426     2.1165 H       
  65 H65           -4.2807    -7.3601     0.1758 H       
  66 H66           -6.0736    -5.4740     0.8205 H       
  67 H67           -6.0910    -5.7440    -0.9638 H       
  68 H68           12.2007     3.2416    -0.5908 H       
  69 H69            7.4653     2.6292     0.7590 H       
  70 H70           13.4369     5.1143     1.9199 H       
  71 H71           13.3391     3.5313     1.1119 H       
  72 H72           12.8934     5.0107     0.2282 H       
  73 H73            7.3143     4.3148     3.6742 H       
  74 H74            6.9036     4.2297     1.9444 H       
  75 H75            7.3496     2.7498     2.8271 H       
@<TRIPOS>BOND
   1    1    2 ar
   2    1    6 ar
   3    1   42 1
   4    2    3 ar
   5    2   15 1
   6    3    4 ar
   7    3   43 1
   8    4    5 ar
   9    4   44 1
  10    5    6 ar
  11    5    7 1
  12    6   45 1
  13    7    8 1
  14    7   46 1
  15    8    9 2
  16    8   10 1
  17    9   12 1
  18   10   11 2
  19   11   12 1
  20   11   14 1
  21   12   13 1
  22   13   28 ar
  23   13   32 ar
  24   14   47 1
  25   14   48 1
  26   15   16 1
  27   15   20 1
  28   16   17 1
  29   16   49 1
  30   16   50 1
  31   17   18 1
  32   17   51 1
  33   17   52 1
  34   18   19 1
  35   18   21 1
  36   19   20 1
  37   19   53 1
  38   19   54 1
  39   20   55 1
  40   20   56 1
  41   21   22 1
  42   21   25 1
  43   21   57 1
  44   22   23 1
  45   22   27 1
  46   22   58 1
  47   23   24 1
  48   23   59 1
  49   23   60 1
  50   24   26 1
  51   24   61 1
  52   24   62 1
  53   25   26 1
  54   25   63 1
  55   25   64 1
  56   26   27 1
  57   26   65 1
  58   27   66 1
  59   27   67 1
  60   28   29 ar
  61   29   30 ar
  62   29   33 1
  63   30   31 ar
  64   31   32 ar
  65   31   34 ar
  66   32   37 ar
  67   34   35 ar
  68   34   68 1
  69   35   36 ar
  70   35   38 1
  71   36   37 ar
  72   36   40 1
  73   37   69 1
  74   38   39 1
  75   39   70 1
  76   39   71 1
  77   39   72 1
  78   40   41 1
  79   41   73 1
  80   41   74 1
  81   41   75 1

#	End of record

