#	Name: ASD10160005
#	Creating user name:	WinNT
#	Creation time:	15. 06. 2019 21:25

#	Modifying user name:	WinNT
#	Modification time:	15. 06. 2019 21:25

#	Program:	/corina/corina34_cracker 3.40 0067  02.08.2006

@<TRIPOS>MOLECULE
ASD10160005
  47   52    0    0    0
SMALL
NO_CHARGES


@<TRIPOS>ATOM
   1 C1            -0.0338     1.3606    -0.0640 C.ar    
   2 C2            -0.0066    -0.0307    -0.0624 C.ar    
   3 C3            -1.1790    -0.7569    -0.0866 C.ar    
   4 C4            -2.4009    -0.1057    -0.1041 C.ar    
   5 C5            -2.4409     1.2867    -0.0965 C.ar    
   6 C6            -1.2633     2.0122    -0.0767 C.ar    
   7 O7             1.2274     1.8796    -0.0580 O.3     
   8 C8             2.1558     0.8692     0.3803 C.3     
   9 C9             1.4437    -0.4313    -0.0163 C.3     
  10 O10           -3.6813    -0.5799    -0.1288 O.3     
  11 C11           -4.5077     0.5262     0.2797 C.3     
  12 O12           -3.7473     1.6844    -0.1118 O.3     
  13 C13            1.9327    -0.9585    -1.3326 C.ar    
  14 C14            2.4113    -2.2403    -1.0710 C.ar    
  15 N15            2.2602    -2.5452     0.2839 N.am    
  16 C16            1.6989    -1.5319     0.9731 C.2     
  17 C17            1.9796    -0.4398    -2.6068 C.ar    
  18 C18            2.5047    -1.1924    -3.6427 C.ar    
  19 C19            2.9823    -2.4659    -3.3947 C.ar    
  20 C20            2.9376    -2.9904    -2.1193 C.ar    
  21 O21            1.4489    -1.5127     2.1598 O.2     
  22 C22            2.6651    -3.8180     0.8858 C.3     
  23 C23            4.1329    -3.7694     1.2236 C.ar    
  24 C24            4.5325    -3.8424     2.5444 C.ar    
  25 C25            5.8855    -3.7968     2.8446 C.ar    
  26 C26            6.7895    -3.6791     1.8002 C.ar    
  27 C27            6.3155    -3.6115     0.5036 C.ar    
  28 N28            5.0216    -3.6632     0.2549 N.ar    
  29 C29            3.5106    -3.9693     3.6448 C.3     
  30 F30            4.1636    -4.1412     4.8700 F       
  31 F31            2.7291    -2.8099     3.6915 F       
  32 F32            2.6905    -5.0747     3.3943 F       
  33 H33           -1.1438    -1.8363    -0.0923 H       
  34 H34           -1.2984     3.0916    -0.0708 H       
  35 H35            3.1072     0.9646    -0.1429 H       
  36 H36            2.2998     0.9180     1.4596 H       
  37 H37           -5.4647     0.5023    -0.2415 H       
  38 H38           -4.6580     0.5138     1.3592 H       
  39 H39            1.6059     0.5552    -2.7984 H       
  40 H40            2.5416    -0.7857    -4.6425 H       
  41 H41            3.3920    -3.0532    -4.2032 H       
  42 H42            3.3128    -3.9859    -1.9334 H       
  43 H43            2.0885    -3.9898     1.7947 H       
  44 H44            2.4813    -4.6283     0.1803 H       
  45 H45            6.2269    -3.8514     3.8678 H       
  46 H46            7.8506    -3.6403     1.9972 H       
  47 H47            7.0131    -3.5193    -0.3157 H       
@<TRIPOS>BOND
   1    1    2 ar
   2    1    7 1
   3    1    6 ar
   4    2    3 ar
   5    2    9 1
   6    3    4 ar
   7    3   33 1
   8    4    5 ar
   9    4   10 1
  10    5    6 ar
  11    5   12 1
  12    6   34 1
  13    7    8 1
  14    8    9 1
  15    8   35 1
  16    8   36 1
  17    9   13 1
  18    9   16 1
  19   10   11 1
  20   11   12 1
  21   11   37 1
  22   11   38 1
  23   13   14 ar
  24   13   17 ar
  25   14   15 1
  26   14   20 ar
  27   15   16 am
  28   15   22 1
  29   16   21 2
  30   17   18 ar
  31   17   39 1
  32   18   19 ar
  33   18   40 1
  34   19   20 ar
  35   19   41 1
  36   20   42 1
  37   22   23 1
  38   22   43 1
  39   22   44 1
  40   23   24 ar
  41   23   28 ar
  42   24   25 ar
  43   24   29 1
  44   25   26 ar
  45   25   45 1
  46   26   27 ar
  47   26   46 1
  48   27   28 ar
  49   27   47 1
  50   29   30 1
  51   29   31 1
  52   29   32 1

#	End of record

