#	Name: ASD13010006
#	Creating user name:	WinNT
#	Creation time:	15. 06. 2019 21:30

#	Modifying user name:	WinNT
#	Modification time:	15. 06. 2019 21:30

#	Program:	/corina/corina34_cracker 3.40 0067  02.08.2006

@<TRIPOS>MOLECULE
ASD13010006
  39   42    0    0    0
SMALL
NO_CHARGES


@<TRIPOS>ATOM
   1 C1            -0.0166     1.3727     0.0096 C.ar    
   2 C2             0.0021    -0.0041     0.0020 C.ar    
   3 C3             1.2064    -0.6954    -0.0132 C.ar    
   4 C4             2.3946    -0.0220    -0.0205 C.ar    
   5 C5             1.1824     2.0794     0.0019 C.ar    
   6 N6             1.4968     3.4173     0.0057 N.pl3   
   7 C7             2.4008     1.3747    -0.0130 C.ar    
   8 C8             3.4606     2.3865    -0.0181 C.2     
   9 N9             2.8878     3.5620    -0.0071 N.2     
  10 C10            0.5761     4.4633     0.0199 C.ar    
  11 S11            5.1948     2.0752    -0.0357 S.3     
  12 C12            5.8883     3.6950    -0.0345 C.ar    
  13 C13            6.1460     4.3437    -1.2368 C.ar    
  14 C14            6.1737     4.3300     1.1689 C.ar    
  15 C15            6.7171     5.6007     1.1656 C.ar    
  16 C16            6.9766     6.2408    -0.0326 C.ar    
  17 C17            6.6895     5.6143    -1.2317 C.ar    
  18 Cl18           5.7862     3.5584    -2.7426 Cl      
  19 C19           -1.2551     6.5433     0.0487 C.ar    
  20 C20           -1.5450     5.3639    -0.6447 C.ar    
  21 C21           -0.6337     4.3328    -0.6563 C.ar    
  22 C22            0.8658     5.6340     0.7151 C.ar    
  23 C23           -0.0414     6.6687     0.7317 C.ar    
  24 C24           -2.2290     7.6501     0.0633 C.2     
  25 O25           -3.2849     7.5381    -0.5275 O.2     
  26 O26           -1.9482     8.7859     0.7320 O.3     
  27 Cl27           5.8475     3.5281     2.6736 Cl      
  28 H28           -0.9579     1.9021     0.0169 H       
  29 H29           -0.9288    -0.5516     0.0083 H       
  30 H30            1.2034    -1.7754    -0.0190 H       
  31 H31            3.3265    -0.5677    -0.0316 H       
  32 H32            6.9392     6.0947     2.1000 H       
  33 H33            7.4009     7.2339    -0.0318 H       
  34 H34            6.8901     6.1189    -2.1653 H       
  35 H35           -2.4816     5.2636    -1.1729 H       
  36 H36           -0.8572     3.4215    -1.1910 H       
  37 H37            1.8034     5.7303     1.2424 H       
  38 H38            0.1857     7.5783     1.2678 H       
  39 H39           -2.6175     9.4835     0.7129 H       
@<TRIPOS>BOND
   1    1    2 ar
   2    1    5 ar
   3    1   28 1
   4    2    3 ar
   5    2   29 1
   6    3    4 ar
   7    3   30 1
   8    4    7 ar
   9    4   31 1
  10    5    7 ar
  11    5    6 1
  12    6    9 1
  13    6   10 1
  14    7    8 1
  15    8    9 2
  16    8   11 1
  17   10   22 ar
  18   10   21 ar
  19   11   12 1
  20   12   14 ar
  21   12   13 ar
  22   13   17 ar
  23   13   18 1
  24   14   15 ar
  25   14   27 1
  26   15   16 ar
  27   15   32 1
  28   16   17 ar
  29   16   33 1
  30   17   34 1
  31   19   20 ar
  32   19   23 ar
  33   19   24 1
  34   20   21 ar
  35   20   35 1
  36   21   36 1
  37   22   23 ar
  38   22   37 1
  39   23   38 1
  40   24   25 2
  41   24   26 1
  42   26   39 1

#	End of record

