#	Name: ASD13820002
#	Creating user name:	WinNT
#	Creation time:	15. 06. 2019 21:30

#	Modifying user name:	WinNT
#	Modification time:	15. 06. 2019 21:30

#	Program:	/corina/corina34_cracker 3.40 0067  02.08.2006

@<TRIPOS>MOLECULE
ASD13820002
 131  137    0    0    0
SMALL
NO_CHARGES


@<TRIPOS>ATOM
   1 C1             0.8180     1.1958     1.5654 C.3     
   2 C2             0.7607    -0.3339     1.5893 C.3     
   3 C3             0.9230    -0.8655     0.1620 C.3     
   4 C4             2.2400    -0.3421    -0.4194 C.3     
   5 C5             2.2402     1.1879    -0.3657 C.3     
   6 O6             2.0545     1.6158     0.9850 O.3     
   7 O7             4.5413     3.3782     1.1073 O.3     
   8 O8             3.4887     1.6817    -0.8548 O.3     
   9 C9             3.5129     3.0951    -1.0641 C.3     
  10 C10            4.6741     3.7095    -0.2764 C.3     
  11 C11            5.9944     3.1481    -0.8132 C.3     
  12 C12            3.7057     3.3883    -2.5543 C.3     
  13 O13            4.9657     2.8669    -2.9819 O.3     
  14 C14            6.0913     3.4393    -2.3131 C.3     
  15 O15            6.1032     4.8526    -2.5244 O.3     
  16 C16            4.2094     6.5563    -3.5045 C.3     
  17 C17            5.5946     6.5692    -4.1541 C.3     
  18 C18            6.3051     5.2350    -3.8864 C.3     
  19 C19            7.7800     5.3900    -4.1511 C.2     
  20 C20            6.4248     7.6690    -3.5562 C.2     
  21 C21            8.6676     5.0502    -3.2463 C.2     
  22 C22           10.1352     5.1885    -3.5547 C.3     
  23 C23           10.4677     7.5866    -2.9601 C.3     
  24 C24           10.8082     6.1487    -2.5708 C.3     
  25 O25           12.2256     5.9582    -2.6403 O.3     
  26 C26           11.2140     8.5573    -2.0433 C.3     
  27 C27           12.7121     8.2576    -2.0899 C.3     
  28 C28           12.9832     6.7899    -1.7612 C.3     
  29 C29           13.0444     5.2414     0.0634 C.3     
  30 O30           12.6156     6.5221    -0.4075 O.3     
  31 C31           14.4508     6.5126    -1.9532 C.2     
  32 C32           15.1554     5.8177    -1.1121 C.2     
  33 C33           14.5711     5.2195     0.1350 C.3     
  34 C34            6.2025     8.9581    -3.8036 C.2     
  35 C35            7.1233     9.9038    -3.1594 C.2     
  36 C36            9.8719    10.5454    -2.1940 C.2     
  37 O37           10.9998     9.9079    -2.5371 O.3     
  38 C38            7.0482    11.2197    -3.2587 C.2     
  39 C39            8.0432    12.1781    -2.6465 C.3     
  40 C40            9.5035    11.8230    -2.8940 C.3     
  41 C41            7.8085    13.4789    -3.4652 C.3     
  42 C42            8.4516    14.5983    -2.6733 C.3     
  43 C43            9.8618    14.1942    -2.3181 C.2     
  44 C44           10.3400    12.9851    -2.4032 C.2     
  45 C45            6.0544    12.1257    -3.9644 C.3     
  46 O46            6.3973    13.4968    -3.6312 O.3     
  47 C47           10.7904    15.2746    -1.8266 C.3     
  48 C48           12.4630     4.9872     1.4556 C.3     
  49 C49           12.8305     6.1484     2.3816 C.3     
  50 C50           10.9403     4.8738     1.3595 C.3     
  51 O51            0.9443    -2.2942     0.1835 O.3     
  52 C52            0.4252    -2.9011    -1.0015 C.3     
  53 C53            5.0824     4.3592     1.9944 C.3     
  54 C54            8.2479     5.9466    -5.4730 C.3     
  55 O55            9.1571    10.0964    -1.3295 O.2     
  56 C56            0.7168     1.7326     2.9946 C.3     
  57 C57            2.5817     2.7267    -3.3541 C.3     
  58 O58            8.4776    15.7903    -3.4609 O.3     
  59 C59           15.0511     3.7737     0.2772 C.3     
  60 O60            7.7855    12.3755    -1.2588 O.3     
  61 O61           -0.4987    -0.7564     2.1160 O.3     
  62 H62           -0.0114     1.5814     0.9725 H       
  63 H63            1.5659    -0.7188     2.2151 H       
  64 H64            0.0910    -0.5212    -0.4522 H       
  65 H65            3.0750    -0.7272     0.1658 H       
  66 H66            2.3373    -0.6703    -1.4543 H       
  67 H67            1.4295     1.5734    -0.9840 H       
  68 H68            2.5721     3.5295    -0.7261 H       
  69 H69            4.6621     4.7930    -0.3947 H       
  70 H70            6.8287     3.6215    -0.2956 H       
  71 H71            6.0260     2.0711    -0.6485 H       
  72 H72            3.6836     4.4656    -2.7186 H       
  73 H73            7.0092     3.0049    -2.7091 H       
  74 H74            3.7182     7.5139    -3.6769 H       
  75 H75            3.6107     5.7570    -3.9413 H       
  76 H76            4.3124     6.3887    -2.4324 H       
  77 H77            5.4957     6.7252    -5.2283 H       
  78 H78            5.8966     4.4674    -4.5437 H       
  79 H79            7.2410     7.4084    -2.8864 H       
  80 H80            8.3486     4.6698    -2.2874 H       
  81 H81           10.6105     4.2102    -3.4833 H       
  82 H82           10.2543     5.5714    -4.5682 H       
  83 H83           10.7648     7.7627    -3.9939 H       
  84 H84            9.3940     7.7452    -2.8595 H       
  85 H85           10.4589     5.9373    -1.5622 H       
  86 H86           10.8483     8.4699    -1.0241 H       
  87 H87           13.0908     8.4774    -3.0881 H       
  88 H88           13.2267     8.8884    -1.3651 H       
  89 H89           12.7008     4.4670    -0.6225 H       
  90 H90           14.9397     6.9093    -2.8307 H       
  91 H91           16.2043     5.6636    -1.3182 H       
  92 H92           14.9003     5.7957     0.9997 H       
  93 H93            5.4051     9.2882    -4.4392 H       
  94 H94            7.9253     9.4919    -2.5395 H       
  95 H95            9.6586    11.6962    -3.9710 H       
  96 H96            8.2911    13.3926    -4.4413 H       
  97 H97            7.8811    14.7768    -1.7618 H       
  98 H98           11.3653    12.8065    -2.1147 H       
  99 H99            6.1212    11.9793    -5.0424 H       
 100 H100           5.0437    11.9036    -3.6221 H       
 101 H101          10.7178    15.3501    -0.7416 H       
 102 H102          11.8147    15.0281    -2.1060 H       
 103 H103          10.5101    16.2269    -2.2767 H       
 104 H104          12.8719     4.0596     1.8563 H       
 105 H105          12.4216     7.0760     1.9810 H       
 106 H106          12.4163     5.9673     3.3734 H       
 107 H107          13.9153     6.2292     2.4501 H       
 108 H108          10.6783     4.0264     0.7259 H       
 109 H109          10.5234     4.7252     2.3556 H       
 110 H110          10.5342     5.7889     0.9285 H       
 111 H111           1.0156    -2.5836    -1.8609 H       
 112 H112           0.4762    -3.9858    -0.9064 H       
 113 H113          -0.6122    -2.5970    -1.1409 H       
 114 H114           4.9422     4.0337     3.0252 H       
 115 H115           6.1467     4.4826     1.7939 H       
 116 H116           4.5712     5.3095     1.8407 H       
 117 H117           7.3854     6.1451    -6.1093 H       
 118 H118           8.7955     6.8737    -5.3035 H       
 119 H119           8.9007     5.2230    -5.9613 H       
 120 H120           1.5466     1.3472     3.5870 H       
 121 H121           0.7576     2.8217     2.9774 H       
 122 H122          -0.2259     1.4113     3.4375 H       
 123 H123           1.6187     3.0948    -3.0003 H       
 124 H124           2.6970     2.9681    -4.4108 H       
 125 H125           2.6287     1.6459    -3.2211 H       
 126 H126           8.8773    16.5487    -3.0135 H       
 127 H127          14.6429     3.1737    -0.5362 H       
 128 H128          16.1401     3.7468     0.2374 H       
 129 H129          14.7123     3.3706     1.2315 H       
 130 H130           7.8539    11.5703    -0.7277 H       
 131 H131          -0.6707    -0.4507     3.0171 H       
@<TRIPOS>BOND
   1    1    2 1
   2    1    6 1
   3    1   56 1
   4    1   62 1
   5    2    3 1
   6    2   61 1
   7    2   63 1
   8    3    4 1
   9    3   51 1
  10    3   64 1
  11    4    5 1
  12    4   65 1
  13    4   66 1
  14    5    8 1
  15    5    6 1
  16    5   67 1
  17    7   53 1
  18    7   10 1
  19    8    9 1
  20    9   12 1
  21    9   10 1
  22    9   68 1
  23   10   11 1
  24   10   69 1
  25   11   14 1
  26   11   70 1
  27   11   71 1
  28   12   13 1
  29   12   57 1
  30   12   72 1
  31   13   14 1
  32   14   15 1
  33   14   73 1
  34   15   18 1
  35   16   17 1
  36   16   74 1
  37   16   75 1
  38   16   76 1
  39   17   20 1
  40   17   18 1
  41   17   77 1
  42   18   19 1
  43   18   78 1
  44   19   21 2
  45   19   54 1
  46   20   34 2
  47   20   79 1
  48   21   22 1
  49   21   80 1
  50   22   24 1
  51   22   81 1
  52   22   82 1
  53   23   24 1
  54   23   26 1
  55   23   83 1
  56   23   84 1
  57   24   25 1
  58   24   85 1
  59   25   28 1
  60   26   27 1
  61   26   37 1
  62   26   86 1
  63   27   28 1
  64   27   87 1
  65   27   88 1
  66   28   30 1
  67   28   31 1
  68   29   30 1
  69   29   33 1
  70   29   48 1
  71   29   89 1
  72   31   32 2
  73   31   90 1
  74   32   33 1
  75   32   91 1
  76   33   59 1
  77   33   92 1
  78   34   35 1
  79   34   93 1
  80   35   38 2
  81   35   94 1
  82   36   37 1
  83   36   55 2
  84   36   40 1
  85   38   45 1
  86   38   39 1
  87   39   41 1
  88   39   60 1
  89   39   40 1
  90   40   44 1
  91   40   95 1
  92   41   42 1
  93   41   46 1
  94   41   96 1
  95   42   43 1
  96   42   58 1
  97   42   97 1
  98   43   44 2
  99   43   47 1
 100   44   98 1
 101   45   46 1
 102   45   99 1
 103   45  100 1
 104   47  101 1
 105   47  102 1
 106   47  103 1
 107   48   49 1
 108   48   50 1
 109   48  104 1
 110   49  105 1
 111   49  106 1
 112   49  107 1
 113   50  108 1
 114   50  109 1
 115   50  110 1
 116   51   52 1
 117   52  111 1
 118   52  112 1
 119   52  113 1
 120   53  114 1
 121   53  115 1
 122   53  116 1
 123   54  117 1
 124   54  118 1
 125   54  119 1
 126   56  120 1
 127   56  121 1
 128   56  122 1
 129   57  123 1
 130   57  124 1
 131   57  125 1
 132   58  126 1
 133   59  127 1
 134   59  128 1
 135   59  129 1
 136   60  130 1
 137   61  131 1

#	End of record

