#	Name: ASD10160024
#	Creating user name:	WinNT
#	Creation time:	15. 06. 2019 21:25

#	Modifying user name:	WinNT
#	Modification time:	15. 06. 2019 21:25

#	Program:	/corina/corina34_cracker 3.40 0067  02.08.2006

@<TRIPOS>MOLECULE
ASD10160024
  34   35    0    0    0
SMALL
NO_CHARGES


@<TRIPOS>ATOM
   1 C1             0.0736     1.0305    -1.4445 C.ar    
   2 C2             0.0501    -0.1971    -0.7748 C.ar    
   3 C3             1.2903     1.6952    -1.6357 C.ar    
   4 C4             2.4611     1.1365    -1.1628 C.ar    
   5 C5             2.4322    -0.0820    -0.4989 C.ar    
   6 C6             1.2232    -0.7467    -0.3065 C.ar    
   7 C7            -1.1787     1.6198    -1.9529 C.2     
   8 N8            -2.3486     0.9753    -1.7725 N.am    
   9 O9            -1.1561     2.6872    -2.5349 O.2     
  10 S10           -3.7552     1.6370    -2.3434 S.o2    
  11 O11           -4.7609     0.7114    -1.9549 O.2     
  12 O12           -3.7477     2.9653    -1.8387 O.2     
  13 O13            3.5855    -0.6277    -0.0355 O.3     
  14 C14            4.7264     0.1021    -0.1471 C.ar    
  15 F15            1.2012    -1.9327     0.3401 F       
  16 C16            5.1017     0.9840     0.8619 C.ar    
  17 C17            5.5368    -0.0257    -1.2659 C.ar    
  18 N18            6.6447     0.6800    -1.3781 N.ar    
  19 C19            7.0260     1.5276    -0.4428 C.ar    
  20 C20            6.2735     1.7057     0.7033 C.ar    
  21 F21            1.3192     2.8810    -2.2823 F       
  22 N22            8.2797     2.2944    -0.6196 N.pl3   
  23 O23            8.9514     2.1402    -1.6238 O.2     
  24 O24            8.6396     3.0795     0.2392 O.2     
  25 C25           -3.5549     1.6400    -4.1463 C.3     
  26 H26           -0.8866    -0.7133    -0.6247 H       
  27 H27            3.4008     1.6482    -1.3100 H       
  28 H28           -2.3666     0.1238    -1.3082 H       
  29 H29            4.4942     1.1030     1.7469 H       
  30 H30            5.2573    -0.7104    -2.0529 H       
  31 H31            6.5934     2.4021     1.4642 H       
  32 H32           -3.4139     0.6179    -4.4979 H       
  33 H33           -4.4454     2.0642    -4.6101 H       
  34 H34           -2.6849     2.2396    -4.4142 H       
@<TRIPOS>BOND
   1    1    2 ar
   2    1    3 ar
   3    1    7 1
   4    2    6 ar
   5    2   26 1
   6    3    4 ar
   7    3   21 1
   8    4    5 ar
   9    4   27 1
  10    5    6 ar
  11    5   13 1
  12    6   15 1
  13    7    8 am
  14    7    9 2
  15    8   10 am
  16    8   28 1
  17   10   11 2
  18   10   12 2
  19   10   25 1
  20   13   14 1
  21   14   16 ar
  22   14   17 ar
  23   16   20 ar
  24   16   29 1
  25   17   18 ar
  26   17   30 1
  27   18   19 ar
  28   19   20 ar
  29   19   22 1
  30   20   31 1
  31   22   23 2
  32   22   24 2
  33   25   32 1
  34   25   33 1
  35   25   34 1

#	End of record

