#	Name: ASD10160116
#	Creating user name:	WinNT
#	Creation time:	15. 06. 2019 21:25

#	Modifying user name:	WinNT
#	Modification time:	15. 06. 2019 21:25

#	Program:	/corina/corina34_cracker 3.40 0067  02.08.2006

@<TRIPOS>MOLECULE
ASD10160116
  45   46    0    0    0
SMALL
NO_CHARGES


@<TRIPOS>ATOM
   1 C1             1.7582    -1.5530     3.5523 C.ar    
   2 C2             1.3247    -2.1577     2.3687 C.ar    
   3 C3             2.8133    -0.6333     3.5176 C.ar    
   4 C4             3.4200    -0.3284     2.3159 C.ar    
   5 C5             2.9849    -0.9325     1.1436 C.ar    
   6 C6             1.9363    -1.8471     1.1745 C.ar    
   7 C7             1.1023    -1.8780     4.8322 C.2     
   8 N8             0.0831    -2.7594     4.8623 N.am    
   9 O9             1.4809    -1.3509     5.8605 O.2     
  10 S10           -0.6536    -3.1245     6.2998 S.o2    
  11 O11           -1.6414    -4.0854     5.9532 O.2     
  12 O12            0.4199    -3.4581     7.1690 O.2     
  13 O13            3.5837    -0.6297    -0.0360 O.3     
  14 C14            4.6726     0.1843    -0.0087 C.ar    
  15 C15            5.9484    -0.3504     0.1479 C.ar    
  16 C16            4.5266     1.5559    -0.1421 C.ar    
  17 N17            5.5785     2.3519    -0.1170 N.ar    
  18 C18            6.8041     1.8793     0.0350 C.ar    
  19 C19            7.0277     0.5156     0.1696 C.ar    
  20 C20            8.4277    -0.0146     0.3425 C.3     
  21 O21            7.8563     2.7369     0.0543 O.3     
  22 F22            3.2365    -0.0453     4.6579 F       
  23 Cl23           1.3985    -2.5984    -0.2952 Cl      
  24 C24            7.5627     4.1275    -0.0946 C.3     
  25 C25            8.8637     4.9313    -0.0482 C.3     
  26 C26            9.7831     4.4796    -1.1847 C.3     
  27 F27            9.1466     4.6930    -2.4121 F       
  28 F28           10.9727     5.2146    -1.1423 F       
  29 F29            8.5763     6.2926    -0.1939 F       
  30 F30            9.5002     4.7178     1.1792 F       
  31 F31            8.3880    -1.4084     0.4553 F       
  32 F32            9.2016     0.3415    -0.7673 F       
  33 F33            8.9934     0.5311     1.4998 F       
  34 C34           -1.4319    -1.5697     6.8173 C.3     
  35 H35            0.5113    -2.8679     2.3909 H       
  36 H36            4.2338     0.3810     2.2873 H       
  37 H37           -0.2189    -3.1799     4.0420 H       
  38 H38            6.0924    -1.4158     0.2504 H       
  39 H39            3.5406     1.9781    -0.2684 H       
  40 H40            7.0668     4.2938    -1.0509 H       
  41 H41            6.9077     4.4493     0.7151 H       
  42 H42           10.0070     3.4189    -1.0712 H       
  43 H43           -2.1501    -1.2535     6.0607 H       
  44 H44           -1.9463    -1.7192     7.7666 H       
  45 H45           -0.6670    -0.8022     6.9354 H       
@<TRIPOS>BOND
   1    1    2 ar
   2    1    3 ar
   3    1    7 1
   4    2    6 ar
   5    2   35 1
   6    3    4 ar
   7    3   22 1
   8    4    5 ar
   9    4   36 1
  10    5    6 ar
  11    5   13 1
  12    6   23 1
  13    7    8 am
  14    7    9 2
  15    8   10 am
  16    8   37 1
  17   10   11 2
  18   10   12 2
  19   10   34 1
  20   13   14 1
  21   14   15 ar
  22   14   16 ar
  23   15   19 ar
  24   15   38 1
  25   16   17 ar
  26   16   39 1
  27   17   18 ar
  28   18   19 ar
  29   18   21 1
  30   19   20 1
  31   20   31 1
  32   20   32 1
  33   20   33 1
  34   21   24 1
  35   24   25 1
  36   24   40 1
  37   24   41 1
  38   25   26 1
  39   25   29 1
  40   25   30 1
  41   26   27 1
  42   26   28 1
  43   26   42 1
  44   34   43 1
  45   34   44 1
  46   34   45 1

#	End of record

