#	Name: ASD10160489
#	Creating user name:	WinNT
#	Creation time:	15. 06. 2019 21:26

#	Modifying user name:	WinNT
#	Modification time:	15. 06. 2019 21:26

#	Program:	/corina/corina34_cracker 3.40 0067  02.08.2006

@<TRIPOS>MOLECULE
ASD10160489
  36   37    0    0    0
SMALL
NO_CHARGES


@<TRIPOS>ATOM
   1 C1            -0.0188     1.5336     0.0105 C.3     
   2 C2             0.0348    -0.0033     0.0046 C.3     
   3 C3             1.4195     0.1208     0.6618 C.3     
   4 C4             1.5188     1.5088     0.0073 C.3     
   5 C5            -0.6156     2.1216    -1.2421 C.2     
   6 O6            -0.9290     1.3994    -2.1587 O.2     
   7 O7            -0.7991     3.4477    -1.3396 O.3     
   8 F8             1.3747     0.1622     2.0595 F       
   9 F9             2.3557    -0.7972     0.1739 F       
  10 C10           -0.6106     2.1122     1.2698 C.ar    
  11 C11           -1.9416     1.8815     1.5687 C.ar    
  12 C12           -2.4759     2.4191     2.7308 C.ar    
  13 C13           -1.6486     3.1708     3.5511 C.ar    
  14 C14           -0.3289     3.3584     3.1867 C.ar    
  15 N15            0.1472     2.8280     2.0771 N.ar    
  16 Cl16          -2.9304     0.9323     0.5033 Cl      
  17 C17           -1.3788     3.9440    -2.5749 C.3     
  18 C18           -2.7621     3.3217    -2.7752 C.3     
  19 C19           -1.5103     5.4665    -2.5010 C.3     
  20 C20           -0.4747     3.5666    -3.7501 C.3     
  21 H21           -0.7131    -0.4687     0.6465 H       
  22 H22            0.0634    -0.4354    -0.9957 H       
  23 H23            1.9532     1.4901    -0.9922 H       
  24 H24            1.9690     2.2641     0.6515 H       
  25 H25           -3.5116     2.2562     2.9901 H       
  26 H26           -2.0309     3.6046     4.4632 H       
  27 H27            0.3216     3.9430     3.8204 H       
  28 H28           -3.4062     3.5906    -1.9380 H       
  29 H29           -3.1972     3.6943    -3.7026 H       
  30 H30           -2.6684     2.2370    -2.8279 H       
  31 H31           -0.5248     5.9099    -2.3583 H       
  32 H32           -1.9454     5.8391    -3.4284 H       
  33 H33           -2.1544     5.7354    -1.6637 H       
  34 H34           -0.3811     2.4819    -3.8028 H       
  35 H35           -0.9099     3.9392    -4.6775 H       
  36 H36            0.5107     4.0099    -3.6074 H       
@<TRIPOS>BOND
   1    1    2 1
   2    1    4 1
   3    1    5 1
   4    1   10 1
   5    2    3 1
   6    2   21 1
   7    2   22 1
   8    3    4 1
   9    3    8 1
  10    3    9 1
  11    4   23 1
  12    4   24 1
  13    5    6 2
  14    5    7 1
  15    7   17 1
  16   10   11 ar
  17   10   15 ar
  18   11   12 ar
  19   11   16 1
  20   12   13 ar
  21   12   25 1
  22   13   14 ar
  23   13   26 1
  24   14   15 ar
  25   14   27 1
  26   17   18 1
  27   17   20 1
  28   17   19 1
  29   18   28 1
  30   18   29 1
  31   18   30 1
  32   19   31 1
  33   19   32 1
  34   19   33 1
  35   20   34 1
  36   20   35 1
  37   20   36 1

#	End of record

