#	Name: ASD10160196
#	Creating user name:	WinNT
#	Creation time:	15. 06. 2019 21:25

#	Modifying user name:	WinNT
#	Modification time:	15. 06. 2019 21:25

#	Program:	/corina/corina34_cracker 3.40 0067  02.08.2006

@<TRIPOS>MOLECULE
ASD10160196
  36   37    0    0    0
SMALL
NO_CHARGES


@<TRIPOS>ATOM
   1 C1            -0.0331     1.4701     0.0134 C.2     
   2 C2            -0.0092    -0.0043     0.0044 C.ar    
   3 C3             1.2058    -0.6858    -0.1325 C.ar    
   4 C4             1.2230    -2.0662    -0.1398 C.ar    
   5 C5             0.0379    -2.7777    -0.0116 C.ar    
   6 C6            -1.1728    -2.1035     0.1248 C.ar    
   7 C7            -1.1992    -0.7257     0.1385 C.ar    
   8 O8             1.0036     2.0957    -0.0984 O.2     
   9 N9            -1.2047     2.1243     0.1398 N.am    
  10 S10           -1.2316     3.7800     0.1498 S.o2    
  11 O11           -2.6037     4.1071     0.3218 O.2     
  12 O12           -0.2646     4.1403     1.1266 O.2     
  13 C13           -0.6678     4.2519    -1.5085 C.3     
  14 F14           -2.3229    -2.8013     0.2488 F       
  15 F15            2.3594     0.0060    -0.2578 F       
  16 O16            0.0593    -4.1351    -0.0197 O.3     
  17 C17           -0.1520    -4.7684    -1.2008 C.ar    
  18 C18           -0.0378    -6.1542    -1.2683 C.ar    
  19 C19           -0.2551    -6.7943    -2.4760 C.ar    
  20 C20           -0.5814    -6.0270    -3.5843 C.ar    
  21 C21           -0.6796    -4.6442    -3.4479 C.ar    
  22 N22           -0.4689    -4.0640    -2.2709 N.ar    
  23 C23           -0.1391    -8.2929    -2.5846 C.3     
  24 C24           -1.0158    -3.8412    -4.5849 C.1     
  25 N25           -1.2825    -3.2042    -5.4869 N.1     
  26 H26            2.1597    -2.5932    -0.2458 H       
  27 H27           -2.1384    -0.2040     0.2489 H       
  28 H28           -2.0321     1.6252     0.2249 H       
  29 H29           -1.3466     3.8384    -2.2544 H       
  30 H30           -0.6544     5.3386    -1.5922 H       
  31 H31            0.3364     3.8623    -1.6754 H       
  32 H32            0.2182    -6.7240    -0.3873 H       
  33 H33           -0.7568    -6.4958    -4.5413 H       
  34 H34           -1.1086    -8.7480    -2.3816 H       
  35 H35            0.1843    -8.5604    -3.5905 H       
  36 H36            0.5907    -8.6543    -1.8601 H       
@<TRIPOS>BOND
   1    1    2 1
   2    1    8 2
   3    1    9 am
   4    2    3 ar
   5    2    7 ar
   6    3    4 ar
   7    3   15 1
   8    4    5 ar
   9    4   26 1
  10    5    6 ar
  11    5   16 1
  12    6    7 ar
  13    6   14 1
  14    7   27 1
  15    9   10 am
  16    9   28 1
  17   10   11 2
  18   10   12 2
  19   10   13 1
  20   13   29 1
  21   13   30 1
  22   13   31 1
  23   16   17 1
  24   17   18 ar
  25   17   22 ar
  26   18   19 ar
  27   18   32 1
  28   19   20 ar
  29   19   23 1
  30   20   21 ar
  31   20   33 1
  32   21   22 ar
  33   21   24 1
  34   23   34 1
  35   23   35 1
  36   23   36 1
  37   24   25 3

#	End of record

