#	Name: ASD15080002
#	Creating user name:	WinNT
#	Creation time:	15. 06. 2019 21:31

#	Modifying user name:	WinNT
#	Modification time:	15. 06. 2019 21:31

#	Program:	/corina/corina34_cracker 3.40 0067  02.08.2006

@<TRIPOS>MOLECULE
ASD15080002
  42   44    0    0    0
SMALL
NO_CHARGES


@<TRIPOS>ATOM
   1 C1             0.1701     1.7478    -0.2732 C.ar    
   2 N2             0.2643     0.5577     0.3008 N.ar    
   3 C3             1.4325    -0.0372     0.4585 C.ar    
   4 N4             2.5571     0.5114     0.0591 N.ar    
   5 C5             1.3572     2.3903    -0.7259 C.ar    
   6 C6             1.5252     3.6283    -1.3542 C.2     
   7 C7             2.5684     1.7115    -0.5320 C.ar    
   8 S8             3.8919     2.6825    -1.1625 S.3     
   9 C9             2.7878     3.9533    -1.6599 C.2     
  10 C10            0.3632     4.5356    -1.6667 C.3     
  11 C11            3.1926     5.1999    -2.3209 C.2     
  12 O12            2.3533     6.0247    -2.6306 O.2     
  13 N13            4.4940     5.4309    -2.5848 N.am    
  14 N14           -1.0601     2.3529    -0.4350 N.pl3   
  15 C15           -2.2317     1.6562    -0.1102 C.ar    
  16 C16           -4.5647     1.6612     0.4717 C.ar    
  17 C17           -4.5482     0.2778     0.5320 C.ar    
  18 C18           -3.3771    -0.4150     0.2775 C.ar    
  19 C19           -2.2203     0.2711    -0.0426 C.ar    
  20 C20           -3.4092     2.3540     0.1511 C.ar    
  21 O21           -3.4235     3.7125     0.0919 O.3     
  22 C22           -4.6894     4.3556     0.2536 C.3     
  23 C23           -4.9847     4.5328     1.7443 C.3     
  24 C24           -4.6557     5.7259    -0.4261 C.3     
  25 F25           -5.6762    -0.3968     0.8448 F       
  26 H26            1.4644    -1.0074     0.9320 H       
  27 H27            0.1082     5.1176    -0.7810 H       
  28 H28            0.6368     5.2100    -2.4782 H       
  29 H29           -0.4958     3.9356    -1.9669 H       
  30 H30            5.1631     4.7734    -2.3379 H       
  31 H31            4.7615     6.2547    -3.0216 H       
  32 H32           -1.1134     3.2603    -0.7736 H       
  33 H33           -5.4796     2.1996     0.6703 H       
  34 H34           -3.3679    -1.4939     0.3258 H       
  35 H35           -1.3078    -0.2717    -0.2404 H       
  36 H36           -5.4685     3.7436    -0.2010 H       
  37 H37           -5.0087     3.5565     2.2285 H       
  38 H38           -4.2056     5.1447     2.1988 H       
  39 H39           -5.9503     5.0233     1.8676 H       
  40 H40           -4.4453     5.5997    -1.4881 H       
  41 H41           -5.6213     6.2165    -0.3028 H       
  42 H42           -3.8766     6.3379     0.0284 H       
@<TRIPOS>BOND
   1    1    2 ar
   2    1    5 ar
   3    1   14 1
   4    2    3 ar
   5    3    4 ar
   6    3   26 1
   7    4    7 ar
   8    5    7 ar
   9    5    6 1
  10    6    9 2
  11    6   10 1
  12    7    8 1
  13    8    9 1
  14    9   11 1
  15   10   27 1
  16   10   28 1
  17   10   29 1
  18   11   12 2
  19   11   13 am
  20   13   30 1
  21   13   31 1
  22   14   15 1
  23   14   32 1
  24   15   20 ar
  25   15   19 ar
  26   16   17 ar
  27   16   20 ar
  28   16   33 1
  29   17   18 ar
  30   17   25 1
  31   18   19 ar
  32   18   34 1
  33   19   35 1
  34   20   21 1
  35   21   22 1
  36   22   23 1
  37   22   24 1
  38   22   36 1
  39   23   37 1
  40   23   38 1
  41   23   39 1
  42   24   40 1
  43   24   41 1
  44   24   42 1

#	End of record

