#	Name: ASD10160257
#	Creating user name:	WinNT
#	Creation time:	15. 06. 2019 21:25

#	Modifying user name:	WinNT
#	Modification time:	15. 06. 2019 21:25

#	Program:	/corina/corina34_cracker 3.40 0067  02.08.2006

@<TRIPOS>MOLECULE
ASD10160257
  39   41    0    0    0
SMALL
NO_CHARGES


@<TRIPOS>ATOM
   1 C1             0.0380     1.4724     0.0013 C.2     
   2 C2             0.0433    -0.0040    -0.0055 C.ar    
   3 C3             1.2440    -0.6959    -0.1534 C.ar    
   4 C4             1.2432    -2.0885    -0.1590 C.ar    
   5 C5             0.0323    -2.7853    -0.0156 C.ar    
   6 C6            -1.1581    -2.0855     0.1311 C.ar    
   7 C7            -1.1563    -0.7084     0.1424 C.ar    
   8 O8             1.0812     2.0846    -0.1222 O.2     
   9 N9            -1.1238     2.1415     0.1387 N.am    
  10 S10           -1.1297     3.7975     0.1463 S.o2    
  11 O11           -2.4957     4.1422     0.3320 O.2     
  12 O12           -0.1480     4.1470     1.1124 O.2     
  13 C13           -0.5772     4.2597    -1.5185 C.3     
  14 O14            0.0255    -4.1405    -0.0209 O.3     
  15 C15            0.7763    -4.6192     3.4055 C.ar    
  16 N16            0.5476    -4.0705     2.2353 N.ar    
  17 C17            0.2479    -4.7834     1.1537 C.ar    
  18 C18            0.1572    -6.1479     1.1938 C.ar    
  19 C19            0.3893    -6.8028     2.4149 C.ar    
  20 C20            0.3154    -8.1983     2.5402 C.ar    
  21 C21            0.5504    -8.7760     3.7508 C.ar    
  22 C22            0.8632    -8.0023     4.8674 C.ar    
  23 C23            0.9436    -6.6457     4.7830 C.ar    
  24 C24            0.7078    -6.0137     3.5516 C.ar    
  25 C25            2.4723    -2.8073    -0.3109 C.1     
  26 N26            3.4474    -3.3776    -0.4315 N.1     
  27 H27            2.1717    -0.1540    -0.2636 H       
  28 H28           -2.0882    -2.6232     0.2412 H       
  29 H29           -2.0851    -0.1702     0.2613 H       
  30 H30           -1.9565     1.6531     0.2332 H       
  31 H31           -1.2688     3.8537    -2.2567 H       
  32 H32           -0.5509     5.3460    -1.6041 H       
  33 H33            0.4202     3.8571    -1.6952 H       
  34 H34            1.0208    -3.9983     4.2548 H       
  35 H35           -0.0882    -6.7102     0.3049 H       
  36 H36            0.0736    -8.8096     1.6832 H       
  37 H37            0.4931    -9.8502     3.8475 H       
  38 H38            1.0445    -8.4869     5.8154 H       
  39 H39            1.1867    -6.0599     5.6571 H       
@<TRIPOS>BOND
   1    1    2 1
   2    1    8 2
   3    1    9 am
   4    2    3 ar
   5    2    7 ar
   6    3    4 ar
   7    3   27 1
   8    4    5 ar
   9    4   25 1
  10    5    6 ar
  11    5   14 1
  12    6    7 ar
  13    6   28 1
  14    7   29 1
  15    9   10 am
  16    9   30 1
  17   10   11 2
  18   10   12 2
  19   10   13 1
  20   13   31 1
  21   13   32 1
  22   13   33 1
  23   14   17 1
  24   15   16 ar
  25   15   24 ar
  26   15   34 1
  27   16   17 ar
  28   17   18 ar
  29   18   19 ar
  30   18   35 1
  31   19   20 ar
  32   19   24 ar
  33   20   21 ar
  34   20   36 1
  35   21   22 ar
  36   21   37 1
  37   22   23 ar
  38   22   38 1
  39   23   24 ar
  40   23   39 1
  41   25   26 3

#	End of record

