#	Name: ASD13920001
#	Creating user name:	WinNT
#	Creation time:	15. 06. 2019 21:30

#	Modifying user name:	WinNT
#	Modification time:	15. 06. 2019 21:30

#	Program:	/corina/corina34_cracker 3.40 0067  02.08.2006

@<TRIPOS>MOLECULE
ASD13920001
  73   76    0    0    0
SMALL
NO_CHARGES


@<TRIPOS>ATOM
   1 O1             0.9387    -0.1631    -0.1514 O.2     
   2 O2             0.1231     4.3295     0.5749 O.2     
   3 O3             1.6262     6.5395    -1.4027 O.2     
   4 N4             0.0262     1.8546    -0.2876 N.am    
   5 N5             2.2983     4.6949     0.3363 N.am    
   6 N6             2.9493    -0.2293    -4.0784 N.2     
   7 N7             1.6044     8.2987    -0.0511 N.am    
   8 N8             1.2070     0.0082    -5.5914 N.pl3   
   9 N9             2.5653    -1.9478    -5.5885 N.pl3   
  10 C10           -1.4201    -0.1511    -0.2248 C.3     
  11 C11           -3.6071    -0.3351     0.9692 C.3     
  12 C12           -3.5302    -0.4686    -1.5245 C.3     
  13 C13           -2.6192    -2.3416    -0.1446 C.3     
  14 C14           -1.2451    -1.6686    -0.1382 C.3     
  15 C15           -2.1562     0.2044    -1.5182 C.3     
  16 C16           -2.2331     0.3379     0.9755 C.3     
  17 C17           -4.3431     0.0204    -0.3242 C.3     
  18 C18           -3.4321    -1.8526     1.0558 C.3     
  19 C19           -3.3552    -1.9861    -1.4379 C.3     
  20 C20           -0.0668     0.5118    -0.2186 C.2     
  21 C21            1.3419     2.4990    -0.2815 C.3     
  22 C22            1.8993     2.5338    -1.7059 C.3     
  23 C23            1.2095     3.9064     0.2407 C.2     
  24 C24            2.1509     1.1045    -2.1902 C.3     
  25 C25            2.7083     1.1393    -3.6147 C.3     
  26 C26            2.1696     6.0631     0.8440 C.3     
  27 C27            3.5067     6.5162     1.4336 C.3     
  28 C28            1.7806     6.9831    -0.2845 C.2     
  29 C29            3.8358     5.6732     2.6386 C.ar    
  30 C30            2.2532    -0.7141    -5.0681 C.2     
  31 C31            4.5612     4.5061     2.4884 C.ar    
  32 C32            3.4172     6.0700     3.8949 C.ar    
  33 C33            4.8630     3.7328     3.5937 C.ar    
  34 C34            3.7191     5.2967     5.0002 C.ar    
  35 C35            4.4399     4.1268     4.8494 C.ar    
  36 H36           -4.1863     0.0132     1.8244 H       
  37 H37           -4.0546    -0.2153    -2.4459 H       
  38 H38           -2.4945    -3.4227    -0.0828 H       
  39 H39           -0.6660    -2.0170    -0.9934 H       
  40 H40           -0.7208    -1.9219     0.7832 H       
  41 H41           -2.2808     1.2855    -1.5799 H       
  42 H42           -1.7087     0.0846     1.8970 H       
  43 H43           -2.3577     1.4190     0.9138 H       
  44 H44           -1.5770    -0.1440    -2.3733 H       
  45 H45           -5.3220    -0.4591    -0.3287 H       
  46 H46           -4.4678     1.1015    -0.3859 H       
  47 H47           -2.9077    -2.1059     1.9772 H       
  48 H48           -4.4110    -2.3321     1.0513 H       
  49 H49           -4.3341    -2.4656    -1.4424 H       
  50 H50           -2.7760    -2.3345    -2.2931 H       
  51 H51           -0.7778     2.3941    -0.3453 H       
  52 H52            2.0194     1.9356     0.3601 H       
  53 H53            1.1804     3.0197    -2.3656 H       
  54 H54            2.8360     3.0911    -1.7160 H       
  55 H55            2.8698     0.6186    -1.5305 H       
  56 H56            1.2142     0.5472    -2.1802 H       
  57 H57            3.1672     4.3565     0.0691 H       
  58 H58            3.6451     1.6966    -3.6247 H       
  59 H59            1.9894     1.6252    -4.2743 H       
  60 H60            1.4025     6.0928     1.6178 H       
  61 H61            4.2910     6.4023     0.6853 H       
  62 H62            3.4370     7.5627     1.7304 H       
  63 H63            1.3541     8.8909    -0.7775 H       
  64 H64            1.7280     8.6535     0.8432 H       
  65 H65            4.8918     4.1982     1.5074 H       
  66 H66            2.8546     6.9843     4.0129 H       
  67 H67            0.9001     0.8117    -5.1431 H       
  68 H68            3.3034    -2.4574    -5.2193 H       
  69 H69            2.0473    -2.3085    -6.3250 H       
  70 H70            0.7758    -0.2858    -6.4091 H       
  71 H71            5.4291     2.8206     3.4763 H       
  72 H72            3.3923     5.6068     5.9818 H       
  73 H73            4.6754     3.5225     5.7129 H       
@<TRIPOS>BOND
   1    1   20 2
   2    2   23 2
   3    3   28 2
   4    4   20 am
   5    4   21 1
   6    4   51 1
   7    5   23 am
   8    5   26 1
   9    5   57 1
  10    6   25 1
  11    6   30 2
  12    7   28 am
  13    7   63 1
  14    7   64 1
  15    8   30 1
  16    8   67 1
  17    8   70 1
  18    9   30 1
  19    9   68 1
  20    9   69 1
  21   10   14 1
  22   10   15 1
  23   10   16 1
  24   10   20 1
  25   11   16 1
  26   11   17 1
  27   11   18 1
  28   11   36 1
  29   12   15 1
  30   12   17 1
  31   12   19 1
  32   12   37 1
  33   13   14 1
  34   13   18 1
  35   13   19 1
  36   13   38 1
  37   14   39 1
  38   14   40 1
  39   15   41 1
  40   15   44 1
  41   16   42 1
  42   16   43 1
  43   17   45 1
  44   17   46 1
  45   18   47 1
  46   18   48 1
  47   19   49 1
  48   19   50 1
  49   21   22 1
  50   21   23 1
  51   21   52 1
  52   22   24 1
  53   22   53 1
  54   22   54 1
  55   24   25 1
  56   24   55 1
  57   24   56 1
  58   25   58 1
  59   25   59 1
  60   26   27 1
  61   26   28 1
  62   26   60 1
  63   27   29 1
  64   27   61 1
  65   27   62 1
  66   29   31 ar
  67   29   32 ar
  68   31   33 ar
  69   31   65 1
  70   32   34 ar
  71   32   66 1
  72   33   35 ar
  73   33   71 1
  74   34   35 ar
  75   34   72 1
  76   35   73 1

#	End of record

