#	Name: ASD15090001
#	Creating user name:	WinNT
#	Creation time:	15. 06. 2019 21:31

#	Modifying user name:	WinNT
#	Modification time:	15. 06. 2019 21:31

#	Program:	/corina/corina34_cracker 3.40 0067  02.08.2006

@<TRIPOS>MOLECULE
ASD15090001
  41   44    0    0    0
SMALL
NO_CHARGES


@<TRIPOS>ATOM
   1 C1            -0.0552     1.2773     0.0149 C.2     
   2 N2             0.0862    -0.0072    -0.3923 N.pl3   
   3 S3             1.7471    -0.3504    -0.2669 S.3     
   4 C4             2.1716     1.2646     0.3320 C.2     
   5 N5             1.0030     1.9252     0.3833 N.2     
   6 C6            -0.9227    -0.8703    -0.8248 C.ar    
   7 C7            -0.6299    -1.8892    -1.7233 C.ar    
   8 C8            -1.6300    -2.7411    -2.1485 C.ar    
   9 C9            -2.9219    -2.5810    -1.6815 C.ar    
  10 C10           -3.2170    -1.5682    -0.7872 C.ar    
  11 C11           -2.2208    -0.7160    -0.3533 C.ar    
  12 C12           -1.3843     1.9248     0.0321 C.ar    
  13 C13           -1.7944     2.6536     1.1495 C.ar    
  14 C14           -3.0357     3.2557     1.1590 C.ar    
  15 C15           -3.8733     3.1382     0.0641 C.ar    
  16 C16           -3.4730     2.4166    -1.0465 C.ar    
  17 C17           -2.2320     1.8145    -1.0711 C.ar    
  18 N18            3.3672     1.7158     0.6548 N.2     
  19 C19            4.5371     0.8426     0.5329 C.3     
  20 C20            5.4651     1.3901    -0.5207 C.ar    
  21 C21            6.4643     2.2885    -0.1780 C.ar    
  22 C22            7.2945     2.7659    -1.1804 C.ar    
  23 C23            7.1000     2.3337    -2.4788 C.ar    
  24 N24            6.1392     1.4783    -2.7681 N.ar    
  25 C25            5.3346     0.9990    -1.8396 C.ar    
  26 H26            0.3786    -2.0143    -2.0889 H       
  27 H27           -1.4032    -3.5331    -2.8467 H       
  28 H28           -3.7023    -3.2484    -2.0162 H       
  29 H29           -4.2270    -1.4461    -0.4246 H       
  30 H30           -2.4511     0.0719     0.3485 H       
  31 H31           -1.1416     2.7459     2.0049 H       
  32 H32           -3.3544     3.8197     2.0231 H       
  33 H33           -4.8440     3.6114     0.0765 H       
  34 H34           -4.1319     2.3281    -1.8977 H       
  35 H35           -1.9187     1.2556    -1.9405 H       
  36 H36            5.0587     0.7985     1.4890 H       
  37 H37            4.2149    -0.1590     0.2483 H       
  38 H38            6.5926     2.6089     0.8454 H       
  39 H39            8.0830     3.4670    -0.9497 H       
  40 H40            7.7422     2.7011    -3.2656 H       
  41 H41            4.5619     0.2960    -2.1138 H       
@<TRIPOS>BOND
   1    1    2 1
   2    1    5 2
   3    1   12 1
   4    2    3 1
   5    2    6 1
   6    3    4 1
   7    4    5 1
   8    4   18 2
   9    6    7 ar
  10    6   11 ar
  11    7    8 ar
  12    7   26 1
  13    8    9 ar
  14    8   27 1
  15    9   10 ar
  16    9   28 1
  17   10   11 ar
  18   10   29 1
  19   11   30 1
  20   12   13 ar
  21   12   17 ar
  22   13   14 ar
  23   13   31 1
  24   14   15 ar
  25   14   32 1
  26   15   16 ar
  27   15   33 1
  28   16   17 ar
  29   16   34 1
  30   17   35 1
  31   18   19 1
  32   19   20 1
  33   19   36 1
  34   19   37 1
  35   20   21 ar
  36   20   25 ar
  37   21   22 ar
  38   21   38 1
  39   22   23 ar
  40   22   39 1
  41   23   24 ar
  42   23   40 1
  43   24   25 ar
  44   25   41 1

#	End of record

