#	Name: ASD10160511
#	Creating user name:	WinNT
#	Creation time:	15. 06. 2019 21:26

#	Modifying user name:	WinNT
#	Modification time:	15. 06. 2019 21:26

#	Program:	/corina/corina34_cracker 3.40 0067  02.08.2006

@<TRIPOS>MOLECULE
ASD10160511
  20   20    0    0    0
SMALL
NO_CHARGES


@<TRIPOS>ATOM
   1 C1            -0.0167     1.3793     0.0096 C.ar    
   2 C2             0.0021    -0.0041     0.0020 C.ar    
   3 C3             1.2229    -0.6630    -0.0132 C.ar    
   4 C4             2.3826     0.0969    -0.0203 C.ar    
   5 C5             2.2849     1.4753    -0.0119 C.ar    
   6 N6             1.1072     2.0686     0.0026 N.ar    
   7 C7            -1.3366     2.1064     0.0198 C.3     
   8 C8            -1.4294     2.9774     1.2743 C.3     
   9 C9            -1.4412     2.9910    -1.2242 C.3     
  10 Cl10          -1.4826    -0.9037     0.0120 Cl      
  11 H11            1.2688    -1.7420    -0.0191 H       
  12 H12            3.3503    -0.3825    -0.0318 H       
  13 H13            3.1838     2.0739    -0.0170 H       
  14 H14           -2.1507     1.3816     0.0197 H       
  15 H15           -0.6153     3.7022     1.2744 H       
  16 H16           -2.3841     3.5033     1.2816 H       
  17 H17           -1.3549     2.3472     2.1605 H       
  18 H18           -1.3751     2.3705    -2.1178 H       
  19 H19           -2.3959     3.5169    -1.2168 H       
  20 H20           -0.6271     3.7158    -1.2241 H       
@<TRIPOS>BOND
   1    1    2 ar
   2    1    6 ar
   3    1    7 1
   4    2    3 ar
   5    2   10 1
   6    3    4 ar
   7    3   11 1
   8    4    5 ar
   9    4   12 1
  10    5    6 ar
  11    5   13 1
  12    7    8 1
  13    7    9 1
  14    7   14 1
  15    8   15 1
  16    8   16 1
  17    8   17 1
  18    9   18 1
  19    9   19 1
  20    9   20 1

#	End of record

