#	Name: ASD10410133
#	Creating user name:	WinNT
#	Creation time:	15. 06. 2019 21:26

#	Modifying user name:	WinNT
#	Modification time:	15. 06. 2019 21:26

#	Program:	/corina/corina34_cracker 3.40 0067  02.08.2006

@<TRIPOS>MOLECULE
ASD10410133
  67   73    0    0    0
SMALL
NO_CHARGES


@<TRIPOS>ATOM
   1 C1             0.0006     1.1798    -0.3879 C.ar    
   2 C2             0.0814    -0.1646    -0.0493 C.ar    
   3 C3             1.2924    -0.7052     0.3627 C.ar    
   4 C4             2.4161     0.0939     0.4357 C.ar    
   5 C5             2.3353     1.4382     0.0966 C.ar    
   6 C6             1.1243     1.9789    -0.3154 C.ar    
   7 N7             3.4748     2.2488     0.1711 N.pl3   
   8 C8             3.6274     3.3196    -0.7089 C.2     
   9 N9             4.5948     4.2041    -0.6693 N.2     
  10 N10            2.8132     3.6050    -1.7319 N.2     
  11 C11            3.2454     4.6790    -2.3570 C.2     
  12 N12            4.3734     5.1024    -1.7257 N.pl3   
  13 C13            5.1523     6.2057    -2.0598 C.ar    
  14 N14            2.6600     5.2693    -3.4602 N.pl3   
  15 N15           -1.0577    -0.9745    -0.1229 N.3     
  16 C16           -0.7494    -2.3545     0.2773 C.3     
  17 C17           -2.0337    -3.1869     0.2599 C.3     
  18 N18           -2.6195    -3.1507    -1.0874 N.3     
  19 C19           -2.9278    -1.7707    -1.4876 C.3     
  20 C20           -1.6436    -0.9383    -1.4701 C.3     
  21 N21            4.6035     7.4044    -2.1810 N.ar    
  22 C22            5.3297     8.4608    -2.4976 C.ar    
  23 N23            6.6236     8.3825    -2.7081 N.ar    
  24 C24            7.2686     7.2146    -2.6091 C.ar    
  25 C25            6.5464     6.0653    -2.2700 C.ar    
  26 C26           -3.8151    -4.0008    -1.1646 C.3     
  27 C27           -3.4438    -5.4882    -0.8798 C.3     
  28 C28           -4.3795    -4.0076    -2.6036 C.3     
  29 C29           -4.2961    -5.4984    -3.0528 C.3     
  30 C30           -4.8169    -6.2175    -0.7612 C.3     
  31 C31           -5.3813    -6.2242    -2.2003 C.3     
  32 C32           -2.9909    -5.9529    -2.3089 C.3     
  33 S33            8.9629     6.8028    -2.8290 S.3     
  34 C34            8.6677     5.1115    -2.4722 C.2     
  35 C35            7.3949     4.8904    -2.2060 C.2     
  36 C36            6.8626     3.5224    -1.8652 C.3     
  37 H37           -0.9403     1.5993    -0.7122 H       
  38 H38            1.3552    -1.7507     0.6263 H       
  39 H39            3.3577    -0.3264     0.7568 H       
  40 H40            1.0616     3.0242    -0.5794 H       
  41 H41            4.1580     2.0653     0.8348 H       
  42 H42            1.8534     4.8899    -3.8426 H       
  43 H43            3.0557     6.0633    -3.8526 H       
  44 H44           -0.0289    -2.7829    -0.4194 H       
  45 H45           -0.3286    -2.3562     1.2828 H       
  46 H46           -1.8026    -4.2177     0.5284 H       
  47 H47           -2.7440    -2.7746     0.9765 H       
  48 H48           -3.3486    -1.7691    -2.4931 H       
  49 H49           -3.6483    -1.3424    -0.7908 H       
  50 H50           -1.8746     0.0925    -1.7386 H       
  51 H51           -0.9332    -1.3506    -2.1867 H       
  52 H52            4.8434     9.4210    -2.5866 H       
  53 H53           -4.5715    -3.6563    -0.4594 H       
  54 H54           -2.7429    -5.6562    -0.0621 H       
  55 H55           -5.4149    -3.6670    -2.6073 H       
  56 H56           -3.7699    -3.3801    -3.2538 H       
  57 H57           -4.3374    -5.6753    -4.1276 H       
  58 H58           -4.6758    -7.2374    -0.4036 H       
  59 H59           -5.4822    -5.6688    -0.0947 H       
  60 H60           -6.3242    -5.6789    -2.2412 H       
  61 H61           -5.5177    -7.2475    -2.5502 H       
  62 H62           -2.1122    -5.4094    -2.6561 H       
  63 H63           -2.8454    -7.0319    -2.3609 H       
  64 H64            9.4318     4.3483    -2.4674 H       
  65 H65            6.8396     3.4009    -0.7822 H       
  66 H66            5.8540     3.4151    -2.2644 H       
  67 H67            7.5092     2.7616    -2.3025 H       
@<TRIPOS>BOND
   1    1    2 ar
   2    1    6 ar
   3    1   37 1
   4    2    3 ar
   5    2   15 1
   6    3    4 ar
   7    3   38 1
   8    4    5 ar
   9    4   39 1
  10    5    6 ar
  11    5    7 1
  12    6   40 1
  13    7    8 1
  14    7   41 1
  15    8    9 2
  16    8   10 1
  17    9   12 1
  18   10   11 2
  19   11   12 1
  20   11   14 1
  21   12   13 1
  22   13   21 ar
  23   13   25 ar
  24   14   42 1
  25   14   43 1
  26   15   16 1
  27   15   20 1
  28   16   17 1
  29   16   44 1
  30   16   45 1
  31   17   18 1
  32   17   46 1
  33   17   47 1
  34   18   19 1
  35   18   26 1
  36   19   20 1
  37   19   48 1
  38   19   49 1
  39   20   50 1
  40   20   51 1
  41   21   22 ar
  42   22   23 ar
  43   22   52 1
  44   23   24 ar
  45   24   25 ar
  46   24   33 1
  47   25   35 1
  48   26   27 1
  49   26   28 1
  50   26   53 1
  51   27   30 1
  52   27   32 1
  53   27   54 1
  54   28   29 1
  55   28   55 1
  56   28   56 1
  57   29   31 1
  58   29   32 1
  59   29   57 1
  60   30   31 1
  61   30   58 1
  62   30   59 1
  63   31   60 1
  64   31   61 1
  65   32   62 1
  66   32   63 1
  67   33   34 1
  68   34   35 2
  69   34   64 1
  70   35   36 1
  71   36   65 1
  72   36   66 1
  73   36   67 1

#	End of record

