#	Name: ASD10610039
#	Creating user name:	WinNT
#	Creation time:	15. 06. 2019 21:27

#	Modifying user name:	WinNT
#	Modification time:	15. 06. 2019 21:27

#	Program:	/corina/corina34_cracker 3.40 0067  02.08.2006

@<TRIPOS>MOLECULE
ASD10610039
  61   65    0    0    0
SMALL
NO_CHARGES


@<TRIPOS>ATOM
   1 O1            -0.3537     1.3165    -0.3411 O.3     
   2 N2            -0.8111     0.2585    -0.7050 N.2     
   3 C3            -1.3024     0.3302    -1.9123 C.2     
   4 C4            -1.1044     1.6659    -2.3473 C.2     
   5 C5            -0.4834     2.2654    -1.2877 C.2     
   6 C6            -0.0432     3.6708    -1.1989 C.2     
   7 O7            -0.2247     4.4250    -2.1350 O.2     
   8 N8             0.5601     4.1185    -0.0799 N.am    
   9 O9            -0.1247     6.4993     1.2957 O.3     
  10 C10            0.0366     6.5864    -0.1261 C.3     
  11 C11            1.0958     5.4812    -0.0317 C.3     
  12 C12            1.2375     6.0610     1.3810 C.3     
  13 C13            2.2970     5.6873    -0.9180 C.2     
  14 N14            3.1961     4.6958    -1.0759 N.am    
  15 O15            2.4547     6.7455    -1.4893 O.2     
  16 C16            4.4186     4.9315    -1.8480 C.3     
  17 C17            4.1332     4.7108    -3.3348 C.3     
  18 C18            5.4912     3.9748    -1.3949 C.ar    
  19 C19            6.7758     4.4448    -1.1744 C.ar    
  20 C20            7.7581     3.5602    -0.7574 C.ar    
  21 C21            7.4079     2.2192    -0.5752 C.ar    
  22 C22            6.0930     1.8264    -0.8186 C.ar    
  23 N23            5.1915     2.7040    -1.2092 N.ar    
  24 F24            7.0678     5.7501    -1.3642 F       
  25 C25            8.4192     1.2304    -0.1308 C.ar    
  26 C26            8.1429     0.3747     0.9477 C.ar    
  27 C27            9.1022    -0.5510     1.3564 C.ar    
  28 C28           10.3172    -0.6218     0.6998 C.ar    
  29 C29           10.5880     0.2232    -0.3633 C.ar    
  30 C30            9.6446     1.1418    -0.7839 C.ar    
  31 O31            4.9296     1.0845     2.1278 O.3     
  32 N32            5.8566     1.2730     1.3687 N.2     
  33 C33            6.8394     0.4554     1.6480 C.2     
  34 N34            6.4419    -0.3029     2.6953 N.2     
  35 C35            5.2327     0.1066     2.9872 C.2     
  36 C36            4.3487    -0.4250     4.0859 C.3     
  37 F37            8.8450    -1.3779     2.3934 F       
  38 Cl38          12.1179     0.1230    -1.1775 Cl      
  39 O39           -1.8872    -0.6745    -2.6129 O.3     
  40 C40           -1.9790    -1.9467    -1.9686 C.3     
  41 H41           -1.3794     2.1058    -3.2945 H       
  42 H42            0.6396     3.5385     0.6935 H       
  43 H43           -0.8523     6.2876    -0.6816 H       
  44 H44            0.4385     7.5437    -0.4581 H       
  45 H45            1.9529     6.8811     1.4425 H       
  46 H46            1.4007     5.3019     2.1460 H       
  47 H47            3.0337     3.8260    -0.6782 H       
  48 H48            4.7557     5.9561    -1.6909 H       
  49 H49            3.3574     5.4028    -3.6625 H       
  50 H50            5.0428     4.8862    -3.9093 H       
  51 H51            3.7961     3.6862    -3.4919 H       
  52 H52            8.7681     3.8983    -0.5781 H       
  53 H53            5.8094     0.7934    -0.6816 H       
  54 H54           11.0589    -1.3396     1.0179 H       
  55 H55            9.8605     1.7942    -1.6170 H       
  56 H56            3.4010     0.1135     4.0823 H       
  57 H57            4.1640    -1.4866     3.9220 H       
  58 H58            4.8417    -0.2862     5.0481 H       
  59 H59           -0.9783    -2.3035    -1.7248 H       
  60 H60           -2.5630    -1.8492    -1.0535 H       
  61 H61           -2.4657    -2.6577    -2.6362 H       
@<TRIPOS>BOND
   1    1    2 1
   2    1    5 1
   3    2    3 2
   4    3    4 1
   5    3   39 1
   6    4    5 2
   7    4   41 1
   8    5    6 1
   9    6    7 2
  10    6    8 am
  11    8   11 1
  12    8   42 1
  13    9   10 1
  14    9   12 1
  15   10   11 1
  16   10   43 1
  17   10   44 1
  18   11   12 1
  19   11   13 1
  20   12   45 1
  21   12   46 1
  22   13   14 am
  23   13   15 2
  24   14   16 1
  25   14   47 1
  26   16   17 1
  27   16   18 1
  28   16   48 1
  29   17   49 1
  30   17   50 1
  31   17   51 1
  32   18   19 ar
  33   18   23 ar
  34   19   20 ar
  35   19   24 1
  36   20   21 ar
  37   20   52 1
  38   21   22 ar
  39   21   25 1
  40   22   23 ar
  41   22   53 1
  42   25   26 ar
  43   25   30 ar
  44   26   27 ar
  45   26   33 1
  46   27   28 ar
  47   27   37 1
  48   28   29 ar
  49   28   54 1
  50   29   30 ar
  51   29   38 1
  52   30   55 1
  53   31   32 1
  54   31   35 1
  55   32   33 2
  56   33   34 1
  57   34   35 2
  58   35   36 1
  59   36   56 1
  60   36   57 1
  61   36   58 1
  62   39   40 1
  63   40   59 1
  64   40   60 1
  65   40   61 1

#	End of record

