#	Name: ASD10410265
#	Creating user name:	WinNT
#	Creation time:	15. 06. 2019 21:27

#	Modifying user name:	WinNT
#	Modification time:	15. 06. 2019 21:27

#	Program:	/corina/corina34_cracker 3.40 0067  02.08.2006

@<TRIPOS>MOLECULE
ASD10410265
  74   80    0    0    0
SMALL
NO_CHARGES


@<TRIPOS>ATOM
   1 C1            -0.0319     1.4644    -0.0989 C.ar    
   2 C2            -0.0471     0.0807     0.0093 C.ar    
   3 C3             1.1483    -0.6218     0.1076 C.ar    
   4 C4             2.3510     0.0576     0.0976 C.ar    
   5 C5             2.3654     1.4423    -0.0107 C.ar    
   6 C6             1.1710     2.1435    -0.1088 C.ar    
   7 Cl7            1.1297    -2.3523     0.2435 Cl      
   8 N8             3.5845     2.1312    -0.0208 N.pl3   
   9 C9             3.7061     3.3229    -0.7348 C.2     
  10 N10            4.7564     4.1077    -0.7303 N.2     
  11 N11            2.7715     3.8446    -1.5381 N.2     
  12 C12            3.2092     4.9730    -2.0539 C.2     
  13 N13            4.4638     5.1900    -1.5759 N.pl3   
  14 C14            5.2929     6.2705    -1.8667 C.ar    
  15 N15            2.5190     5.7900    -2.9282 N.pl3   
  16 N16            4.8589     7.2120    -2.6902 N.ar    
  17 N17            6.4923     6.3310    -1.3076 N.ar    
  18 C18            7.3004     7.3494    -1.5683 C.ar    
  19 C19            6.8820     8.3453    -2.4543 C.ar    
  20 C20            5.6183     8.2521    -3.0034 C.ar    
  21 N21           -1.2667    -0.6075     0.0199 N.3     
  22 C22           -1.4168    -1.4316    -1.1876 C.3     
  23 C23           -2.7219    -2.2264    -1.1005 C.3     
  24 N24           -3.8504    -1.2960    -0.9577 N.3     
  25 C25           -3.7003    -0.4719     0.2497 C.3     
  26 C26           -2.3952     0.3229     0.1627 C.3     
  27 C27           -5.1298    -2.0179    -0.9467 C.3     
  28 C28            8.6449     7.4543    -0.9579 C.ar    
  29 C29            9.3118     8.6781    -0.9906 C.ar    
  30 C30            8.6518     9.8813    -1.6090 C.3     
  31 C31            7.8036     9.4765    -2.8113 C.3     
  32 C32            9.2437     6.3498    -0.3589 C.ar    
  33 C33           10.5046     6.4689     0.1910 C.ar    
  34 C34           11.1694     7.6813     0.1448 C.ar    
  35 C35           10.5754     8.7826    -0.4446 C.ar    
  36 C36           -6.2685    -1.0335    -0.6723 C.3     
  37 C37           -7.6009    -1.7854    -0.6608 C.3     
  38 C38           -7.8210    -2.4541    -2.0192 C.3     
  39 C39           -6.6822    -3.4384    -2.2936 C.3     
  40 C40           -5.3498    -2.6865    -2.3051 C.3     
  41 H41           -0.9605     2.0099    -0.1798 H       
  42 H42            3.2800    -0.4878     0.1743 H       
  43 H43            1.1824     3.2202    -0.1930 H       
  44 H44            4.3444     1.7794     0.4688 H       
  45 H45            1.6246     5.5475    -3.2150 H       
  46 H46            2.9286     6.6061    -3.2554 H       
  47 H47            5.2564     9.0121    -3.6800 H       
  48 H48           -1.4412    -0.7876    -2.0667 H       
  49 H49           -0.5758    -2.1207    -1.2645 H       
  50 H50           -2.8496    -2.8164    -2.0081 H       
  51 H51           -2.6864    -2.8903    -0.2368 H       
  52 H52           -4.5413     0.2172     0.3266 H       
  53 H53           -3.6759    -1.1159     1.1288 H       
  54 H54           -2.2675     0.9129     1.0703 H       
  55 H55           -2.4307     0.9868    -0.7011 H       
  56 H56           -5.1110    -2.7785    -0.1661 H       
  57 H57            8.0151    10.3623    -0.8665 H       
  58 H58            9.4192    10.5849    -1.9320 H       
  59 H59            8.4590     9.1629    -3.6238 H       
  60 H60            7.2123    10.3320    -3.1379 H       
  61 H61            8.7241     5.4037    -0.3241 H       
  62 H62           10.9721     5.6147     0.6582 H       
  63 H63           12.1579     7.7682     0.5711 H       
  64 H64           11.1010     9.7255    -0.4780 H       
  65 H65           -6.1117    -0.5572     0.2955 H       
  66 H66           -6.2872    -0.2729    -1.4529 H       
  67 H67           -7.5822    -2.5460     0.1198 H       
  68 H68           -8.4122    -1.0842    -0.4653 H       
  69 H69           -8.7702    -2.9897    -2.0110 H       
  70 H70           -7.8397    -1.6935    -2.7998 H       
  71 H71           -6.6635    -4.1990    -1.5130 H       
  72 H72           -6.8390    -3.9148    -3.2614 H       
  73 H73           -5.3686    -1.9259    -3.0857 H       
  74 H74           -4.5386    -3.3878    -2.5006 H       
@<TRIPOS>BOND
   1    1    2 ar
   2    1    6 ar
   3    1   41 1
   4    2    3 ar
   5    2   21 1
   6    3    4 ar
   7    3    7 1
   8    4    5 ar
   9    4   42 1
  10    5    6 ar
  11    5    8 1
  12    6   43 1
  13    8    9 1
  14    8   44 1
  15    9   10 2
  16    9   11 1
  17   10   13 1
  18   11   12 2
  19   12   13 1
  20   12   15 1
  21   13   14 1
  22   14   16 ar
  23   14   17 ar
  24   15   45 1
  25   15   46 1
  26   16   20 ar
  27   17   18 ar
  28   18   19 ar
  29   18   28 1
  30   19   20 ar
  31   19   31 1
  32   20   47 1
  33   21   22 1
  34   21   26 1
  35   22   23 1
  36   22   48 1
  37   22   49 1
  38   23   24 1
  39   23   50 1
  40   23   51 1
  41   24   25 1
  42   24   27 1
  43   25   26 1
  44   25   52 1
  45   25   53 1
  46   26   54 1
  47   26   55 1
  48   27   36 1
  49   27   40 1
  50   27   56 1
  51   28   29 ar
  52   28   32 ar
  53   29   30 1
  54   29   35 ar
  55   30   31 1
  56   30   57 1
  57   30   58 1
  58   31   59 1
  59   31   60 1
  60   32   33 ar
  61   32   61 1
  62   33   34 ar
  63   33   62 1
  64   34   35 ar
  65   34   63 1
  66   35   64 1
  67   36   37 1
  68   36   65 1
  69   36   66 1
  70   37   38 1
  71   37   67 1
  72   37   68 1
  73   38   39 1
  74   38   69 1
  75   38   70 1
  76   39   40 1
  77   39   71 1
  78   39   72 1
  79   40   73 1
  80   40   74 1

#	End of record

