#	Name: ASD11820017
#	Creating user name:	WinNT
#	Creation time:	15. 06. 2019 21:29

#	Modifying user name:	WinNT
#	Modification time:	15. 06. 2019 21:29

#	Program:	/corina/corina34_cracker 3.40 0067  02.08.2006

@<TRIPOS>MOLECULE
ASD11820017
  33   36    0    0    0
SMALL
NO_CHARGES


@<TRIPOS>ATOM
   1 C1            -0.0166     1.3734     0.0096 C.ar    
   2 C2             0.0021    -0.0041     0.0020 C.ar    
   3 C3             1.2132    -0.6903    -0.0132 C.ar    
   4 C4             2.4090    -0.0036    -0.0210 C.ar    
   5 C5             1.1875     2.0811     0.0019 C.ar    
   6 C6             1.5294     3.5059     0.0063 C.2     
   7 C7             2.4107     1.3874    -0.0135 C.ar    
   8 N8             3.4136     2.3326    -0.0180 N.pl3   
   9 C9             2.8690     3.5884    -0.0061 C.2     
  10 C10            0.5605     4.6600     0.0217 C.3     
  11 C11            0.1562     4.9575     1.4427 C.2     
  12 C12            0.8760     5.8091     2.3934 C.ar    
  13 C13           -0.9343     4.4973     2.0753 C.2     
  14 N14           -0.9693     4.9798     3.3558 N.pl3   
  15 C15            0.1252     5.7861     3.5822 C.ar    
  16 C16            2.0531     6.5578     2.3252 C.ar    
  17 C17            0.5646     6.5128     4.6838 C.ar    
  18 C18            1.7285     7.2480     4.6034 C.ar    
  19 C19            2.4721     7.2711     3.4268 C.ar    
  20 F20           -1.1605    -0.6922     0.0099 F       
  21 F21            3.6102     7.9966     3.3649 F       
  22 F22            1.2170    -2.0413    -0.0201 F       
  23 F23            2.1508     7.9525     5.6761 F       
  24 H24           -0.9576     1.9034     0.0169 H       
  25 H25            3.3433    -0.5452    -0.0324 H       
  26 H26            4.3636     2.1372    -0.0281 H       
  27 H27            3.4335     4.5091    -0.0065 H       
  28 H28            1.0361     5.5395    -0.4124 H       
  29 H29           -0.3234     4.4002    -0.5607 H       
  30 H30           -1.6749     3.8437     1.6386 H       
  31 H31           -1.6623     4.7852     4.0060 H       
  32 H32            2.6320     6.5772     1.4137 H       
  33 H33           -0.0054     6.5017     5.6011 H       
@<TRIPOS>BOND
   1    1    2 ar
   2    1    5 ar
   3    1   24 1
   4    2    3 ar
   5    2   20 1
   6    3    4 ar
   7    3   22 1
   8    4    7 ar
   9    4   25 1
  10    5    7 ar
  11    5    6 1
  12    6    9 2
  13    6   10 1
  14    7    8 1
  15    8    9 1
  16    8   26 1
  17    9   27 1
  18   10   11 1
  19   10   28 1
  20   10   29 1
  21   11   13 2
  22   11   12 1
  23   12   15 ar
  24   12   16 ar
  25   13   14 1
  26   13   30 1
  27   14   15 1
  28   14   31 1
  29   15   17 ar
  30   16   19 ar
  31   16   32 1
  32   17   18 ar
  33   17   33 1
  34   18   19 ar
  35   18   23 1
  36   19   21 1

#	End of record

