#	Name: ASD10610094
#	Creating user name:	WinNT
#	Creation time:	15. 06. 2019 21:28

#	Modifying user name:	WinNT
#	Modification time:	15. 06. 2019 21:28

#	Program:	/corina/corina34_cracker 3.40 0067  02.08.2006

@<TRIPOS>MOLECULE
ASD10610094
  62   67    0    0    0
SMALL
NO_CHARGES


@<TRIPOS>ATOM
   1 O1            -0.8121     1.7073    -1.3200 O.3     
   2 N2            -1.3933     0.8320    -1.9177 N.2     
   3 C3            -1.9067     1.2651    -3.0370 C.2     
   4 C4            -1.5745     2.6414    -3.1247 C.2     
   5 C5            -0.8622     2.8785    -1.9826 C.2     
   6 C6            -0.2673     4.1609    -1.5603 C.2     
   7 O7            -0.3901     5.1477    -2.2599 O.2     
   8 N8             0.4122     4.2385    -0.3989 N.am    
   9 C9             1.0957     5.4812    -0.0318 C.3     
  10 C10            0.2281     6.7141     0.2292 C.3     
  11 C11            0.9074     5.9956     1.3968 C.3     
  12 C12            2.4388     5.6999    -0.6793 C.2     
  13 N13            3.2588     4.6534    -0.9004 N.am    
  14 O14            2.7819     6.8177    -1.0014 O.2     
  15 C15            4.6068     4.8778    -1.4283 C.3     
  16 C16            5.5396     3.7158    -1.0263 C.3     
  17 C17            5.4187     2.7609    -2.2327 C.3     
  18 C18            5.0538     3.6472    -3.4046 C.ar    
  19 C19            5.1251     3.4057    -4.7643 C.ar    
  20 C20            4.7271     4.3860    -5.6699 C.ar    
  21 C21            4.2574     5.6111    -5.1984 C.ar    
  22 C22            4.1904     5.8428    -3.8412 C.ar    
  23 C23            4.5869     4.8647    -2.9423 C.ar    
  24 C24            4.8029     4.1283    -7.1278 C.ar    
  25 C25            3.6916     4.3817    -7.9479 C.ar    
  26 C26            3.7753     4.1352    -9.3177 C.ar    
  27 C27            4.9486     3.6439    -9.8605 C.ar    
  28 C28            6.0434     3.3947    -9.0501 C.ar    
  29 C29            5.9775     3.6395    -7.6913 C.ar    
  30 O30            1.0945     5.5955    -5.9471 O.3     
  31 N31            2.2243     5.1814    -6.0989 N.2     
  32 C32            2.4367     4.9077    -7.3607 C.2     
  33 N33            1.2961     5.1953    -8.0287 N.2     
  34 C34            0.4571     5.6290    -7.1216 C.2     
  35 C35           -0.9612     6.0806    -7.3575 C.3     
  36 F36            2.7108     4.3757   -10.1141 F       
  37 Cl37           7.5093     2.7775    -9.7457 Cl      
  38 O38           -2.6178     0.5416    -3.9387 O.3     
  39 C39           -2.8318    -0.8391    -3.6387 C.3     
  40 H40           -1.8252     3.3386    -3.9104 H       
  41 H41            0.4486     3.4716     0.1938 H       
  42 H42            0.6290     7.6835    -0.0670 H       
  43 H43           -0.8512     6.6006     0.1279 H       
  44 H44            0.2750     5.4094     2.0635 H       
  45 H45            1.7552     6.4922     1.8687 H       
  46 H46            2.9564     3.7516    -0.7099 H       
  47 H47            5.0039     5.8250    -1.0635 H       
  48 H48            6.5655     4.0651    -0.9100 H       
  49 H49            5.1874     3.2341    -0.1142 H       
  50 H50            6.3703     2.2624    -2.4174 H       
  51 H51            4.6337     2.0256    -2.0559 H       
  52 H52            5.4897     2.4551    -5.1245 H       
  53 H53            3.9472     6.3764    -5.8945 H       
  54 H54            3.8270     6.7920    -3.4760 H       
  55 H55            5.0112     3.4534   -10.9217 H       
  56 H56            6.8367     3.4470    -7.0659 H       
  57 H57           -1.4077     6.3852    -6.4109 H       
  58 H58           -0.9639     6.9237    -8.0484 H       
  59 H59           -1.5378     5.2597    -7.7837 H       
  60 H60           -1.8703    -1.3449    -3.5503 H       
  61 H61           -3.3761    -0.9265    -2.6984 H       
  62 H62           -3.4121    -1.2990    -4.4385 H       
@<TRIPOS>BOND
   1    1    2 1
   2    1    5 1
   3    2    3 2
   4    3    4 1
   5    3   38 1
   6    4    5 2
   7    4   40 1
   8    5    6 1
   9    6    7 2
  10    6    8 am
  11    8    9 1
  12    8   41 1
  13    9   10 1
  14    9   11 1
  15    9   12 1
  16   10   11 1
  17   10   42 1
  18   10   43 1
  19   11   44 1
  20   11   45 1
  21   12   13 am
  22   12   14 2
  23   13   15 1
  24   13   46 1
  25   15   16 1
  26   15   23 1
  27   15   47 1
  28   16   17 1
  29   16   48 1
  30   16   49 1
  31   17   18 1
  32   17   50 1
  33   17   51 1
  34   18   19 ar
  35   18   23 ar
  36   19   20 ar
  37   19   52 1
  38   20   21 ar
  39   20   24 1
  40   21   22 ar
  41   21   53 1
  42   22   23 ar
  43   22   54 1
  44   24   25 ar
  45   24   29 ar
  46   25   26 ar
  47   25   32 1
  48   26   27 ar
  49   26   36 1
  50   27   28 ar
  51   27   55 1
  52   28   29 ar
  53   28   37 1
  54   29   56 1
  55   30   31 1
  56   30   34 1
  57   31   32 2
  58   32   33 1
  59   33   34 2
  60   34   35 1
  61   35   57 1
  62   35   58 1
  63   35   59 1
  64   38   39 1
  65   39   60 1
  66   39   61 1
  67   39   62 1

#	End of record

