#	Name: ASD10410194
#	Creating user name:	WinNT
#	Creation time:	15. 06. 2019 21:27

#	Modifying user name:	WinNT
#	Modification time:	15. 06. 2019 21:27

#	Program:	/corina/corina34_cracker 3.40 0067  02.08.2006

@<TRIPOS>MOLECULE
ASD10410194
  54   57    0    0    0
SMALL
NO_CHARGES


@<TRIPOS>ATOM
   1 C1             0.1103     1.1153    -0.1165 C.ar    
   2 C2             0.0867    -0.2645     0.0240 C.ar    
   3 C3             1.2750    -0.9721     0.1304 C.ar    
   4 C4             2.4828    -0.3033     0.0966 C.ar    
   5 C5             2.5074     1.0781    -0.0444 C.ar    
   6 C6             1.3172     1.7857    -0.1509 C.ar    
   7 O7            -1.1022    -0.9239     0.0579 O.3     
   8 N8             3.7311     1.7569    -0.0783 N.pl3   
   9 C9             3.8597     2.9263    -0.8285 C.2     
  10 N10            4.9187     3.6998    -0.8581 N.2     
  11 N11            2.9248     3.4367    -1.6382 N.2     
  12 C12            3.3733     4.5444    -2.1897 C.2     
  13 N13            4.6279     4.7592    -1.7327 N.pl3   
  14 C14            5.4712     5.8282    -2.0659 C.ar    
  15 N15            2.6845     5.3454    -3.0816 N.pl3   
  16 C16            4.9913     7.1298    -2.0304 C.ar    
  17 C17           -1.0522    -2.3444     0.2046 C.3     
  18 C18           -2.4754    -2.9057     0.2218 C.3     
  19 N19           -3.0990    -2.6997    -1.0923 N.3     
  20 C20           -3.3130    -1.2605    -1.3576 C.3     
  21 C21           -4.6129    -1.1402    -2.1744 C.3     
  22 C22           -5.1312    -2.5890    -2.3243 C.3     
  23 C23           -4.4447    -3.3261    -1.1470 C.3     
  24 C24            7.6209     6.6448    -2.7553 C.ar    
  25 C25            7.1360     7.9397    -2.7243 C.ar    
  26 C26            5.8247     8.1817    -2.3593 C.ar    
  27 C27            6.7925     5.5873    -2.4273 C.ar    
  28 F28            7.2659     4.3223    -2.4575 F       
  29 C29           -4.3318    -4.8236    -1.4397 C.3     
  30 H30           -0.8152     1.6650    -0.2034 H       
  31 H31            1.2557    -2.0463     0.2401 H       
  32 H32            3.4079    -0.8543     0.1802 H       
  33 H33            1.3354     2.8599    -0.2610 H       
  34 H34            4.4897     1.4143     0.4197 H       
  35 H35            1.8133     5.0704    -3.4077 H       
  36 H36            3.0724     6.1825    -3.3813 H       
  37 H37            3.9669     7.3205    -1.7462 H       
  38 H38           -0.5012    -2.7768    -0.6306 H       
  39 H39           -0.5512    -2.5958     1.1394 H       
  40 H40           -2.4428    -3.9721     0.4453 H       
  41 H41           -3.0594    -2.3921     0.9855 H       
  42 H42           -3.4146    -0.7205    -0.4163 H       
  43 H43           -2.4764    -0.8601    -1.9302 H       
  44 H44           -5.3413    -0.5314    -1.6387 H       
  45 H45           -4.4058    -0.7093    -3.1539 H       
  46 H46           -6.2157    -2.6233    -2.2210 H       
  47 H47           -4.8199    -3.0131    -3.2789 H       
  48 H48           -4.9869    -3.1546    -0.2171 H       
  49 H49            8.6458     6.4590    -3.0408 H       
  50 H50            7.7848     8.7642    -2.9805 H       
  51 H51            5.4510     9.1946    -2.3316 H       
  52 H52           -3.7619    -4.9726    -2.3569 H       
  53 H53           -3.8238    -5.3183    -0.6119 H       
  54 H54           -5.3292    -5.2467    -1.5589 H       
@<TRIPOS>BOND
   1    1    2 ar
   2    1    6 ar
   3    1   30 1
   4    2    3 ar
   5    2    7 1
   6    3    4 ar
   7    3   31 1
   8    4    5 ar
   9    4   32 1
  10    5    6 ar
  11    5    8 1
  12    6   33 1
  13    7   17 1
  14    8    9 1
  15    8   34 1
  16    9   10 2
  17    9   11 1
  18   10   13 1
  19   11   12 2
  20   12   13 1
  21   12   15 1
  22   13   14 1
  23   14   16 ar
  24   14   27 ar
  25   15   35 1
  26   15   36 1
  27   16   26 ar
  28   16   37 1
  29   17   18 1
  30   17   38 1
  31   17   39 1
  32   18   19 1
  33   18   40 1
  34   18   41 1
  35   19   20 1
  36   19   23 1
  37   20   21 1
  38   20   42 1
  39   20   43 1
  40   21   22 1
  41   21   44 1
  42   21   45 1
  43   22   23 1
  44   22   46 1
  45   22   47 1
  46   23   29 1
  47   23   48 1
  48   24   25 ar
  49   24   27 ar
  50   24   49 1
  51   25   26 ar
  52   25   50 1
  53   26   51 1
  54   27   28 1
  55   29   52 1
  56   29   53 1
  57   29   54 1

#	End of record

