#	Name: ASD13390016
#	Creating user name:	WinNT
#	Creation time:	15. 06. 2019 21:30

#	Modifying user name:	WinNT
#	Modification time:	15. 06. 2019 21:30

#	Program:	/corina/corina34_cracker 3.40 0067  02.08.2006

@<TRIPOS>MOLECULE
ASD13390016
  25   24    0    0    0
SMALL
NO_CHARGES


@<TRIPOS>ATOM
   1 C1            -0.0166     1.3750     0.0096 C.ar    
   2 C2             0.0021    -0.0041     0.0020 C.ar    
   3 C3             1.2231    -0.6842    -0.0133 C.ar    
   4 C4             2.4222     0.0439    -0.0208 C.ar    
   5 C5             2.3845     1.4285    -0.0130 C.ar    
   6 C6             1.1689     2.0894     0.0021 C.ar    
   7 C7             1.2507    -2.1551    -0.0209 C.2     
   8 N8             2.3929    -2.7862    -0.0352 N.2     
   9 N9             2.4191    -4.1870    -0.0425 N.2     
  10 C10            3.5719    -4.8240    -0.0569 C.2     
  11 N11            4.7472    -4.1157    -0.0648 N.pl3   
  12 N12            3.5976    -6.1960    -0.0641 N.pl3   
  13 O13            3.6150    -0.6060    -0.0352 O.3     
  14 Br14           3.9965     2.4169    -0.0230 Br      
  15 H15           -0.9605     1.8998     0.0169 H       
  16 H16           -0.9253    -0.5576     0.0082 H       
  17 H17            1.1450     3.1691     0.0078 H       
  18 H18            0.3257    -2.7125    -0.0148 H       
  19 H19            4.7290    -3.1459    -0.0597 H       
  20 H20            5.5961    -4.5848    -0.0754 H       
  21 H21            2.7669    -6.6967    -0.0586 H       
  22 H22            4.4466    -6.6651    -0.0747 H       
  23 H23            3.9521    -0.7897    -0.9227 H       
  24 Cl24          10.5961     8.1691     5.0169 Cl      
  25 H25           10.5961     9.5391     5.0169 H       
@<TRIPOS>BOND
   1    1    2 ar
   2    1    6 ar
   3    1   15 1
   4    2    3 ar
   5    2   16 1
   6    3    4 ar
   7    3    7 1
   8    4    5 ar
   9    4   13 1
  10    5    6 ar
  11    5   14 1
  12    6   17 1
  13    7    8 2
  14    7   18 1
  15    8    9 1
  16    9   10 2
  17   10   11 1
  18   10   12 1
  19   11   19 1
  20   11   20 1
  21   12   21 1
  22   12   22 1
  23   13   23 1
  24   24   25 1

#	End of record

