#	Name: ASD13680004
#	Creating user name:	WinNT
#	Creation time:	15. 06. 2019 21:30

#	Modifying user name:	WinNT
#	Modification time:	15. 06. 2019 21:30

#	Program:	/corina/corina34_cracker 3.40 0067  02.08.2006

@<TRIPOS>MOLECULE
ASD13680004
  49   52    0    0    0
SMALL
NO_CHARGES


@<TRIPOS>ATOM
   1 C1            -0.0190     1.5124     0.0242 C.3     
   2 C2             0.0025    -0.0020     0.0099 C.2     
   3 C3             0.7558    -0.7678     0.8048 C.2     
   4 C4             1.7298    -0.2380     1.8431 C.3     
   5 C5             1.8877     2.2211     1.4594 C.3     
   6 C6             1.4089     2.0561     0.0198 C.3     
   7 C7             1.2760     1.1320     2.3377 C.3     
   8 C8             0.5454    -2.1871     0.5660 C.2     
   9 C9            -0.3625    -2.4431    -0.4219 C.2     
  10 S10           -0.9725    -0.9921    -1.0681 S.3     
  11 N11           -0.7349    -3.7101    -0.8406 N.am    
  12 C12            1.2402    -3.2400     1.3122 C.2     
  13 O13            0.7536    -3.6824     2.3363 O.2     
  14 N14            2.4180    -3.7181     0.8644 N.am    
  15 C15            3.1309    -4.6402     1.6276 C.ar    
  16 N16            2.6957    -4.9693     2.8338 N.ar    
  17 C17            3.3402    -5.8382     3.5887 C.ar    
  18 C18            4.5012    -6.4391     3.1432 C.ar    
  19 C19            4.9911    -6.1212     1.8840 C.ar    
  20 C20            4.2898    -5.2106     1.1132 C.ar    
  21 C21           -1.6423    -3.8543    -1.8267 C.2     
  22 C22           -2.0396    -5.2059    -2.2735 C.ar    
  23 O23           -2.1340    -2.8726    -2.3485 O.2     
  24 C24           -2.9794    -5.3586    -3.2947 C.ar    
  25 C25           -3.3467    -6.6223    -3.7079 C.ar    
  26 C26           -2.7865    -7.7387    -3.1131 C.ar    
  27 C27           -1.8535    -7.5957    -2.0987 C.ar    
  28 C28           -1.4727    -6.3347    -1.6802 C.ar    
  29 F29           -1.3109    -8.6903    -1.5221 F       
  30 H30           -0.5467     1.8749    -0.8579 H       
  31 H31           -0.5349     1.8583     0.9199 H       
  32 H32            1.7729    -0.9298     2.6843 H       
  33 H33            2.7209    -0.1514     1.3978 H       
  34 H34            2.9745     2.1438     1.4907 H       
  35 H35            1.5845     3.1996     1.8320 H       
  36 H36            2.0626     1.3584    -0.5036 H       
  37 H37            1.4289     3.0227    -0.4836 H       
  38 H38            0.1888     1.1940     2.2886 H       
  39 H39            1.6011     1.2718     3.3687 H       
  40 H40           -0.3426    -4.4934    -0.4242 H       
  41 H41            2.7694    -3.4203     0.0107 H       
  42 H42            2.9553    -6.0824     4.5677 H       
  43 H43            5.0227    -7.1488     3.7684 H       
  44 H44            5.8970    -6.5770     1.5127 H       
  45 H45            4.6401    -4.9436     0.1272 H       
  46 H46           -3.4183    -4.4885    -3.7602 H       
  47 H47           -4.0739    -6.7406    -4.4976 H       
  48 H48           -3.0778    -8.7258    -3.4406 H       
  49 H49           -0.7419    -6.2233    -0.8928 H       
@<TRIPOS>BOND
   1    1    2 1
   2    1    6 1
   3    1   30 1
   4    1   31 1
   5    2   10 1
   6    2    3 2
   7    3    4 1
   8    3    8 1
   9    4    7 1
  10    4   32 1
  11    4   33 1
  12    5    6 1
  13    5    7 1
  14    5   34 1
  15    5   35 1
  16    6   36 1
  17    6   37 1
  18    7   38 1
  19    7   39 1
  20    8    9 2
  21    8   12 1
  22    9   10 1
  23    9   11 1
  24   11   21 am
  25   11   40 1
  26   12   13 2
  27   12   14 am
  28   14   15 1
  29   14   41 1
  30   15   16 ar
  31   15   20 ar
  32   16   17 ar
  33   17   18 ar
  34   17   42 1
  35   18   19 ar
  36   18   43 1
  37   19   20 ar
  38   19   44 1
  39   20   45 1
  40   21   22 1
  41   21   23 2
  42   22   24 ar
  43   22   28 ar
  44   24   25 ar
  45   24   46 1
  46   25   26 ar
  47   25   47 1
  48   26   27 ar
  49   26   48 1
  50   27   28 ar
  51   27   29 1
  52   28   49 1

#	End of record

