#	Name: ASD10410098
#	Creating user name:	WinNT
#	Creation time:	15. 06. 2019 21:26

#	Modifying user name:	WinNT
#	Modification time:	15. 06. 2019 21:26

#	Program:	/corina/corina34_cracker 3.40 0067  02.08.2006

@<TRIPOS>MOLECULE
ASD10410098
  71   78    0    0    0
SMALL
NO_CHARGES


@<TRIPOS>ATOM
   1 C1            -0.0415     1.3950    -0.0541 C.ar    
   2 C2            -0.0105     0.0112     0.0581 C.ar    
   3 C3             1.2057    -0.6491     0.1734 C.ar    
   4 C4             2.3843     0.0703     0.1765 C.ar    
   5 C5             2.3534     1.4542     0.0638 C.ar    
   6 C6             1.1371     2.1144    -0.0515 C.ar    
   7 N7             3.5486     2.1838     0.0674 N.pl3   
   8 C8             3.6348     3.3842    -0.6370 C.2     
   9 N9             4.6621     4.1992    -0.6270 N.2     
  10 N10            2.6846     3.8850    -1.4353 N.2     
  11 C11            3.0889     5.0298    -1.9423 C.2     
  12 N12            4.3373     5.2793    -1.4636 N.pl3   
  13 C13            5.1337     6.3847    -1.7460 C.ar    
  14 N14            2.3743     5.8333    -2.8095 N.pl3   
  15 N15           -1.2052    -0.7181     0.0554 N.3     
  16 C16           -0.9434    -2.1584     0.1839 C.3     
  17 C17           -2.2737    -2.9115     0.2569 C.3     
  18 N18           -3.0611    -2.6281    -0.9511 N.3     
  19 C19           -3.3229    -1.1877    -1.0796 C.3     
  20 C20           -1.9926    -0.4346    -1.1526 C.3     
  21 N21            5.3057     6.7911    -2.9949 N.ar    
  22 C22            6.0597     7.8382    -3.2752 C.ar    
  23 N23            6.6754     8.5287    -2.3431 N.ar    
  24 C24            6.5607     8.1934    -1.0510 C.ar    
  25 C25            5.7714     7.1004    -0.7028 C.ar    
  26 C26           -5.1265    -3.0935    -2.2349 C.3     
  27 C27           -5.2437    -4.4697    -2.9585 C.3     
  28 C28           -3.8001    -4.7675    -3.4671 C.3     
  29 C29           -2.9885    -5.0674    -2.1861 C.3     
  30 C30           -4.3149    -3.3934    -0.9539 C.3     
  31 C31           -4.0182    -4.9226    -1.0242 C.3     
  32 C32           -5.3231    -5.4393    -1.7268 C.3     
  33 S33            7.2483     8.9070     0.3961 S.3     
  34 C34            6.4686     7.7216     1.4430 C.2     
  35 C35            5.7438     6.8609     0.7425 C.2     
  36 C36            6.3847     7.4033     2.9332 C.3     
  37 C37            5.1509     6.4896     3.0729 C.3     
  38 C38            5.0814     5.8468     1.6753 C.3     
  39 H39           -0.9871     1.9082    -0.1479 H       
  40 H40            1.2298    -1.7253     0.2610 H       
  41 H41            3.3301    -0.4431     0.2669 H       
  42 H42            1.1130     3.1906    -0.1395 H       
  43 H43            4.3166     1.8542     0.5599 H       
  44 H44            1.4870     5.5672    -3.0975 H       
  45 H45            2.7597     6.6636    -3.1304 H       
  46 H46           -0.3770    -2.5036    -0.6810 H       
  47 H47           -0.3700    -2.3441     1.0922 H       
  48 H48           -2.0821    -3.9825     0.3231 H       
  49 H49           -2.8281    -2.5859     1.1371 H       
  50 H50           -3.8963    -1.0020    -1.9878 H       
  51 H51           -3.8893    -0.8425    -0.2146 H       
  52 H52           -2.1842     0.6364    -1.2188 H       
  53 H53           -1.4381    -0.7602    -2.0328 H       
  54 H54            6.1744     8.1370    -4.3067 H       
  55 H55           -4.5951    -2.3782    -2.8626 H       
  56 H56           -6.1154    -2.7138    -1.9781 H       
  57 H57           -6.0369    -4.5513    -3.7016 H       
  58 H58           -3.8013    -5.6344    -4.1278 H       
  59 H59           -3.3912    -3.8976    -3.9810 H       
  60 H60           -2.5907    -6.0818    -2.2170 H       
  61 H61           -2.1807    -4.3449    -2.0702 H       
  62 H62           -4.9041    -3.1592    -0.0673 H       
  63 H63           -3.7443    -5.3986    -0.0826 H       
  64 H64           -6.2118    -5.2596    -1.1218 H       
  65 H65           -5.2409    -6.4848    -2.0237 H       
  66 H66            7.2832     6.8801     3.2605 H       
  67 H67            6.2463     8.3182     3.5093 H       
  68 H68            5.3082     5.7359     3.8445 H       
  69 H69            4.2532     7.0734     3.2762 H       
  70 H70            4.0437     5.6838     1.3843 H       
  71 H71            5.6318     4.9061     1.6628 H       
@<TRIPOS>BOND
   1    1    2 ar
   2    1    6 ar
   3    1   39 1
   4    2    3 ar
   5    2   15 1
   6    3    4 ar
   7    3   40 1
   8    4    5 ar
   9    4   41 1
  10    5    6 ar
  11    5    7 1
  12    6   42 1
  13    7    8 1
  14    7   43 1
  15    8    9 2
  16    8   10 1
  17    9   12 1
  18   10   11 2
  19   11   12 1
  20   11   14 1
  21   12   13 1
  22   13   21 ar
  23   13   25 ar
  24   14   44 1
  25   14   45 1
  26   15   16 1
  27   15   20 1
  28   16   17 1
  29   16   46 1
  30   16   47 1
  31   17   18 1
  32   17   48 1
  33   17   49 1
  34   18   19 1
  35   18   30 1
  36   19   20 1
  37   19   50 1
  38   19   51 1
  39   20   52 1
  40   20   53 1
  41   21   22 ar
  42   22   23 ar
  43   22   54 1
  44   23   24 ar
  45   24   25 ar
  46   24   33 1
  47   25   35 1
  48   26   27 1
  49   26   30 1
  50   26   55 1
  51   26   56 1
  52   27   28 1
  53   27   32 1
  54   27   57 1
  55   28   29 1
  56   28   58 1
  57   28   59 1
  58   29   31 1
  59   29   60 1
  60   29   61 1
  61   30   31 1
  62   30   62 1
  63   31   32 1
  64   31   63 1
  65   32   64 1
  66   32   65 1
  67   33   34 1
  68   34   35 2
  69   34   36 1
  70   35   38 1
  71   36   37 1
  72   36   66 1
  73   36   67 1
  74   37   38 1
  75   37   68 1
  76   37   69 1
  77   38   70 1
  78   38   71 1

#	End of record

