#	Name: ASD10160051
#	Creating user name:	WinNT
#	Creation time:	15. 06. 2019 21:25

#	Modifying user name:	WinNT
#	Modification time:	15. 06. 2019 21:25

#	Program:	/corina/corina34_cracker 3.40 0067  02.08.2006

@<TRIPOS>MOLECULE
ASD10160051
  45   46    0    0    0
SMALL
NO_CHARGES


@<TRIPOS>ATOM
   1 C1            -2.2258    -2.6050     4.8651 C.2     
   2 C2            -1.6250    -3.0071     3.5801 C.ar    
   3 C3            -0.3005    -3.4579     3.5349 C.ar    
   4 C4             0.2574    -3.8337     2.3295 C.ar    
   5 C5            -0.4933    -3.7649     1.1635 C.ar    
   6 C6            -1.8113    -3.3169     1.2043 C.ar    
   7 C7            -2.3783    -2.9448     2.4037 C.ar    
   8 O8            -1.5706    -2.6648     5.8878 O.2     
   9 N9            -3.4995    -2.1660     4.9054 N.am    
  10 S10           -4.1743    -1.7144     6.3487 S.o2    
  11 O11           -5.5038    -1.3419     6.0126 O.2     
  12 O12           -3.9176    -2.8118     7.2142 O.2     
  13 C13           -3.2165    -0.2617     6.8614 C.3     
  14 F14           -2.5369    -3.2521     0.0665 F       
  15 F15            0.4307    -3.5247     4.6690 F       
  16 O16            0.0593    -4.1349    -0.0197 O.3     
  17 C17            2.4218    -3.8528    -0.1444 C.ar    
  18 C18            1.3101    -4.6677    -0.0012 C.ar    
  19 C19            1.4898    -6.0385     0.1622 C.ar    
  20 C20            2.7816    -6.5370     0.1754 C.ar    
  21 C21            3.8479    -5.6584     0.0260 C.ar    
  22 N22            3.6389    -4.3620    -0.1271 N.ar    
  23 Cl23           3.0655    -8.2378     0.3764 Cl      
  24 O24            5.1185    -6.1368     0.0374 O.3     
  25 C25            6.1718    -5.1842    -0.1206 C.3     
  26 C26            6.1079    -4.1601     1.0143 C.3     
  27 C27            7.5211    -5.9046    -0.0821 C.3     
  28 C28            6.0143    -4.4678    -1.4634 C.3     
  29 H29            1.2793    -4.1813     2.2933 H       
  30 H30           -3.4019    -2.6018     2.4347 H       
  31 H31           -4.0208    -2.1146     4.0891 H       
  32 H32           -3.3091     0.5194     6.1067 H       
  33 H33           -3.5970     0.1066     7.8141 H       
  34 H34           -2.1679    -0.5382     6.9713 H       
  35 H35            2.2902    -2.7890    -0.2761 H       
  36 H36            0.6418    -6.6974     0.2764 H       
  37 H37            6.2201    -4.6705     1.9709 H       
  38 H38            6.9113    -3.4334     0.8937 H       
  39 H39            5.1466    -3.6469     0.9869 H       
  40 H40            7.5666    -6.6341    -0.8907 H       
  41 H41            8.3245    -5.1779    -0.2027 H       
  42 H42            7.6333    -6.4149     0.8745 H       
  43 H43            5.0531    -3.9546    -1.4908 H       
  44 H44            6.8178    -3.7411    -1.5840 H       
  45 H45            6.0599    -5.1974    -2.2719 H       
@<TRIPOS>BOND
   1    1    2 1
   2    1    8 2
   3    1    9 am
   4    2    3 ar
   5    2    7 ar
   6    3    4 ar
   7    3   15 1
   8    4    5 ar
   9    4   29 1
  10    5    6 ar
  11    5   16 1
  12    6    7 ar
  13    6   14 1
  14    7   30 1
  15    9   10 am
  16    9   31 1
  17   10   11 2
  18   10   12 2
  19   10   13 1
  20   13   32 1
  21   13   33 1
  22   13   34 1
  23   16   18 1
  24   17   18 ar
  25   17   22 ar
  26   17   35 1
  27   18   19 ar
  28   19   20 ar
  29   19   36 1
  30   20   21 ar
  31   20   23 1
  32   21   22 ar
  33   21   24 1
  34   24   25 1
  35   25   26 1
  36   25   28 1
  37   25   27 1
  38   26   37 1
  39   26   38 1
  40   26   39 1
  41   27   40 1
  42   27   41 1
  43   27   42 1
  44   28   43 1
  45   28   44 1
  46   28   45 1

#	End of record

