#	Name: ASD10870003
#	Creating user name:	WinNT
#	Creation time:	15. 06. 2019 21:28

#	Modifying user name:	WinNT
#	Modification time:	15. 06. 2019 21:28

#	Program:	/corina/corina34_cracker 3.40 0067  02.08.2006

@<TRIPOS>MOLECULE
ASD10870003
  43   45    0    0    0
SMALL
NO_CHARGES


@<TRIPOS>ATOM
   1 C1            -0.1733     1.4844    -0.0068 C.ar    
   2 C2            -0.1548     0.1034    -0.1140 C.ar    
   3 C3             1.0451    -0.5782    -0.1566 C.ar    
   4 C4             2.2438     0.1191    -0.0922 C.ar    
   5 C5             2.2286     1.5182     0.0164 C.ar    
   6 C6             1.0069     2.1935     0.0585 C.ar    
   7 C7             3.4951     2.2707     0.0862 C.2     
   8 N8             3.4793     3.6183     0.0829 N.am    
   9 O9             4.5536     1.6752     0.1468 O.2     
  10 N10            3.4548    -0.5661    -0.1346 N.am    
  11 C11            3.5646    -1.7770     0.4469 C.2     
  12 C12            4.8751    -2.4591     0.4919 C.ar    
  13 O13            2.5859    -2.3082     0.9343 O.2     
  14 C14            4.9923    -3.7134     1.0934 C.ar    
  15 C15            6.2183    -4.3447     1.1316 C.ar    
  16 C16            7.3303    -3.7373     0.5758 C.ar    
  17 C17            7.2212    -2.4940    -0.0215 C.ar    
  18 C18            5.9999    -1.8545    -0.0720 C.ar    
  19 C19            4.6670     4.3321     0.2720 C.ar    
  20 C20            4.7946     5.6180    -0.2365 C.ar    
  21 C21            5.7195     3.7584     0.9739 C.ar    
  22 C22            6.8909     4.4658     1.1589 C.ar    
  23 C23            7.0169     5.7441     0.6462 C.ar    
  24 C24            5.9690     6.3202    -0.0479 C.ar    
  25 C25            6.1086     7.7155    -0.5999 C.3     
  26 F26            5.6759     8.6407     0.3562 F       
  27 F27            7.4498     7.9612    -0.9130 F       
  28 F28            5.3296     7.8401    -1.7553 F       
  29 H29           -1.1172     2.0085     0.0213 H       
  30 H30           -1.0847    -0.4435    -0.1641 H       
  31 H31            1.0511    -1.6549    -0.2399 H       
  32 H32            0.9869     3.2701     0.1417 H       
  33 H33            2.6441     4.0932    -0.0508 H       
  34 H34            4.2196    -0.1721    -0.5827 H       
  35 H35            4.1252    -4.1882     1.5282 H       
  36 H36            6.3104    -5.3151     1.5967 H       
  37 H37            8.2879    -4.2357     0.6087 H       
  38 H38            8.0931    -2.0252    -0.4532 H       
  39 H39            5.9150    -0.8862    -0.5428 H       
  40 H40            3.9766     6.0684    -0.7791 H       
  41 H41            5.6217     2.7603     1.3748 H       
  42 H42            7.7095     4.0205     1.7048 H       
  43 H43            7.9341     6.2953     0.7923 H       
@<TRIPOS>BOND
   1    1    2 ar
   2    1    6 ar
   3    1   29 1
   4    2    3 ar
   5    2   30 1
   6    3    4 ar
   7    3   31 1
   8    4    5 ar
   9    4   10 1
  10    5    6 ar
  11    5    7 1
  12    6   32 1
  13    7    8 am
  14    7    9 2
  15    8   19 1
  16    8   33 1
  17   10   11 am
  18   10   34 1
  19   11   12 1
  20   11   13 2
  21   12   14 ar
  22   12   18 ar
  23   14   15 ar
  24   14   35 1
  25   15   16 ar
  26   15   36 1
  27   16   17 ar
  28   16   37 1
  29   17   18 ar
  30   17   38 1
  31   18   39 1
  32   19   21 ar
  33   19   20 ar
  34   20   24 ar
  35   20   40 1
  36   21   22 ar
  37   21   41 1
  38   22   23 ar
  39   22   42 1
  40   23   24 ar
  41   23   43 1
  42   24   25 1
  43   25   26 1
  44   25   27 1
  45   25   28 1

#	End of record

