#	Name: ASD13010002
#	Creating user name:	WinNT
#	Creation time:	15. 06. 2019 21:30

#	Modifying user name:	WinNT
#	Modification time:	15. 06. 2019 21:30

#	Program:	/corina/corina34_cracker 3.40 0067  02.08.2006

@<TRIPOS>MOLECULE
ASD13010002
  41   44    0    0    0
SMALL
NO_CHARGES


@<TRIPOS>ATOM
   1 C1            -0.0703     2.2480    -0.0228 C.ar    
   2 C2            -0.2916     0.8901     0.0289 C.ar    
   3 C3             0.7739    -0.0006     0.0594 C.ar    
   4 C4             2.0610     0.4539     0.0382 C.ar    
   5 C5             1.2333     2.7345    -0.0452 C.ar    
   6 N6             1.7777     3.9949    -0.0942 N.pl3   
   7 C7             2.3112     1.8288    -0.0146 C.ar    
   8 C8             3.5270     2.6370    -0.0494 C.2     
   9 N9             3.1724     3.8895    -0.0947 N.2     
  10 C10            1.0555     5.1881    -0.1367 C.ar    
  11 C11            4.9405     2.1148    -0.0341 C.3     
  12 C12            5.4703     2.1406     1.3765 C.ar    
  13 C13            6.0149     3.3039     1.8899 C.ar    
  14 C14            5.4069     1.0025     2.1603 C.ar    
  15 C15            5.8935     1.0268     3.4553 C.ar    
  16 C16            6.4424     2.1880     3.9660 C.ar    
  17 C17            6.5012     3.3269     3.1850 C.ar    
  18 Cl18           6.0889     4.7344     0.9092 Cl      
  19 C19           -0.3789     7.5578    -0.2206 C.ar    
  20 C20           -0.8689     6.4189    -0.8667 C.ar    
  21 C21           -0.1540     5.2434    -0.8224 C.ar    
  22 C22            1.5438     6.3184     0.5116 C.ar    
  23 C23            0.8338     7.4971     0.4722 C.ar    
  24 C24           -1.1417     8.8191    -0.2663 C.2     
  25 O25           -2.1973     8.8694    -0.8660 O.2     
  26 O26           -0.6681     9.9159     0.3570 O.3     
  27 Cl27           4.7166    -0.4557     1.5195 Cl      
  28 H28           -0.9050     2.9327    -0.0503 H       
  29 H29           -1.3038     0.5137     0.0462 H       
  30 H30            0.5822    -1.0626     0.1005 H       
  31 H31            2.8831    -0.2460     0.0626 H       
  32 H32            4.9538     1.0912    -0.4085 H       
  33 H33            5.5665     2.7420    -0.6688 H       
  34 H34            5.8441     0.1383     4.0674 H       
  35 H35            6.8215     2.2067     4.9771 H       
  36 H36            6.9265     4.2351     3.5860 H       
  37 H37           -1.8054     6.4622    -1.4028 H       
  38 H38           -0.5322     4.3630    -1.3207 H       
  39 H39            2.4808     6.2708     1.0466 H       
  40 H40            1.2152     8.3749     0.9725 H       
  41 H41           -1.2032    10.7193     0.2992 H       
@<TRIPOS>BOND
   1    1    2 ar
   2    1    5 ar
   3    1   28 1
   4    2    3 ar
   5    2   29 1
   6    3    4 ar
   7    3   30 1
   8    4    7 ar
   9    4   31 1
  10    5    7 ar
  11    5    6 1
  12    6    9 1
  13    6   10 1
  14    7    8 1
  15    8    9 2
  16    8   11 1
  17   10   22 ar
  18   10   21 ar
  19   11   12 1
  20   11   32 1
  21   11   33 1
  22   12   14 ar
  23   12   13 ar
  24   13   17 ar
  25   13   18 1
  26   14   15 ar
  27   14   27 1
  28   15   16 ar
  29   15   34 1
  30   16   17 ar
  31   16   35 1
  32   17   36 1
  33   19   20 ar
  34   19   23 ar
  35   19   24 1
  36   20   21 ar
  37   20   37 1
  38   21   38 1
  39   22   23 ar
  40   22   39 1
  41   23   40 1
  42   24   25 2
  43   24   26 1
  44   26   41 1

#	End of record

