#	Name: ASD10410134
#	Creating user name:	WinNT
#	Creation time:	15. 06. 2019 21:26

#	Modifying user name:	WinNT
#	Modification time:	15. 06. 2019 21:26

#	Program:	/corina/corina34_cracker 3.40 0067  02.08.2006

@<TRIPOS>MOLECULE
ASD10410134
  70   76    0    0    0
SMALL
NO_CHARGES


@<TRIPOS>ATOM
   1 C1            -0.1505     1.4583    -0.2305 C.ar    
   2 C2            -0.0898     0.0757    -0.1305 C.ar    
   3 C3             1.1432    -0.5610    -0.0357 C.ar    
   4 C4             2.3071     0.1841    -0.0413 C.ar    
   5 C5             2.2447     1.5682    -0.1414 C.ar    
   6 C6             1.0134     2.2028    -0.2359 C.ar    
   7 F7             1.2029    -1.9071     0.0621 F       
   8 N8             3.4237     2.3236    -0.1466 N.pl3   
   9 C9             3.4759     3.5295    -0.8444 C.2     
  10 N10            4.4854     4.3667    -0.8406 N.2     
  11 N11            2.5062     4.0142    -1.6291 N.2     
  12 C12            2.8797     5.1705    -2.1336 C.2     
  13 N13            4.1280     5.4445    -1.6669 N.pl3   
  14 C14            4.8965     6.5674    -1.9513 C.ar    
  15 N15            2.1383     5.9632    -2.9877 N.pl3   
  16 N16           -1.2706    -0.6790    -0.1245 N.3     
  17 C17           -2.1302    -0.3030     1.0066 C.3     
  18 C18           -3.4402    -1.0909     0.9322 C.3     
  19 N19           -3.1451    -2.5303     0.9544 N.3     
  20 C20           -2.2856    -2.9062    -0.1767 C.3     
  21 C21           -0.9755    -2.1184    -0.1023 C.3     
  22 N22            5.0241     6.9668    -3.1928 N.ar    
  23 C23            5.7470     8.0403    -3.5529 C.ar    
  24 C24            6.4267     8.8165    -2.5873 C.ar    
  25 C25            6.3287     8.4281    -1.1762 C.ar    
  26 C26            5.5478     7.2920    -0.8608 C.ar    
  27 C27           -4.3829    -3.3214     0.9607 C.3     
  28 C28            6.9649     9.1353    -0.1587 C.ar    
  29 C29            6.8309     8.7181     1.1367 C.ar    
  30 C30            6.0688     7.5991     1.4489 C.ar    
  31 C31            5.4295     6.8896     0.4719 C.ar    
  32 C32            5.8393     8.4100    -4.9040 C.ar    
  33 C33            6.5750     9.5004    -5.2631 C.ar    
  34 C34            7.2412    10.2589    -4.3084 C.ar    
  35 C35            7.1722     9.9267    -2.9851 C.ar    
  36 C36           -4.0488    -4.8224     1.0172 C.3     
  37 C37           -4.6804    -5.3659     2.3155 C.3     
  38 C38           -5.8226    -4.3677     2.6290 C.3     
  39 C39           -5.2058    -3.0051     2.2266 C.3     
  40 H40           -1.1077     1.9524    -0.3085 H       
  41 H41            3.2648    -0.3095     0.0326 H       
  42 H42            0.9654     3.2789    -0.3137 H       
  43 H43            4.2041     2.0079     0.3353 H       
  44 H44            1.2539     5.6796    -3.2675 H       
  45 H45            2.5019     6.8036    -3.3077 H       
  46 H46           -1.6206    -0.5323     1.9425 H       
  47 H47           -2.3448     0.7646     0.9611 H       
  48 H48           -4.0674    -0.8350     1.7862 H       
  49 H49           -3.9629    -0.8410     0.0089 H       
  50 H50           -2.0709    -3.9739    -0.1312 H       
  51 H51           -2.7951    -2.6770    -1.1126 H       
  52 H52           -0.3483    -2.3743    -0.9563 H       
  53 H53           -0.4528    -2.3683     0.8209 H       
  54 H54           -4.9699    -3.1029     0.0686 H       
  55 H55            7.5598    10.0062    -0.3911 H       
  56 H56            7.3238     9.2650     1.9268 H       
  57 H57            5.9774     7.2879     2.4790 H       
  58 H58            4.8401     6.0215     0.7276 H       
  59 H59            5.3282     7.8307    -5.6587 H       
  60 H60            6.6412     9.7783    -6.3046 H       
  61 H61            7.8186    11.1185    -4.6152 H       
  62 H62            7.6930    10.5216    -2.2493 H       
  63 H63           -4.4744    -5.3325     0.1530 H       
  64 H64           -2.9683    -4.9638     1.0400 H       
  65 H65           -5.0816    -6.3665     2.1548 H       
  66 H66           -3.9476    -5.3727     3.1224 H       
  67 H67           -6.7033    -4.5865     2.0252 H       
  68 H68           -6.0676    -4.3823     3.6910 H       
  69 H69           -4.5579    -2.6307     3.0191 H       
  70 H70           -5.9904    -2.2830     2.0010 H       
@<TRIPOS>BOND
   1    1    2 ar
   2    1    6 ar
   3    1   40 1
   4    2    3 ar
   5    2   16 1
   6    3    4 ar
   7    3    7 1
   8    4    5 ar
   9    4   41 1
  10    5    6 ar
  11    5    8 1
  12    6   42 1
  13    8    9 1
  14    8   43 1
  15    9   10 2
  16    9   11 1
  17   10   13 1
  18   11   12 2
  19   12   13 1
  20   12   15 1
  21   13   14 1
  22   14   22 ar
  23   14   26 ar
  24   15   44 1
  25   15   45 1
  26   16   17 1
  27   16   21 1
  28   17   18 1
  29   17   46 1
  30   17   47 1
  31   18   19 1
  32   18   48 1
  33   18   49 1
  34   19   20 1
  35   19   27 1
  36   20   21 1
  37   20   50 1
  38   20   51 1
  39   21   52 1
  40   21   53 1
  41   22   23 ar
  42   23   24 ar
  43   23   32 ar
  44   24   25 ar
  45   24   35 ar
  46   25   26 ar
  47   25   28 ar
  48   26   31 ar
  49   27   36 1
  50   27   39 1
  51   27   54 1
  52   28   29 ar
  53   28   55 1
  54   29   30 ar
  55   29   56 1
  56   30   31 ar
  57   30   57 1
  58   31   58 1
  59   32   33 ar
  60   32   59 1
  61   33   34 ar
  62   33   60 1
  63   34   35 ar
  64   34   61 1
  65   35   62 1
  66   36   37 1
  67   36   63 1
  68   36   64 1
  69   37   38 1
  70   37   65 1
  71   37   66 1
  72   38   39 1
  73   38   67 1
  74   38   68 1
  75   39   69 1
  76   39   70 1

#	End of record

