#	Name: ASD14740004
#	Creating user name:	WinNT
#	Creation time:	15. 06. 2019 21:31

#	Modifying user name:	WinNT
#	Modification time:	15. 06. 2019 21:31

#	Program:	/corina/corina34_cracker 3.40 0067  02.08.2006

@<TRIPOS>MOLECULE
ASD14740004
  69   74    0    0    0
SMALL
NO_CHARGES


@<TRIPOS>ATOM
   1 C1            -0.5399     1.3048     1.9247 C.ar    
   2 C2             0.0176     0.2115     1.2659 C.ar    
   3 C3             1.0372    -0.5094     1.8648 C.ar    
   4 C4             1.5014    -0.1410     3.1204 C.ar    
   5 C5             0.9436     0.9491     3.7754 C.ar    
   6 C6            -0.0734     1.6696     3.1788 C.ar    
   7 N7             2.5316    -0.8688     3.7263 N.3     
   8 C8             2.8662    -0.3108     5.0440 C.3     
   9 C9             3.9383    -1.1797     5.7058 C.3     
  10 N10            5.1259    -1.2307     4.8416 N.3     
  11 C11            4.7913    -1.7888     3.5240 C.3     
  12 C12            3.7192    -0.9199     2.8622 C.3     
  13 C13            6.2074    -1.9948     5.4777 C.3     
  14 N14           -1.5692     2.0403     1.3172 N.pl3   
  15 C15           -1.7049     3.3919     1.5844 C.ar    
  16 C16           -0.8841     5.2909     2.6078 C.ar    
  17 N17           -0.7846     4.0026     2.3166 N.ar    
  18 N18           -2.7508     4.0474     1.0970 N.ar    
  19 C19           -2.9004     5.3378     1.3393 C.ar    
  20 C20           -1.9696     6.0056     2.1351 C.ar    
  21 C21           -2.1461     7.4516     2.5030 C.3     
  22 C22           -3.9682     7.4325     0.8319 C.2     
  23 C23           -2.8133     8.2380     1.3722 C.3     
  24 N24           -3.9670     6.0675     0.8131 N.pl3   
  25 C25           -5.1191     5.6148     0.2484 C.2     
  26 C26           -5.8782     6.6705    -0.1001 C.2     
  27 C27           -5.1243     7.8738     0.2796 C.2     
  28 C28           -5.5352     9.2750     0.0891 C.2     
  29 O29           -4.8016    10.1777     0.4450 O.2     
  30 N30           -6.7240     9.5573    -0.4796 N.am    
  31 O31           -0.4389    -0.1479     0.0364 O.3     
  32 C32            0.1793    -1.2792    -0.5801 C.3     
  33 C33           -7.1663    10.8846    -0.5567 C.ar    
  34 C34           -6.7431    13.1918    -1.0680 C.ar    
  35 C35           -6.3028    11.8825    -0.9933 C.ar    
  36 C36           -8.4713    11.2060    -0.2023 C.ar    
  37 C37           -8.9041    12.5176    -0.2798 C.ar    
  38 C38           -8.0403    13.5083    -0.7091 C.ar    
  39 F39           -5.0349    11.5742    -1.3438 F       
  40 F40           -9.3161    10.2386     0.2169 F       
  41 H41            1.4705    -1.3576     1.3558 H       
  42 H42            1.3052     1.2342     4.7523 H       
  43 H43           -0.5057     2.5173     3.6897 H       
  44 H44            3.2442     0.7045     4.9236 H       
  45 H45            1.9737    -0.2951     5.6696 H       
  46 H46            4.2090    -0.7514     6.6708 H       
  47 H47            3.5506    -2.1880     5.8509 H       
  48 H48            5.6838    -1.8045     2.8984 H       
  49 H49            4.4133    -2.8040     3.6444 H       
  50 H50            3.4486    -1.3482     1.8972 H       
  51 H51            4.1069     0.0885     2.7171 H       
  52 H52            5.8694    -3.0135     5.6678 H       
  53 H53            7.0740    -2.0168     4.8170 H       
  54 H54            6.4812    -1.5210     6.4204 H       
  55 H55           -2.1856     1.6017     0.7101 H       
  56 H56           -0.1278     5.7766     3.2067 H       
  57 H57           -2.7651     7.5189     3.3976 H       
  58 H58           -1.1695     7.8878     2.7128 H       
  59 H59           -3.1803     9.1897     1.7566 H       
  60 H60           -2.0902     8.4181     0.5768 H       
  61 H61           -5.3819     4.5773     0.1034 H       
  62 H62           -6.8512     6.6394    -0.5678 H       
  63 H63           -7.2735     8.8415    -0.8355 H       
  64 H64           -0.2772    -1.4571    -1.5537 H       
  65 H65            1.2445    -1.0864    -0.7080 H       
  66 H66            0.0422    -2.1571     0.0513 H       
  67 H67           -6.0726    13.9677    -1.4068 H       
  68 H68           -9.9180    12.7681    -0.0049 H       
  69 H69           -8.3812    14.5314    -0.7685 H       
@<TRIPOS>BOND
   1    1    2 ar
   2    1    6 ar
   3    1   14 1
   4    2    3 ar
   5    2   31 1
   6    3    4 ar
   7    3   41 1
   8    4    5 ar
   9    4    7 1
  10    5    6 ar
  11    5   42 1
  12    6   43 1
  13    7    8 1
  14    7   12 1
  15    8    9 1
  16    8   44 1
  17    8   45 1
  18    9   10 1
  19    9   46 1
  20    9   47 1
  21   10   11 1
  22   10   13 1
  23   11   12 1
  24   11   48 1
  25   11   49 1
  26   12   50 1
  27   12   51 1
  28   13   52 1
  29   13   53 1
  30   13   54 1
  31   14   15 1
  32   14   55 1
  33   15   18 ar
  34   15   17 ar
  35   16   17 ar
  36   16   20 ar
  37   16   56 1
  38   18   19 ar
  39   19   20 ar
  40   19   24 1
  41   20   21 1
  42   21   23 1
  43   21   57 1
  44   21   58 1
  45   22   23 1
  46   22   27 2
  47   22   24 1
  48   23   59 1
  49   23   60 1
  50   24   25 1
  51   25   26 2
  52   25   61 1
  53   26   27 1
  54   26   62 1
  55   27   28 1
  56   28   29 2
  57   28   30 am
  58   30   33 1
  59   30   63 1
  60   31   32 1
  61   32   64 1
  62   32   65 1
  63   32   66 1
  64   33   36 ar
  65   33   35 ar
  66   34   35 ar
  67   34   38 ar
  68   34   67 1
  69   35   39 1
  70   36   37 ar
  71   36   40 1
  72   37   38 ar
  73   37   68 1
  74   38   69 1

#	End of record

