#	Name: ASD14640030
#	Creating user name:	WinNT
#	Creation time:	15. 06. 2019 21:31

#	Modifying user name:	WinNT
#	Modification time:	15. 06. 2019 21:31

#	Program:	/corina/corina34_cracker 3.40 0067  02.08.2006

@<TRIPOS>MOLECULE
ASD14640030
  46   49    0    0    0
SMALL
NO_CHARGES


@<TRIPOS>ATOM
   1 C1            -0.2970     1.4017     0.0331 C.ar    
   2 C2            -1.0133     1.9533     1.0872 C.ar    
   3 C3            -1.0519    -1.9216    -0.9550 C.2     
   4 C4             2.6999     3.9529    -1.3893 C.3     
   5 C5            -0.9575     3.3133     1.3260 C.ar    
   6 C6             3.5457     4.9047    -2.1940 C.ar    
   7 C7             1.2376     5.8078    -0.9095 C.3     
   8 C8            -0.1892     4.1284     0.5179 C.ar    
   9 C9             3.1243     6.1844    -2.4848 C.ar    
  10 C10            1.7854     6.7003    -2.0235 C.3     
  11 C11            1.7648    -0.6278     1.0524 C.3     
  12 C12           -1.8525    -3.0038    -1.6325 C.3     
  13 C13            4.7815     4.4674    -2.6482 C.ar    
  14 C14            3.9394     7.0282    -3.2242 C.ar    
  15 C15            5.5910     5.3072    -3.3860 C.ar    
  16 C16            5.1690     6.5919    -3.6747 C.ar    
  17 N17           -0.3547     0.0221    -0.2083 N.pl3   
  18 N18           -1.8380     1.0835     1.9558 N.pl3   
  19 N19           -1.3388    -0.6447    -0.9495 N.2     
  20 C20            0.5349    -0.8997     0.2250 C.2     
  21 C21            0.4712     2.2180    -0.7842 C.ar    
  22 N22            1.3062     4.4074    -1.3562 N.3     
  23 C23            0.1228    -2.1099    -0.2185 C.2     
  24 C24            0.5301     3.5826    -0.5386 C.ar    
  25 O25           -2.5424     1.5765     2.8186 O.2     
  26 O26           -1.8122    -0.1252     1.8078 O.2     
  27 H27            2.7450     2.9616    -1.8402 H       
  28 H28            3.0860     3.9003    -0.3714 H       
  29 H29           -1.5161     3.7398     2.1461 H       
  30 H30            1.8391     5.9350    -0.0094 H       
  31 H31            0.2027     6.0780    -0.6994 H       
  32 H32           -0.1476     5.1909     0.7070 H       
  33 H33            1.0892     6.7005    -2.8622 H       
  34 H34            1.8991     7.7177    -1.6493 H       
  35 H35            1.5023    -0.6454     2.1101 H       
  36 H36            2.5145    -1.3930     0.8512 H       
  37 H37            2.1671     0.3518     0.7942 H       
  38 H38           -2.6017    -3.3887    -0.9406 H       
  39 H39           -2.3477    -2.5927    -2.5122 H       
  40 H40           -1.1874    -3.8127    -1.9347 H       
  41 H41            5.1122     3.4643    -2.4229 H       
  42 H42            3.6101     8.0319    -3.4492 H       
  43 H43            6.5520     4.9617    -3.7371 H       
  44 H44            5.8004     7.2526    -4.2502 H       
  45 H45            1.0256     1.7919    -1.6073 H       
  46 H46            0.6137    -3.0543    -0.0358 H       
@<TRIPOS>BOND
   1    1   17 1
   2    1   21 ar
   3    1    2 ar
   4    2    5 ar
   5    2   18 1
   6    3   23 1
   7    3   12 1
   8    3   19 2
   9    4   22 1
  10    4    6 1
  11    4   27 1
  12    4   28 1
  13    5    8 ar
  14    5   29 1
  15    6    9 ar
  16    6   13 ar
  17    7   10 1
  18    7   30 1
  19    7   31 1
  20    7   22 1
  21    8   24 ar
  22    8   32 1
  23    9   14 ar
  24    9   10 1
  25   10   33 1
  26   10   34 1
  27   11   35 1
  28   11   36 1
  29   11   37 1
  30   11   20 1
  31   12   38 1
  32   12   39 1
  33   12   40 1
  34   13   15 ar
  35   13   41 1
  36   14   42 1
  37   14   16 ar
  38   15   16 ar
  39   15   43 1
  40   16   44 1
  41   17   20 1
  42   17   19 1
  43   18   25 2
  44   18   26 2
  45   20   23 2
  46   21   45 1
  47   21   24 ar
  48   22   24 1
  49   23   46 1

#	End of record

