#	Name: ASD15280024
#	Creating user name:	WinNT
#	Creation time:	15. 06. 2019 21:31

#	Modifying user name:	WinNT
#	Modification time:	15. 06. 2019 21:31

#	Program:	/corina/corina34_cracker 3.40 0067  02.08.2006

@<TRIPOS>MOLECULE
ASD15280024
  53   57    0    0    0
SMALL
NO_CHARGES


@<TRIPOS>ATOM
   1 C1            -0.5031     1.4546     0.0319 C.3     
   2 C2            -0.2307    -0.0275     0.0122 C.ar    
   3 C3            -0.0994    -0.6916    -1.2036 C.ar    
   4 C4             0.1555    -2.0642    -1.2240 C.ar    
   5 C5             0.2812    -2.7516    -0.0345 C.ar    
   6 C6             0.1517    -2.0899     1.1717 C.ar    
   7 C7            -0.1057    -0.7261     1.2120 C.ar    
   8 N8            -0.2658    -0.0384     2.4003 N.am    
   9 C9             0.4253    -0.0577     3.5099 C.2     
  10 O10            0.0393     0.7009     4.3773 O.2     
  11 C11            1.5981    -0.8635     3.8569 C.ar    
  12 C12            2.6853    -0.2876     4.5257 C.ar    
  13 C13            3.7709    -1.0808     4.8427 C.ar    
  14 N14            3.7971    -2.3603     4.5276 N.ar    
  15 C15            2.7954    -2.9432     3.8951 C.ar    
  16 C16            1.6775    -2.2210     3.5407 C.ar    
  17 S17            0.3297    -2.9889     2.6814 S.o2    
  18 O18           -0.8446    -2.7403     3.4419 O.2     
  19 O19            0.7724    -4.2919     2.3272 O.2     
  20 C20           -0.2302     0.0556    -2.4728 C.2     
  21 O21           -0.3403     1.2660    -2.4569 O.2     
  22 N22           -0.2275    -0.6055    -3.6473 N.am    
  23 C23           -0.3572     0.1349    -4.9048 C.3     
  24 C24           -0.3257    -0.8305    -6.0616 C.2     
  25 C25           -1.3881    -1.4277    -6.6142 C.2     
  26 N26           -1.1333    -2.2354    -7.6165 N.2     
  27 C27            0.1146    -2.3707    -7.9660 C.2     
  28 S28            1.1160    -1.3619    -6.9251 S.3     
  29 C29            0.6096    -3.2277    -9.0622 C.ar    
  30 C30            1.9780    -3.2920    -9.3352 C.ar    
  31 C31            2.4399    -4.0903   -10.3563 C.ar    
  32 C32            1.5405    -4.8384   -11.1215 C.ar    
  33 C33            0.1708    -4.7759   -10.8496 C.ar    
  34 C34           -0.2918    -3.9801    -9.8238 C.ar    
  35 F35           -1.6149    -3.9227    -9.5567 F       
  36 C36            2.0223    -5.6685   -12.1842 C.1     
  37 N37            2.4046    -6.3270   -13.0273 N.1     
  38 H38            0.4349     1.9979    -0.0822 H       
  39 H39           -1.1739     1.7116    -0.7879 H       
  40 H40           -0.9673     1.7261     0.9800 H       
  41 H41            0.2534    -2.5847    -2.1652 H       
  42 H42            0.4816    -3.8128    -0.0460 H       
  43 H43           -1.0248     0.5655     2.4131 H       
  44 H44            2.6753     0.7597     4.7892 H       
  45 H45            4.6139    -0.6444     5.3578 H       
  46 H46            2.8532    -3.9942     3.6536 H       
  47 H47           -0.1397    -1.5714    -3.6600 H       
  48 H48           -1.3020     0.6784    -4.9107 H       
  49 H49            0.4685     0.8404    -4.9978 H       
  50 H50           -2.3928    -1.2558    -6.2572 H       
  51 H51            2.6738    -2.7144    -8.7447 H       
  52 H52            3.4981    -4.1387   -10.5670 H       
  53 H53           -0.5243    -5.3535   -11.4409 H       
@<TRIPOS>BOND
   1    1    2 1
   2    1   38 1
   3    1   39 1
   4    1   40 1
   5    2    7 ar
   6    2    3 ar
   7    3    4 ar
   8    3   20 1
   9    4    5 ar
  10    4   41 1
  11    5    6 ar
  12    5   42 1
  13    6   17 1
  14    6    7 ar
  15    7    8 1
  16    8    9 am
  17    8   43 1
  18    9   10 2
  19    9   11 1
  20   11   16 ar
  21   11   12 ar
  22   12   13 ar
  23   12   44 1
  24   13   14 ar
  25   13   45 1
  26   14   15 ar
  27   15   16 ar
  28   15   46 1
  29   16   17 1
  30   17   18 2
  31   17   19 2
  32   20   21 2
  33   20   22 am
  34   22   23 1
  35   22   47 1
  36   23   24 1
  37   23   48 1
  38   23   49 1
  39   24   28 1
  40   24   25 2
  41   25   26 1
  42   25   50 1
  43   26   27 2
  44   27   28 1
  45   27   29 1
  46   29   34 ar
  47   29   30 ar
  48   30   31 ar
  49   30   51 1
  50   31   32 ar
  51   31   52 1
  52   32   33 ar
  53   32   36 1
  54   33   34 ar
  55   33   53 1
  56   34   35 1
  57   36   37 3

#	End of record

