#	Name: ASD10410191
#	Creating user name:	WinNT
#	Creation time:	15. 06. 2019 21:27

#	Modifying user name:	WinNT
#	Modification time:	15. 06. 2019 21:27

#	Program:	/corina/corina34_cracker 3.40 0067  02.08.2006

@<TRIPOS>MOLECULE
ASD10410191
  67   73    0    0    0
SMALL
NO_CHARGES


@<TRIPOS>ATOM
   1 C1            -0.0142     1.2930    -0.3678 C.ar    
   2 C2             0.0368    -0.0541    -0.0393 C.ar    
   3 C3             1.2547    -0.6470     0.2767 C.ar    
   4 C4             2.4133     0.1064     0.2633 C.ar    
   5 C5             2.3605     1.4550    -0.0658 C.ar    
   6 C6             1.1443     2.0457    -0.3811 C.ar    
   7 F7             1.3050    -1.9585     0.5970 F       
   8 N8             3.5340     2.2187    -0.0791 N.pl3   
   9 C9             3.6665     3.2779    -0.9764 C.2     
  10 N10            4.6655     4.1269    -1.0081 N.2     
  11 N11            2.7973     3.5864    -1.9461 N.2     
  12 C12            3.2257     4.6401    -2.6074 C.2     
  13 N13            4.4071     5.0260    -2.0554 N.pl3   
  14 C14            5.2025     6.0992    -2.4502 C.ar    
  15 N15            2.5903     5.2446    -3.6749 N.pl3   
  16 N16           -1.1386    -0.8171    -0.0256 N.3     
  17 C17           -2.1054    -0.2775     0.9407 C.3     
  18 C18           -3.4015    -1.0883     0.8684 C.3     
  19 N19           -3.1095    -2.5002     1.1525 N.3     
  20 C20           -2.1427    -3.0398     0.1862 C.3     
  21 C21           -0.8466    -2.2291     0.2585 C.3     
  22 C22           -4.3957    -0.5547     1.9018 C.3     
  23 N23            4.8359     6.8732    -3.4636 N.ar    
  24 C24            5.5869     7.8930    -3.8424 C.ar    
  25 N25            6.7170     8.1942    -3.2505 N.ar    
  26 C26            7.1754     7.4652    -2.2084 C.ar    
  27 C27            6.4010     6.3828    -1.7794 C.ar    
  28 C28           -4.3416    -3.3000     1.1669 C.3     
  29 C29           -4.0021    -4.8218     1.1490 C.3     
  30 C30           -5.1074    -3.0861     2.4925 C.3     
  31 C31           -5.1585    -4.4988     3.1507 C.3     
  32 C32           -2.9220    -4.9939     2.2603 C.3     
  33 C33           -3.6879    -4.7800     3.5860 C.3     
  34 C34           -5.2629    -5.4089     1.8763 C.3     
  35 C35            8.3457     7.6221    -1.4494 C.2     
  36 C36            8.5254     6.7399    -0.4791 C.2     
  37 S37            7.1953     5.5952    -0.4238 S.3     
  38 Cl38           5.0564     8.8704    -5.1753 Cl      
  39 H39           -0.9593     1.7523    -0.6176 H       
  40 H40            3.3593    -0.3531     0.5089 H       
  41 H41            1.1039     3.0941    -0.6372 H       
  42 H42            4.2548     2.0110     0.5359 H       
  43 H43            1.7471     4.8924    -4.0001 H       
  44 H44            2.9875     6.0212    -4.0992 H       
  45 H45           -1.6903    -0.3443     1.9464 H       
  46 H46           -2.3149     0.7652     0.7019 H       
  47 H47           -3.8309    -0.9993    -0.1295 H       
  48 H48           -1.9332    -4.0825     0.4250 H       
  49 H49           -2.5578    -2.9731    -0.8195 H       
  50 H50           -0.1383    -2.6092    -0.4777 H       
  51 H51           -0.4172    -2.3180     1.2564 H       
  52 H52           -4.5153     0.5206     1.7695 H       
  53 H53           -5.3590    -1.0467     1.7670 H       
  54 H54           -4.0211    -0.7579     2.9050 H       
  55 H55           -4.9717    -3.0412     0.3160 H       
  56 H56           -3.7546    -5.2433     0.1747 H       
  57 H57           -4.5697    -2.3875     3.1335 H       
  58 H58           -6.1157    -2.7225     2.2945 H       
  59 H59           -5.9181    -4.6390     3.9197 H       
  60 H60           -2.4967    -5.9969     2.2248 H       
  61 H61           -2.1390    -4.2440     2.1486 H       
  62 H62           -3.2813    -3.9249     4.1260 H       
  63 H63           -3.6390    -5.6778     4.2022 H       
  64 H64           -6.1801    -5.2252     1.3168 H       
  65 H65           -5.1411    -6.4650     2.1171 H       
  66 H66            9.0551     8.4126    -1.6450 H       
  67 H67            9.3736     6.7275     0.1894 H       
@<TRIPOS>BOND
   1    1    2 ar
   2    1    6 ar
   3    1   39 1
   4    2    3 ar
   5    2   16 1
   6    3    4 ar
   7    3    7 1
   8    4    5 ar
   9    4   40 1
  10    5    6 ar
  11    5    8 1
  12    6   41 1
  13    8    9 1
  14    8   42 1
  15    9   10 2
  16    9   11 1
  17   10   13 1
  18   11   12 2
  19   12   13 1
  20   12   15 1
  21   13   14 1
  22   14   23 ar
  23   14   27 ar
  24   15   43 1
  25   15   44 1
  26   16   17 1
  27   16   21 1
  28   17   18 1
  29   17   45 1
  30   17   46 1
  31   18   19 1
  32   18   22 1
  33   18   47 1
  34   19   20 1
  35   19   28 1
  36   20   21 1
  37   20   48 1
  38   20   49 1
  39   21   50 1
  40   21   51 1
  41   22   52 1
  42   22   53 1
  43   22   54 1
  44   23   24 ar
  45   24   25 ar
  46   24   38 1
  47   25   26 ar
  48   26   27 ar
  49   26   35 1
  50   27   37 1
  51   28   29 1
  52   28   30 1
  53   28   55 1
  54   29   32 1
  55   29   34 1
  56   29   56 1
  57   30   31 1
  58   30   57 1
  59   30   58 1
  60   31   33 1
  61   31   34 1
  62   31   59 1
  63   32   33 1
  64   32   60 1
  65   32   61 1
  66   33   62 1
  67   33   63 1
  68   34   64 1
  69   34   65 1
  70   35   36 2
  71   35   66 1
  72   36   37 1
  73   36   67 1

#	End of record

