#	Name: ASD11320002
#	Creating user name:	WinNT
#	Creation time:	15. 06. 2019 21:29

#	Modifying user name:	WinNT
#	Modification time:	15. 06. 2019 21:29

#	Program:	/corina/corina34_cracker 3.40 0067  02.08.2006

@<TRIPOS>MOLECULE
ASD11320002
  74   78    0    0    0
SMALL
NO_CHARGES


@<TRIPOS>ATOM
   1 C1            -0.7293     1.2304     3.0290 C.3     
   2 C2            -0.6431    -0.2508     2.7655 C.2     
   3 O3             0.3585    -0.8635     3.0693 O.2     
   4 N4            -1.6790    -0.8947     2.1921 N.am    
   5 C5            -1.5952    -2.3347     1.9360 C.3     
   6 C6            -2.8939    -2.8132     1.2839 C.3     
   7 N7            -2.8101    -4.2532     1.0277 N.pl3   
   8 C8            -3.8710    -4.9126     0.4406 C.ar    
   9 N9            -4.9741    -4.2572     0.1020 N.ar    
  10 C10           -5.9989    -4.8864    -0.4641 C.ar    
  11 N11           -5.9822    -6.1850    -0.7208 N.ar    
  12 C12           -4.9193    -6.9243    -0.4165 C.ar    
  13 C13           -3.8053    -6.2977     0.1812 C.ar    
  14 C14           -2.8326    -7.2947     0.3956 C.2     
  15 C15           -3.3443    -8.4727    -0.0563 C.2     
  16 N16           -4.6160    -8.2495    -0.5565 N.pl3   
  17 C17           -2.6569    -9.7695    -0.0228 C.2     
  18 O18           -1.4430    -9.8166    -0.0921 O.2     
  19 N19           -3.3704   -10.9078     0.0849 N.am    
  20 C20           -4.8212   -10.8697     0.3236 C.3     
  21 C21           -5.5094   -11.7581    -0.7182 C.3     
  22 N22           -4.9097   -13.0988    -0.6867 N.3     
  23 C23           -3.4899   -13.0563    -1.0610 C.3     
  24 C24           -2.7199   -12.2211    -0.0394 C.3     
  25 C25           -5.6535   -14.0285    -1.5472 C.3     
  26 C26           -4.8673   -15.3336    -1.6872 C.3     
  27 C27           -5.6419   -16.3019    -2.5834 C.3     
  28 C28           -4.8676   -17.5874    -2.7213 C.ar    
  29 C29           -5.0734   -18.6180    -1.8232 C.ar    
  30 C30           -4.3631   -19.7971    -1.9497 C.ar    
  31 C31           -3.4474   -19.9459    -2.9744 C.ar    
  32 C32           -3.2422   -18.9157    -3.8730 C.ar    
  33 C33           -3.9557   -17.7381    -3.7491 C.ar    
  34 C34           -7.2064    -4.1044    -0.8211 C.ar    
  35 C35           -8.2981    -4.7354    -1.4162 C.ar    
  36 C36           -9.4198    -4.0023    -1.7459 C.ar    
  37 C37           -9.4624    -2.6440    -1.4871 C.ar    
  38 C38           -8.3823    -2.0125    -0.8969 C.ar    
  39 C39           -7.2573    -2.7362    -0.5579 C.ar    
  40 H40            0.1959     1.5713     3.4935 H       
  41 H41           -0.8793     1.7588     2.0875 H       
  42 H42           -1.5670     1.4326     3.6964 H       
  43 H43           -2.4801    -0.4047     1.9491 H       
  44 H44           -0.7575    -2.5369     1.2685 H       
  45 H45           -1.4452    -2.8631     2.8775 H       
  46 H46           -3.7316    -2.6111     1.9514 H       
  47 H47           -3.0439    -2.2848     0.3424 H       
  48 H48           -2.0090    -4.7432     1.2708 H       
  49 H49           -1.8578    -7.1504     0.8375 H       
  50 H50           -5.1984    -8.9243    -0.9391 H       
  51 H51           -5.0376   -11.2439     1.3242 H       
  52 H52           -5.1814    -9.8455     0.2268 H       
  53 H53           -6.5728   -11.8298    -0.4896 H       
  54 H54           -5.3786   -11.3243    -1.7096 H       
  55 H55           -3.0885   -14.0696    -1.0810 H       
  56 H56           -3.3872   -12.6045    -2.0476 H       
  57 H57           -1.6905   -12.0914    -0.3736 H       
  58 H58           -2.7332   -12.7226     0.9283 H       
  59 H59           -6.6264   -14.2364    -1.1019 H       
  60 H60           -5.7924   -13.5807    -2.5312 H       
  61 H61           -3.8944   -15.1257    -2.1324 H       
  62 H62           -4.7284   -15.7814    -0.7031 H       
  63 H63           -6.6149   -16.5098    -2.1381 H       
  64 H64           -5.7809   -15.8541    -3.5674 H       
  65 H65           -5.7889   -18.5018    -1.0226 H       
  66 H66           -4.5234   -20.6020    -1.2476 H       
  67 H67           -2.8919   -20.8669    -3.0728 H       
  68 H68           -2.5265   -19.0317    -4.6734 H       
  69 H69           -3.7954   -16.9332    -4.4512 H       
  70 H70           -8.2658    -5.7957    -1.6190 H       
  71 H71          -10.2659    -4.4899    -2.2072 H       
  72 H72          -10.3423    -2.0743    -1.7472 H       
  73 H73           -8.4213    -0.9518    -0.6973 H       
  74 H74           -6.4147    -2.2422    -0.0972 H       
@<TRIPOS>BOND
   1    1    2 1
   2    1   40 1
   3    1   41 1
   4    1   42 1
   5    2    3 2
   6    2    4 am
   7    4    5 1
   8    4   43 1
   9    5    6 1
  10    5   44 1
  11    5   45 1
  12    6    7 1
  13    6   46 1
  14    6   47 1
  15    7    8 1
  16    7   48 1
  17    8    9 ar
  18    8   13 ar
  19    9   10 ar
  20   10   11 ar
  21   10   34 1
  22   11   12 ar
  23   12   13 ar
  24   12   16 1
  25   13   14 1
  26   14   15 2
  27   14   49 1
  28   15   16 1
  29   15   17 1
  30   16   50 1
  31   17   18 2
  32   17   19 am
  33   19   20 1
  34   19   24 1
  35   20   21 1
  36   20   51 1
  37   20   52 1
  38   21   22 1
  39   21   53 1
  40   21   54 1
  41   22   23 1
  42   22   25 1
  43   23   24 1
  44   23   55 1
  45   23   56 1
  46   24   57 1
  47   24   58 1
  48   25   26 1
  49   25   59 1
  50   25   60 1
  51   26   27 1
  52   26   61 1
  53   26   62 1
  54   27   28 1
  55   27   63 1
  56   27   64 1
  57   28   29 ar
  58   28   33 ar
  59   29   30 ar
  60   29   65 1
  61   30   31 ar
  62   30   66 1
  63   31   32 ar
  64   31   67 1
  65   32   33 ar
  66   32   68 1
  67   33   69 1
  68   34   35 ar
  69   34   39 ar
  70   35   36 ar
  71   35   70 1
  72   36   37 ar
  73   36   71 1
  74   37   38 ar
  75   37   72 1
  76   38   39 ar
  77   38   73 1
  78   39   74 1

#	End of record

