#	Name: ASD13490091
#	Creating user name:	WinNT
#	Creation time:	15. 06. 2019 21:30

#	Modifying user name:	WinNT
#	Modification time:	15. 06. 2019 21:30

#	Program:	/corina/corina34_cracker 3.40 0067  02.08.2006

@<TRIPOS>MOLECULE
ASD13490091
 124  131    0    0    0
SMALL
NO_CHARGES


@<TRIPOS>ATOM
   1 C1             0.0481     4.6845     6.0443 C.3     
   2 C2             0.0190     3.3567     6.8059 C.3     
   3 N3             0.8244     2.3637     6.0802 N.3     
   4 C4             2.2111     2.8277     5.9289 C.3     
   5 C5             2.2182     4.1608     5.1760 C.3     
   6 O6             1.4053     5.1041     5.8795 O.3     
   7 O7             3.5568     4.6540     5.0915 O.3     
   8 C8             3.6903     5.8413     4.3077 C.3     
   9 C9             3.5871     8.3458     4.3680 C.3     
  10 C10            3.4950     7.0636     5.2039 C.3     
  11 C11            5.0794     5.8703     3.6642 C.3     
  12 C12            5.1915     7.1126     2.7800 C.3     
  13 C13            4.9399     8.3509     3.6470 C.3     
  14 C14            6.6026     7.2372     2.1977 C.3     
  15 C15            6.6066     8.4667     1.2900 C.3     
  16 C16            6.5523     9.7612     2.0972 C.3     
  17 C17            5.5825     9.6787     3.2736 C.3     
  18 C18            4.6534    11.9976     2.6602 C.3     
  19 C19            4.8557    10.9442     3.7432 C.3     
  20 C20            6.0016    12.2028     1.9836 C.3     
  21 C21            6.0215    13.2275     0.8613 C.3     
  22 C22            6.2357    10.8993     1.1652 C.3     
  23 C23            7.3329    11.2713     0.1569 C.3     
  24 C24            7.3025    12.7912     0.0886 C.3     
  25 C25            6.3748    15.4589    -0.0773 C.3     
  26 C26            6.2560    14.6794     1.2476 C.3     
  27 O27            7.3086    13.4515    -1.1487 O.3     
  28 C28            7.4609    14.8734    -0.9748 C.3     
  29 C29            7.3939    15.5521    -2.3444 C.3     
  30 C30            8.5806    15.0985    -3.1970 C.3     
  31 O31            8.8280    16.0639    -4.2211 O.3     
  32 C32            9.8219    14.9636    -2.3127 C.3     
  33 C33            8.2612    13.7462    -3.8374 C.3     
  34 C34            6.1403     8.8450     4.4633 C.3     
  35 H35            7.5490     9.9448     2.4985 H       
  36 C36            7.1076    12.4678     3.0069 C.3     
  37 H37            8.4352    15.0737    -0.5290 H       
  38 C38            6.0879    15.1660    -3.0416 C.3     
  39 C39            5.9569    15.9495    -4.3493 C.3     
  40 C40            5.0732    15.2048     2.0635 C.3     
  41 O41            7.0412    10.7103    -1.1246 O.3     
  42 C42            4.9616    10.5667     0.3861 C.3     
  43 H43            4.4630     7.0559     1.9712 H       
  44 H44            1.8196     4.0141     4.1722 H       
  45 C45            6.1491     5.9211     4.7569 C.3     
  46 C46            5.2749     4.6152     2.8112 C.3     
  47 C47            4.5839    15.6815    -4.9690 C.3     
  48 C48            0.7766     1.0567     6.7491 C.3     
  49 C49           -0.6502     0.5139     6.9472 C.3     
  50 N50           -0.1006    -0.7989     6.5426 N.3     
  51 C51            0.9916    -0.1343     5.7978 C.3     
  52 C52           -1.0157    -1.4931     5.6268 C.3     
  53 C53           -0.3610    -2.7850     5.1338 C.3     
  54 C54           -2.3153    -1.8282     6.3615 C.3     
  55 H55            5.1376    13.1233     0.2322 H       
  56 H56            8.1578    13.1616     0.6538 H       
  57 H57           -0.4136     4.5530     5.0658 H       
  58 H58           -0.5004     5.4394     6.6078 H       
  59 H59            0.4319     3.5007     7.8044 H       
  60 H60           -1.0095     3.0044     6.8840 H       
  61 H61            2.6590     2.9633     6.9133 H       
  62 H62            2.7827     2.0893     5.3667 H       
  63 H63            2.9305     5.8450     3.5261 H       
  64 H64            2.7799     8.3662     3.6358 H       
  65 H65            3.5147     9.2160     5.0203 H       
  66 H66            2.5155     7.0111     5.6791 H       
  67 H67            4.2681     7.0762     5.9722 H       
  68 H68            7.3265     7.3669     3.0022 H       
  69 H69            6.8454     6.3466     1.6180 H       
  70 H70            7.5147     8.4611     0.6872 H       
  71 H71            5.7415     8.4234     0.6283 H       
  72 H72            3.9214    11.6472     1.9325 H       
  73 H73            4.3160    12.9321     3.1084 H       
  74 H74            3.8788    10.6570     4.1322 H       
  75 H75            5.4291    11.3903     4.5558 H       
  76 H76            8.3049    10.9270     0.5100 H       
  77 H77            5.4198    15.4187    -0.6012 H       
  78 H78            6.6161    16.4991     0.1418 H       
  79 H79            7.1787    14.7708     1.8206 H       
  80 H80            7.4312    16.6339    -2.2161 H       
  81 H81            8.0734    16.2197    -4.8054 H       
  82 H82            9.6331    14.2272    -1.5315 H       
  83 H83           10.6673    14.6404    -2.9201 H       
  84 H84           10.0494    15.9270    -1.8565 H       
  85 H85            7.3318    13.8220    -4.4019 H       
  86 H86            9.0716    13.4614    -4.5083 H       
  87 H87            8.1525    12.9918    -3.0581 H       
  88 H88            5.9485     9.2127     5.4713 H       
  89 H89            7.0928     8.3350     4.3198 H       
  90 H90            7.1957    11.6122     3.6765 H       
  91 H91            8.0536    12.6219     2.4878 H       
  92 H92            6.8615    13.3581     3.5856 H       
  93 H93            6.0932    14.0976    -3.2572 H       
  94 H94            5.2455    15.4012    -2.3912 H       
  95 H95            6.0621    17.0152    -4.1464 H       
  96 H96            6.7363    15.6328    -5.0422 H       
  97 H97            4.1535    15.0803     1.4918 H       
  98 H98            4.9992    14.6469     2.9969 H       
  99 H99            5.2241    16.2618     2.2830 H       
 100 H100           7.7009    10.9127    -1.8020 H       
 101 H101           4.6284    11.4497    -0.1593 H       
 102 H102           5.1664     9.7605    -0.3182 H       
 103 H103           4.1823    10.2532     1.0807 H       
 104 H104           6.0620     5.0395     5.3920 H       
 105 H105           7.1373     5.9417     4.2974 H       
 106 H106           6.0101     6.8185     5.3599 H       
 107 H107           4.5145     4.5841     2.0309 H       
 108 H108           6.2641     4.6372     2.3538 H       
 109 H109           5.1855     3.7302     3.4411 H       
 110 H110           4.4786    14.6157    -5.1719 H       
 111 H111           3.8044    15.9982    -4.2760 H       
 112 H112           4.4905    16.2397    -5.9006 H       
 113 H113           1.3898     1.0176     7.6494 H       
 114 H114          -0.9928     0.5466     7.9814 H       
 115 H115          -1.3766     0.9214     6.2442 H       
 116 H116           0.7454     0.0836     4.7586 H       
 117 H117           1.9608    -0.6195     5.9137 H       
 118 H118          -1.2354    -0.8491     4.7753 H       
 119 H119          -0.1413    -3.4290     5.9853 H       
 120 H120          -1.0400    -3.3001     4.4543 H       
 121 H121           0.5649    -2.5463     4.6104 H       
 122 H122          -2.7818    -0.9078     6.7128 H       
 123 H123          -2.9944    -2.3433     5.6820 H       
 124 H124          -2.0957    -2.4721     7.2130 H       
@<TRIPOS>BOND
   1    1    2 1
   2    1    6 1
   3    1   57 1
   4    1   58 1
   5    2    3 1
   6    2   59 1
   7    2   60 1
   8    3    4 1
   9    3   48 1
  10    4    5 1
  11    4   61 1
  12    4   62 1
  13    5    6 1
  14    5    7 1
  15    5   44 1
  16    7    8 1
  17    8   11 1
  18    8   10 1
  19    8   63 1
  20    9   10 1
  21    9   13 1
  22    9   64 1
  23    9   65 1
  24   10   66 1
  25   10   67 1
  26   11   12 1
  27   11   45 1
  28   11   46 1
  29   12   14 1
  30   12   13 1
  31   12   43 1
  32   13   17 1
  33   13   34 1
  34   14   15 1
  35   14   68 1
  36   14   69 1
  37   15   16 1
  38   15   70 1
  39   15   71 1
  40   16   17 1
  41   16   35 1
  42   16   22 1
  43   17   19 1
  44   17   34 1
  45   18   19 1
  46   18   20 1
  47   18   72 1
  48   18   73 1
  49   19   74 1
  50   19   75 1
  51   20   21 1
  52   20   36 1
  53   20   22 1
  54   21   24 1
  55   21   55 1
  56   21   26 1
  57   22   42 1
  58   22   23 1
  59   23   24 1
  60   23   41 1
  61   23   76 1
  62   24   27 1
  63   24   56 1
  64   25   26 1
  65   25   28 1
  66   25   77 1
  67   25   78 1
  68   26   40 1
  69   26   79 1
  70   27   28 1
  71   28   29 1
  72   28   37 1
  73   29   30 1
  74   29   38 1
  75   29   80 1
  76   30   31 1
  77   30   32 1
  78   30   33 1
  79   31   81 1
  80   32   82 1
  81   32   83 1
  82   32   84 1
  83   33   85 1
  84   33   86 1
  85   33   87 1
  86   34   88 1
  87   34   89 1
  88   36   90 1
  89   36   91 1
  90   36   92 1
  91   38   39 1
  92   38   93 1
  93   38   94 1
  94   39   47 1
  95   39   95 1
  96   39   96 1
  97   40   97 1
  98   40   98 1
  99   40   99 1
 100   41  100 1
 101   42  101 1
 102   42  102 1
 103   42  103 1
 104   45  104 1
 105   45  105 1
 106   45  106 1
 107   46  107 1
 108   46  108 1
 109   46  109 1
 110   47  110 1
 111   47  111 1
 112   47  112 1
 113   48   49 1
 114   48   51 1
 115   48  113 1
 116   49   50 1
 117   49  114 1
 118   49  115 1
 119   50   51 1
 120   50   52 1
 121   51  116 1
 122   51  117 1
 123   52   53 1
 124   52   54 1
 125   52  118 1
 126   53  119 1
 127   53  120 1
 128   53  121 1
 129   54  122 1
 130   54  123 1
 131   54  124 1

#	End of record

