#	Name: ASD10100043
#	Creating user name:	WinNT
#	Creation time:	15. 06. 2019 21:24

#	Modifying user name:	WinNT
#	Modification time:	15. 06. 2019 21:24

#	Program:	/corina/corina34_cracker 3.40 0067  02.08.2006

@<TRIPOS>MOLECULE
ASD10100043
  48   50    0    0    0
SMALL
NO_CHARGES


@<TRIPOS>ATOM
   1 C1            -0.0178     1.4608     0.0101 C.3     
   2 C2             1.2581    -0.3710     2.0554 C.2     
   3 C3             0.0241    -0.7433     1.2666 C.3     
   4 C4             1.6816    -1.0597    -1.9056 C.ar    
   5 C5             2.3611    -2.1917    -1.4968 C.ar    
   6 C6             3.6792    -2.3792    -1.8696 C.ar    
   7 C7             4.3336     0.7278    -3.9120 C.3     
   8 C8             0.0565     1.2642     3.2439 C.2     
   9 C9            -1.1864    -0.3736     2.0978 C.2     
  10 C10            2.3201    -0.1148    -2.6873 C.ar    
  11 C11            3.6377    -0.3022    -3.0600 C.ar    
  12 C12            4.3173    -1.4348    -2.6515 C.ar    
  13 C13           -2.3602     1.5657     3.0846 C.3     
  14 C14           -2.6106     2.5444     1.9664 C.ar    
  15 C15           -3.3655     2.1654     0.8722 C.ar    
  16 C16           -3.5952     3.0631    -0.1535 C.ar    
  17 C17           -2.0901     3.8231     2.0375 C.ar    
  18 C18           -2.3198     4.7209     1.0118 C.ar    
  19 N19            1.2035     0.6349     2.9467 N.am    
  20 N20            0.0021    -0.0041     0.0020 N.am    
  21 N21           -1.1346     0.8120     2.8086 N.am    
  22 N22           -2.2282    -1.1361     2.1410 N.2     
  23 O23            2.2928    -0.9803     1.8890 O.2     
  24 O24           -0.5660     0.0551    -2.3989 O.2     
  25 O25            0.0936     2.2697     3.9251 O.2     
  26 O26           -0.5247    -2.1160    -1.1611 O.2     
  27 S27           -0.0004    -0.8243    -1.4366 S.o2    
  28 C28           -3.0703     4.3401    -0.0848 C.ar    
  29 H29            1.0048     1.8381     0.0023 H       
  30 H30           -0.5450     1.8219    -0.8730 H       
  31 H31           -0.5280     1.8123     0.9069 H       
  32 H32            0.0223    -1.8151     1.0685 H       
  33 H33            1.8625    -2.9297    -0.8859 H       
  34 H34            4.2103    -3.2635    -1.5496 H       
  35 H35            4.8111     1.4680    -3.2699 H       
  36 H36            5.0891     0.2396    -4.5277 H       
  37 H37            3.6041     1.2207    -4.5546 H       
  38 H38            1.7890     0.7697    -3.0070 H       
  39 H39            5.3471    -1.5809    -2.9421 H       
  40 H40           -2.2497     2.1076     4.0239 H       
  41 H41           -3.2014     0.8766     3.1595 H       
  42 H42           -3.7756     1.1677     0.8186 H       
  43 H43           -4.1844     2.7668    -1.0087 H       
  44 H44           -1.5043     4.1207     2.8946 H       
  45 H45           -1.9135     5.7199     1.0676 H       
  46 H46            2.0202     0.9145     3.3891 H       
  47 H47           -2.9937    -0.8814     2.6796 H       
  48 H48           -3.2495     5.0414    -0.8864 H       
@<TRIPOS>BOND
   1    1   20 1
   2    1   29 1
   3    1   30 1
   4    1   31 1
   5    2    3 1
   6    2   19 am
   7    2   23 2
   8    3    9 1
   9    3   20 1
  10    3   32 1
  11    4    5 ar
  12    4   10 ar
  13    4   27 1
  14    5    6 ar
  15    5   33 1
  16    6   12 ar
  17    6   34 1
  18    7   11 1
  19    7   35 1
  20    7   36 1
  21    7   37 1
  22    8   19 am
  23    8   21 am
  24    8   25 2
  25    9   21 1
  26    9   22 2
  27   10   11 ar
  28   10   38 1
  29   11   12 ar
  30   12   39 1
  31   13   14 1
  32   13   21 1
  33   13   40 1
  34   13   41 1
  35   14   15 ar
  36   14   17 ar
  37   15   16 ar
  38   15   42 1
  39   16   28 ar
  40   16   43 1
  41   17   18 ar
  42   17   44 1
  43   18   28 ar
  44   18   45 1
  45   19   46 1
  46   20   27 am
  47   22   47 1
  48   24   27 2
  49   26   27 2
  50   28   48 1

#	End of record

