#	Name: ASD10610021
#	Creating user name:	WinNT
#	Creation time:	15. 06. 2019 21:27

#	Modifying user name:	WinNT
#	Modification time:	15. 06. 2019 21:27

#	Program:	/corina/corina34_cracker 3.40 0067  02.08.2006

@<TRIPOS>MOLECULE
ASD10610021
  58   62    0    0    0
SMALL
NO_CHARGES


@<TRIPOS>ATOM
   1 C1            -0.2376     1.6104    -0.1754 C.ar    
   2 C2            -0.3276     0.2194    -0.1849 C.ar    
   3 C3             0.8343    -0.5429    -0.1160 C.ar    
   4 C4             2.0745     0.0720    -0.0376 C.ar    
   5 C5             2.1580     1.4479    -0.0347 C.ar    
   6 C6             0.9989     2.2123    -0.1011 C.ar    
   7 C7             3.4740     2.1788     0.0315 C.3     
   8 C8            -1.6515    -0.4427    -0.2672 C.ar    
   9 C9            -1.8751    -1.4442    -1.2069 C.ar    
  10 C10           -3.1105    -2.0599    -1.2813 C.ar    
  11 C11           -4.1317    -1.6865    -0.4239 C.ar    
  12 C12           -3.9265    -0.6929     0.5160 C.ar    
  13 C13           -2.6842    -0.0664     0.6067 C.ar    
  14 F14           -4.9274    -0.3333     1.3490 F       
  15 Cl15          -3.3834    -3.3079    -2.4567 Cl      
  16 C16           -2.4584     0.9985     1.6122 C.2     
  17 N17           -3.3615     1.4649     2.5049 N.2     
  18 C18           -2.7359     2.3919     3.1865 C.2     
  19 O19           -1.4923     2.4657     2.7019 O.3     
  20 N20           -1.3463     1.6602     1.8069 N.2     
  21 N21            3.3480     3.3191     0.9425 N.am    
  22 C22            2.8635     4.4926     0.4903 C.2     
  23 O23            2.6175     4.6330    -0.6890 O.2     
  24 C24            2.6274     5.6303     1.4499 C.3     
  25 N25            3.5881     5.7381     2.5507 N.am    
  26 C26            2.0597     6.9309     0.8778 C.3     
  27 C27            1.1768     6.0227     1.7373 C.3     
  28 C28            4.9050     5.8506     2.2873 C.2     
  29 C29            5.9021     5.8526     3.4173 C.3     
  30 O30            5.2877     5.9503     1.1407 O.2     
  31 F31            7.1950     5.9793     2.8982 F       
  32 F32            5.6355     6.9271     4.2725 F       
  33 F33            5.8013     4.6531     4.1302 F       
  34 C34           -3.3106     3.2205     4.3064 C.3     
  35 C35            4.5783     1.2517     0.5348 C.3     
  36 C36            3.2898    -0.8139     0.0506 C.3     
  37 C37            4.5524    -0.0314    -0.3041 C.3     
  38 H38           -1.1323     2.2128    -0.2305 H       
  39 H39            0.7697    -1.6210    -0.1234 H       
  40 H40            1.0687     3.2900    -0.0941 H       
  41 H41            3.7347     2.5405    -0.9631 H       
  42 H42           -1.0831    -1.7405    -1.8787 H       
  43 H43           -5.0935    -2.1734    -0.4897 H       
  44 H44            3.6133     3.2295     1.8713 H       
  45 H45            3.2763     5.7285     3.4692 H       
  46 H46            2.4007     7.8666     1.3207 H       
  47 H47            1.8570     6.9635    -0.1927 H       
  48 H48            0.3931     5.4581     1.2321 H       
  49 H49            0.9371     6.3613     2.7453 H       
  50 H50           -3.1427     2.7134     5.2566 H       
  51 H51           -2.8235     4.1954     4.3239 H       
  52 H52           -4.3811     3.3519     4.1488 H       
  53 H53            5.5462     1.7413     0.4269 H       
  54 H54            4.4042     1.0085     1.5830 H       
  55 H55            3.3798    -1.2003     1.0658 H       
  56 H56            3.1775    -1.6480    -0.6421 H       
  57 H57            4.5408     0.2232    -1.3639 H       
  58 H58            5.4327    -0.6340    -0.0805 H       
@<TRIPOS>BOND
   1    1    2 ar
   2    1    6 ar
   3    1   38 1
   4    2    3 ar
   5    2    8 1
   6    3    4 ar
   7    3   39 1
   8    4    5 ar
   9    4   36 1
  10    5    6 ar
  11    5    7 1
  12    6   40 1
  13    7   21 1
  14    7   35 1
  15    7   41 1
  16    8    9 ar
  17    8   13 ar
  18    9   10 ar
  19    9   42 1
  20   10   11 ar
  21   10   15 1
  22   11   12 ar
  23   11   43 1
  24   12   13 ar
  25   12   14 1
  26   13   16 1
  27   16   17 1
  28   16   20 2
  29   17   18 2
  30   18   19 1
  31   18   34 1
  32   19   20 1
  33   21   22 am
  34   21   44 1
  35   22   23 2
  36   22   24 1
  37   24   25 1
  38   24   26 1
  39   24   27 1
  40   25   28 am
  41   25   45 1
  42   26   27 1
  43   26   46 1
  44   26   47 1
  45   27   48 1
  46   27   49 1
  47   28   29 1
  48   28   30 2
  49   29   31 1
  50   29   32 1
  51   29   33 1
  52   34   50 1
  53   34   51 1
  54   34   52 1
  55   35   37 1
  56   35   53 1
  57   35   54 1
  58   36   37 1
  59   36   55 1
  60   36   56 1
  61   37   57 1
  62   37   58 1

#	End of record

