#	Name: ASD10610083
#	Creating user name:	WinNT
#	Creation time:	15. 06. 2019 21:27

#	Modifying user name:	WinNT
#	Modification time:	15. 06. 2019 21:27

#	Program:	/corina/corina34_cracker 3.40 0067  02.08.2006

@<TRIPOS>MOLECULE
ASD10610083
  60   65    0    0    0
SMALL
NO_CHARGES


@<TRIPOS>ATOM
   1 O1            -0.8268     1.7175    -1.3117 O.3     
   2 N2            -1.4360     0.8528    -1.8968 N.2     
   3 C3            -2.0497     1.3182    -2.9508 C.2     
   4 C4            -1.7562     2.7049    -3.0063 C.2     
   5 C5            -0.9573     2.9132    -1.9172 C.2     
   6 C6            -0.3579     4.1920    -1.4903 C.2     
   7 O7            -0.5599     5.2031    -2.1346 O.2     
   8 N8             0.4134     4.2393    -0.3861 N.am    
   9 C9             1.0991     5.4823    -0.0244 C.3     
  10 C10            0.2332     6.7158     0.2397 C.3     
  11 C11            0.9187     5.9986     1.4045 C.3     
  12 C12            2.4388     5.6999    -0.6793 C.2     
  13 N13            3.2588     4.6534    -0.9004 N.am    
  14 O14            2.7791     6.8168    -1.0075 O.2     
  15 C15            6.3992     3.3045    -1.9921 C.ar    
  16 C16            5.4982     3.7297    -1.0222 C.ar    
  17 C17            4.6068     4.8778    -1.4283 C.3     
  18 C18            4.5389     4.9933    -2.9637 C.3     
  19 S19            6.1673     4.3010    -3.4420 S.3     
  20 C20            5.5021     3.0716     0.2099 C.ar    
  21 C21            6.3712     2.0368     0.4630 C.ar    
  22 C22            7.2742     1.6188    -0.5138 C.ar    
  23 C23            7.2783     2.2611    -1.7492 C.ar    
  24 C24            8.2138     0.5047    -0.2421 C.ar    
  25 C25            8.9928     0.5079     0.9255 C.ar    
  26 C26            9.8727    -0.5451     1.1699 C.ar    
  27 C27            9.9740    -1.5850     0.2639 C.ar    
  28 C28            9.2047    -1.5866    -0.8876 C.ar    
  29 C29            8.3237    -0.5523    -1.1407 C.ar    
  30 N30            9.5466     1.7586     3.0239 N.2     
  31 N31            9.1687     2.8597     3.5768 N.pl3   
  32 N32            8.2851     3.4285     2.8333 N.2     
  33 N33            8.0827     2.6983     1.7895 N.2     
  34 C34            8.8807     1.6256     1.8934 C.2     
  35 C35            9.6662     3.3818     4.8520 C.3     
  36 F36           10.6265    -0.5497     2.2910 F       
  37 Cl37           9.3425    -2.8987    -2.0159 Cl      
  38 O38           -2.8169     0.6143    -3.8216 O.3     
  39 C39           -2.9748    -0.7825    -3.5646 C.3     
  40 H40           -2.0864     3.4271    -3.7383 H       
  41 H41            0.5146     3.4503     0.1690 H       
  42 H42            0.6327     7.6846    -0.0599 H       
  43 H43           -0.8467     6.6024     0.1443 H       
  44 H44            0.2897     5.4134     2.0754 H       
  45 H45            1.7690     6.4957     1.8712 H       
  46 H46            2.9564     3.7516    -0.7099 H       
  47 H47            5.0046     5.8052    -1.0163 H       
  48 H48            3.7236     4.3926    -3.3666 H       
  49 H49            4.4483     6.0339    -3.2752 H       
  50 H50            4.8096     3.3818     0.9784 H       
  51 H51            6.3546     1.5448     1.4243 H       
  52 H52            7.9712     1.9496    -2.5168 H       
  53 H53           10.6567    -2.3997     0.4551 H       
  54 H54            7.7232    -0.5623    -2.0383 H       
  55 H55           10.5338     4.0163     4.6711 H       
  56 H56            8.8833     3.9660     5.3356 H       
  57 H57            9.9516     2.5515     5.4980 H       
  58 H58           -1.9984    -1.2669    -3.5768 H       
  59 H59           -3.4374    -0.9222    -2.5875 H       
  60 H60           -3.6090    -1.2240    -4.3333 H       
@<TRIPOS>BOND
   1    1    2 1
   2    1    5 1
   3    2    3 2
   4    3    4 1
   5    3   38 1
   6    4    5 2
   7    4   40 1
   8    5    6 1
   9    6    7 2
  10    6    8 am
  11    8    9 1
  12    8   41 1
  13    9   10 1
  14    9   11 1
  15    9   12 1
  16   10   11 1
  17   10   42 1
  18   10   43 1
  19   11   44 1
  20   11   45 1
  21   12   13 am
  22   12   14 2
  23   13   17 1
  24   13   46 1
  25   15   16 ar
  26   15   19 1
  27   15   23 ar
  28   16   17 1
  29   16   20 ar
  30   17   18 1
  31   17   47 1
  32   18   19 1
  33   18   48 1
  34   18   49 1
  35   20   21 ar
  36   20   50 1
  37   21   22 ar
  38   21   51 1
  39   22   23 ar
  40   22   24 1
  41   23   52 1
  42   24   25 ar
  43   24   29 ar
  44   25   26 ar
  45   25   34 1
  46   26   27 ar
  47   26   36 1
  48   27   28 ar
  49   27   53 1
  50   28   29 ar
  51   28   37 1
  52   29   54 1
  53   30   31 1
  54   30   34 2
  55   31   32 1
  56   31   35 1
  57   32   33 2
  58   33   34 1
  59   35   55 1
  60   35   56 1
  61   35   57 1
  62   38   39 1
  63   39   58 1
  64   39   59 1
  65   39   60 1

#	End of record

