#	Name: ASD10410079
#	Creating user name:	WinNT
#	Creation time:	15. 06. 2019 21:26

#	Modifying user name:	WinNT
#	Modification time:	15. 06. 2019 21:26

#	Program:	/corina/corina34_cracker 3.40 0067  02.08.2006

@<TRIPOS>MOLECULE
ASD10410079
  54   58    0    0    0
SMALL
NO_CHARGES


@<TRIPOS>ATOM
   1 C1            -0.0534     1.3743    -0.2310 C.ar    
   2 C2            -0.0173     0.0005    -0.0394 C.ar    
   3 C3             1.1951    -0.6357     0.2050 C.ar    
   4 C4             2.3632     0.1011     0.2568 C.ar    
   5 C5             2.3254     1.4764     0.0647 C.ar    
   6 C6             1.1147     2.1105    -0.1792 C.ar    
   7 F7             1.2309    -1.9732     0.3921 F       
   8 N8             3.5086     2.2234     0.1176 N.pl3   
   9 C9             3.6345     3.3847    -0.6438 C.2     
  10 N10            4.6496     4.2140    -0.6029 N.2     
  11 N11            2.7414     3.8274    -1.5367 N.2     
  12 C12            3.1707     4.9483    -2.0756 C.2     
  13 N13            4.3773     5.2418    -1.5203 N.pl3   
  14 C14            5.1813     6.3408    -1.8046 C.ar    
  15 N15            2.5146     5.6926    -3.0367 N.pl3   
  16 N16           -1.2023    -0.7457    -0.0917 N.3     
  17 C17           -2.1548    -0.2939     0.9322 C.3     
  18 C18           -3.4618    -1.0776     0.7906 C.3     
  19 N19           -3.1859    -2.5143     0.9294 N.3     
  20 C20           -2.2335    -2.9661    -0.0945 C.3     
  21 C21           -0.9265    -2.1824     0.0471 C.3     
  22 C22           -4.4281    -3.2966     0.8746 C.3     
  23 N23            4.6534     7.5526    -1.8535 N.ar    
  24 C24            5.3764     8.6268    -2.1196 C.ar    
  25 C25            6.7306     8.5440    -2.3629 C.ar    
  26 C26            7.3476     7.2952    -2.3262 C.ar    
  27 C27            6.5566     6.1660    -2.0346 C.ar    
  28 N28            8.6939     7.1476    -2.5596 N.am    
  29 C29            9.2603     5.9259    -2.5167 C.2     
  30 C30            8.4916     4.7776    -2.2330 C.2     
  31 C31            7.1606     4.8857    -1.9920 C.2     
  32 O32           10.4555     5.8110    -2.7267 O.2     
  33 H33           -0.9943     1.8677    -0.4252 H       
  34 H34            3.3050    -0.3921     0.4469 H       
  35 H35            1.0859     3.1797    -0.3288 H       
  36 H36            4.2407     1.9329     0.6838 H       
  37 H37            1.6541     5.3984    -3.3742 H       
  38 H38            2.9144     6.5094    -3.3741 H       
  39 H39           -1.7330    -0.4661     1.9225 H       
  40 H40           -2.3526     0.7699     0.8008 H       
  41 H41           -4.1595    -0.7646     1.5673 H       
  42 H42           -3.8975    -0.8840    -0.1896 H       
  43 H43           -2.0357    -4.0300     0.0370 H       
  44 H44           -2.6552    -2.7940    -1.0847 H       
  45 H45           -0.2288    -2.4955    -0.7296 H       
  46 H46           -0.4908    -2.3761     1.0273 H       
  47 H47           -4.9228    -3.1265    -0.0817 H       
  48 H48           -4.1952    -4.3562     0.9798 H       
  49 H49           -5.0882    -2.9875     1.6851 H       
  50 H50            4.8942     9.5927    -2.1475 H       
  51 H51            7.3043     9.4332    -2.5789 H       
  52 H52            9.2383     7.9259    -2.7563 H       
  53 H53            8.9658     3.8077    -2.2035 H       
  54 H54            6.5700     4.0080    -1.7746 H       
@<TRIPOS>BOND
   1    1    2 ar
   2    1    6 ar
   3    1   33 1
   4    2    3 ar
   5    2   16 1
   6    3    4 ar
   7    3    7 1
   8    4    5 ar
   9    4   34 1
  10    5    6 ar
  11    5    8 1
  12    6   35 1
  13    8    9 1
  14    8   36 1
  15    9   10 2
  16    9   11 1
  17   10   13 1
  18   11   12 2
  19   12   13 1
  20   12   15 1
  21   13   14 1
  22   14   23 ar
  23   14   27 ar
  24   15   37 1
  25   15   38 1
  26   16   17 1
  27   16   21 1
  28   17   18 1
  29   17   39 1
  30   17   40 1
  31   18   19 1
  32   18   41 1
  33   18   42 1
  34   19   20 1
  35   19   22 1
  36   20   21 1
  37   20   43 1
  38   20   44 1
  39   21   45 1
  40   21   46 1
  41   22   47 1
  42   22   48 1
  43   22   49 1
  44   23   24 ar
  45   24   25 ar
  46   24   50 1
  47   25   26 ar
  48   25   51 1
  49   26   27 ar
  50   26   28 1
  51   27   31 1
  52   28   29 am
  53   28   52 1
  54   29   30 1
  55   29   32 2
  56   30   31 2
  57   30   53 1
  58   31   54 1

#	End of record

