#	Name: ASD10160375
#	Creating user name:	WinNT
#	Creation time:	15. 06. 2019 21:25

#	Modifying user name:	WinNT
#	Modification time:	15. 06. 2019 21:25

#	Program:	/corina/corina34_cracker 3.40 0067  02.08.2006

@<TRIPOS>MOLECULE
ASD10160375
  42   43    0    0    0
SMALL
NO_CHARGES


@<TRIPOS>ATOM
   1 C1             0.0021    -0.0041     0.0020 C.1     
   2 C2            -0.0173     1.4278     0.0099 C.ar    
   3 C3             1.1751     2.1533     0.0024 C.ar    
   4 C4             1.1001     3.5482     0.0107 C.ar    
   5 C5            -0.1529     4.1629     0.0260 C.ar    
   6 N6            -1.2585     3.4488     0.0327 N.ar    
   7 C7            -1.2375     2.1254     0.0194 C.ar    
   8 N8             0.0175    -1.1399    -0.0042 N.1     
   9 O9             2.5119     5.8452     0.0101 O.3     
  10 B10            2.4097     4.4142     0.0033 Du      
  11 O11            3.7664     3.9478    -0.0112 O.3     
  12 C12            4.4695     4.8418     0.8772 C.3     
  13 C13            3.6189     6.1282     0.8917 C.3     
  14 C14            4.4324     7.3112     0.3630 C.3     
  15 C15            3.1133     6.4172     2.3065 C.3     
  16 C16            4.5520     4.2414     2.2821 C.3     
  17 C17            5.8711     5.1354     0.3385 C.3     
  18 O18           -2.4023     1.4372     0.0206 O.3     
  19 C19           -3.6085     2.2034     0.0305 C.3     
  20 C20           -4.0454     2.4852    -1.4085 C.3     
  21 C21           -4.7055     1.4181     0.7521 C.3     
  22 H22            2.1304     1.6496    -0.0091 H       
  23 H23           -0.2162     5.2410     0.0328 H       
  24 H24            3.8007     8.1987     0.3251 H       
  25 H25            5.2783     7.4954     1.0253 H       
  26 H26            4.7979     7.0824    -0.6381 H       
  27 H27            2.5503     5.5591     2.6735 H       
  28 H28            3.9620     6.6033     2.9647 H       
  29 H29            2.4675     7.2951     2.2894 H       
  30 H30            5.1066     3.3038     2.2445 H       
  31 H31            5.0624     4.9391     2.9460 H       
  32 H32            3.5457     4.0536     2.6566 H       
  33 H33            5.7933     5.5769    -0.6550 H       
  34 H34            6.3787     5.8313     1.0066 H       
  35 H35            6.4397     4.2074     0.2803 H       
  36 H36           -3.4357     3.1464     0.5490 H       
  37 H37           -4.2182     1.5421    -1.9270 H       
  38 H38           -4.9655     3.0696    -1.4009 H       
  39 H39           -3.2638     3.0446    -1.9226 H       
  40 H40           -4.3942     1.2174     1.7772 H       
  41 H41           -5.6256     2.0026     0.7596 H       
  42 H42           -4.8783     0.4751     0.2336 H       
@<TRIPOS>BOND
   1    1    2 1
   2    1    8 3
   3    2    3 ar
   4    2    7 ar
   5    3    4 ar
   6    3   22 1
   7    4    5 ar
   8    4   10 1
   9    5    6 ar
  10    5   23 1
  11    6    7 ar
  12    7   18 1
  13    9   10 1
  14    9   13 1
  15   10   11 1
  16   11   12 1
  17   12   13 1
  18   12   16 1
  19   12   17 1
  20   13   14 1
  21   13   15 1
  22   14   24 1
  23   14   25 1
  24   14   26 1
  25   15   27 1
  26   15   28 1
  27   15   29 1
  28   16   30 1
  29   16   31 1
  30   16   32 1
  31   17   33 1
  32   17   34 1
  33   17   35 1
  34   18   19 1
  35   19   20 1
  36   19   21 1
  37   19   36 1
  38   20   37 1
  39   20   38 1
  40   20   39 1
  41   21   40 1
  42   21   41 1
  43   21   42 1

#	End of record

