#	Name: ASD10420174
#	Creating user name:	WinNT
#	Creation time:	15. 06. 2019 21:27

#	Modifying user name:	WinNT
#	Modification time:	15. 06. 2019 21:27

#	Program:	/corina/corina34_cracker 3.40 0067  02.08.2006

@<TRIPOS>MOLECULE
ASD10420174
  27   28    0    0    0
SMALL
NO_CHARGES


@<TRIPOS>ATOM
   1 C1             0.1707     1.3693     0.8723 C.2     
   2 N2             0.0385     0.1027     0.5437 N.2     
   3 C3             1.2358    -0.4443     0.2912 C.2     
   4 C4             2.2301     0.6264     0.4912 C.2     
   5 N5             1.4775     1.7477     0.8588 N.pl3   
   6 O6             1.4588    -1.5983    -0.0378 O.2     
   7 C7             1.9995     3.0807     1.1701 C.3     
   8 C8             3.5772     0.5426     0.3507 C.2     
   9 C9             4.3831     1.7665     0.2575 C.ar    
  10 C10            5.4966     1.9395     1.0890 C.ar    
  11 C11            6.2496     3.0893     0.9972 C.ar    
  12 C12            5.9054     4.0775     0.0813 C.ar    
  13 C13            4.8003     3.9109    -0.7465 C.ar    
  14 C14            4.0443     2.7622    -0.6671 C.ar    
  15 O15            6.6506     5.2093    -0.0049 O.3     
  16 Br16           4.3390     5.2605    -1.9881 Br      
  17 Br17           7.7535     3.3246     2.1191 Br      
  18 N18           -0.8716     2.2005     1.1820 N.pl3   
  19 H19            1.1858     3.7176     1.5172 H       
  20 H20            2.7568     3.0013     1.9501 H       
  21 H21            2.4443     3.5149     0.2748 H       
  22 H22            4.0565    -0.4242     0.3074 H       
  23 H23            5.7643     1.1729     1.8011 H       
  24 H24            3.1891     2.6316    -1.3137 H       
  25 H25            7.3799     5.1528    -0.6374 H       
  26 H26           -1.7812     1.8638     1.1679 H       
  27 H27           -0.7008     3.1263     1.4157 H       
@<TRIPOS>BOND
   1    1    2 2
   2    1    5 1
   3    1   18 1
   4    2    3 1
   5    3    4 1
   6    3    6 2
   7    4    5 1
   8    4    8 2
   9    5    7 1
  10    7   19 1
  11    7   20 1
  12    7   21 1
  13    8    9 1
  14    8   22 1
  15    9   10 ar
  16    9   14 ar
  17   10   11 ar
  18   10   23 1
  19   11   12 ar
  20   11   17 1
  21   12   13 ar
  22   12   15 1
  23   13   14 ar
  24   13   16 1
  25   14   24 1
  26   15   25 1
  27   18   26 1
  28   18   27 1

#	End of record

