#	Name: ASD10160250
#	Creating user name:	WinNT
#	Creation time:	15. 06. 2019 21:25

#	Modifying user name:	WinNT
#	Modification time:	15. 06. 2019 21:25

#	Program:	/corina/corina34_cracker 3.40 0067  02.08.2006

@<TRIPOS>MOLECULE
ASD10160250
  38   40    0    0    0
SMALL
NO_CHARGES


@<TRIPOS>ATOM
   1 C1             0.2385     1.4695    -0.0407 C.2     
   2 C2             0.1910    -0.0059    -0.0355 C.ar    
   3 C3             1.3657    -0.7452    -0.1984 C.ar    
   4 C4             1.3171    -2.1221    -0.1925 C.ar    
   5 C5             0.1004    -2.7759    -0.0251 C.ar    
   6 C6            -1.0692    -2.0435     0.1371 C.ar    
   7 C7            -1.0276    -0.6666     0.1380 C.ar    
   8 O8             1.3006     2.0430    -0.1868 O.2     
   9 N9            -0.8962     2.1808     0.1109 N.am    
  10 S10           -0.8429     3.8359     0.1051 S.o2    
  11 O11           -2.1923     4.2307     0.3111 O.2     
  12 O12            0.1671     4.1573     1.0516 O.2     
  13 C13           -0.3030     4.2655    -1.5726 C.3     
  14 O14            0.0558    -4.1324    -0.0206 O.3     
  15 C15            0.2828    -4.7725     1.1519 C.ar    
  16 N16            0.5757    -4.0830     2.2358 N.ar    
  17 C17            0.8067    -4.6572     3.4092 C.ar    
  18 C18            0.7566    -6.0070     3.5730 C.ar    
  19 C19            0.4496    -6.8148     2.4609 C.ar    
  20 C20            0.3793    -8.2121     2.5497 C.ar    
  21 C21            0.0774    -8.9403     1.4381 C.ar    
  22 C22           -0.1618    -8.3168     0.2155 C.ar    
  23 C23           -0.1011    -6.9609     0.0943 C.ar    
  24 C24            0.2006    -6.1796     1.2181 C.ar    
  25 Cl25           2.7752    -3.0422    -0.3947 Cl      
  26 H26            2.3102    -0.2380    -0.3291 H       
  27 H27           -2.0118    -2.5545     0.2668 H       
  28 H28           -1.9368    -0.0985     0.2686 H       
  29 H29           -1.7441     1.7232     0.2235 H       
  30 H30           -1.0213     3.8789    -2.2956 H       
  31 H31           -0.2395     5.3495    -1.6674 H       
  32 H32            0.6762     3.8261    -1.7628 H       
  33 H33            1.0418    -4.0346     4.2598 H       
  34 H34            0.9493    -6.4510     4.5385 H       
  35 H35            0.5633    -8.7076     3.4915 H       
  36 H36            0.0231   -10.0168     1.5059 H       
  37 H37           -0.3987    -8.9177    -0.6500 H       
  38 H38           -0.2882    -6.4913    -0.8601 H       
@<TRIPOS>BOND
   1    1    2 1
   2    1    8 2
   3    1    9 am
   4    2    3 ar
   5    2    7 ar
   6    3    4 ar
   7    3   26 1
   8    4    5 ar
   9    4   25 1
  10    5    6 ar
  11    5   14 1
  12    6    7 ar
  13    6   27 1
  14    7   28 1
  15    9   10 am
  16    9   29 1
  17   10   11 2
  18   10   12 2
  19   10   13 1
  20   13   30 1
  21   13   31 1
  22   13   32 1
  23   14   15 1
  24   15   16 ar
  25   15   24 ar
  26   16   17 ar
  27   17   18 ar
  28   17   33 1
  29   18   19 ar
  30   18   34 1
  31   19   20 ar
  32   19   24 ar
  33   20   21 ar
  34   20   35 1
  35   21   22 ar
  36   21   36 1
  37   22   23 ar
  38   22   37 1
  39   23   24 ar
  40   23   38 1

#	End of record

