#	Name: ASD14580005
#	Creating user name:	WinNT
#	Creation time:	15. 06. 2019 21:31

#	Modifying user name:	WinNT
#	Modification time:	15. 06. 2019 21:31

#	Program:	/corina/corina34_cracker 3.40 0067  02.08.2006

@<TRIPOS>MOLECULE
ASD14580005
  29   30    0    0    0
SMALL
NO_CHARGES


@<TRIPOS>ATOM
   1 C1             0.0380     1.3183     0.1935 C.ar    
   2 Se2           -4.0171     2.2779     0.7803 Du      
   3 C3            -2.3440     1.3155     0.4396 C.ar    
   4 C4            -1.1444     1.9970     0.4278 C.ar    
   5 C5             0.0265    -0.0473    -0.0304 C.ar    
   6 C6            -1.1652    -0.7416    -0.0156 C.ar    
   7 C7            -2.3615    -0.0637     0.2260 C.ar    
   8 C8            -3.6429    -0.8005     0.2377 C.2     
   9 N9            -3.6564    -2.1322     0.0311 N.am    
  10 C10           -4.8571    -2.8456     0.1391 C.ar    
  11 C11           -6.0491    -2.2652    -0.2740 C.ar    
  12 C12           -7.2325    -2.9682    -0.1676 C.ar    
  13 C13           -7.2307    -4.2562     0.3523 C.ar    
  14 N14           -8.4297    -4.9688     0.4598 N.pl3   
  15 C15           -6.0384    -4.8367     0.7651 C.ar    
  16 C16           -4.8544    -4.1353     0.6540 C.ar    
  17 O17           -4.6846    -0.2052     0.4338 O.2     
  18 H18            0.9738     1.8572     0.1808 H       
  19 H19           -4.1003     2.1890     2.3355 H       
  20 H20           -1.1285     3.0628     0.6022 H       
  21 H21            0.9526    -0.5704    -0.2174 H       
  22 H22           -1.1729    -1.8073    -0.1908 H       
  23 H23           -2.8347    -2.5967    -0.1925 H       
  24 H24           -6.0505    -1.2637    -0.6783 H       
  25 H25           -8.1596    -2.5166    -0.4882 H       
  26 H26           -9.2624    -4.5634     0.1712 H       
  27 H27           -8.4285    -5.8683     0.8229 H       
  28 H28           -6.0369    -5.8381     1.1696 H       
  29 H29           -3.9267    -4.5883     0.9712 H       
@<TRIPOS>BOND
   1    1    5 ar
   2    1   18 1
   3    1    4 ar
   4    2    3 1
   5    2   19 1
   6    3    7 ar
   7    3    4 ar
   8    4   20 1
   9    5    6 ar
  10    5   21 1
  11    6   22 1
  12    6    7 ar
  13    7    8 1
  14    8    9 am
  15    8   17 2
  16    9   10 1
  17    9   23 1
  18   10   16 ar
  19   10   11 ar
  20   11   12 ar
  21   11   24 1
  22   12   13 ar
  23   12   25 1
  24   13   15 ar
  25   13   14 1
  26   14   26 1
  27   14   27 1
  28   15   28 1
  29   15   16 ar
  30   16   29 1

#	End of record

