#	Name: ASD10410015
#	Creating user name:	WinNT
#	Creation time:	15. 06. 2019 21:26

#	Modifying user name:	WinNT
#	Modification time:	15. 06. 2019 21:26

#	Program:	/corina/corina34_cracker 3.40 0067  02.08.2006

@<TRIPOS>MOLECULE
ASD10410015
  63   66    0    0    0
SMALL
NO_CHARGES


@<TRIPOS>ATOM
   1 C1             0.2087     0.4455     1.2801 C.ar    
   2 C2            -0.3703     0.4581     0.0117 C.ar    
   3 C3             0.4274     0.6685    -1.1120 C.ar    
   4 C4             1.7852     0.8632    -0.9647 C.ar    
   5 C5             2.3562     0.8498     0.2976 C.ar    
   6 C6             1.5670     0.6410     1.4177 C.ar    
   7 S7            -0.7944     0.1874     2.7055 S.o2    
   8 O8            -1.8791     1.0998     2.6033 O.2     
   9 O9            -0.9694    -1.2178     2.8240 O.2     
  10 N10            0.0925     0.6609     4.0214 N.am    
  11 C11            0.1361     2.0740     4.4054 C.3     
  12 C12            0.8335    -0.3334     4.8014 C.3     
  13 F13            3.6864     1.0404     0.4371 F       
  14 C14           -3.9624     1.1018    -0.3461 C.ar    
  15 N15           -2.6590     1.2871    -0.2090 N.ar    
  16 C16           -1.8298     0.2480    -0.1414 C.ar    
  17 C17           -2.3571    -1.0454    -0.2176 C.ar    
  18 C18           -3.7261    -1.1914    -0.3608 C.ar    
  19 N19           -4.4896    -0.1114    -0.4209 N.ar    
  20 N20           -4.7982     2.2057    -0.4073 N.pl3   
  21 C21           -6.1602     2.0373    -0.6741 C.ar    
  22 C22           -7.0833     2.9542    -0.1876 C.ar    
  23 C23           -8.4280     2.7849    -0.4530 C.ar    
  24 C24           -8.8559     1.7038    -1.2017 C.ar    
  25 C25           -7.9395     0.7892    -1.6875 C.ar    
  26 C26           -6.5927     0.9560    -1.4310 C.ar    
  27 C27          -10.3241     1.5218    -1.4884 C.3     
  28 N28          -10.6680     2.2115    -2.7389 N.3     
  29 C29          -12.0271     1.8631    -3.1760 C.3     
  30 C30          -12.3756     2.6608    -4.4348 C.3     
  31 N31          -11.3944     2.3630    -5.4875 N.3     
  32 C32          -10.0353     2.7115    -5.0505 C.3     
  33 C33           -9.6868     1.9138    -3.7916 C.3     
  34 C34          -11.7383     3.0528    -6.7381 C.3     
  35 Cl35          -1.3191    -2.4344    -0.1351 Cl      
  36 H36           -0.0168     0.6787    -2.0964 H       
  37 H37            2.4040     1.0259    -1.8348 H       
  38 H38            2.0164     0.6314     2.3998 H       
  39 H39           -0.6255     2.2689     5.1605 H       
  40 H40            1.1195     2.3098     4.8119 H       
  41 H41           -0.0535     2.6945     3.5296 H       
  42 H42            1.5603    -0.8309     4.1592 H       
  43 H43            1.3527     0.1619     5.6219 H       
  44 H44            0.1390    -1.0709     5.2036 H       
  45 H45           -4.1666    -2.1755    -0.4232 H       
  46 H46           -4.4381     3.0951    -0.2651 H       
  47 H47           -6.7499     3.7983     0.3978 H       
  48 H48           -9.1463     3.4974    -0.0750 H       
  49 H49           -8.2770    -0.0542    -2.2716 H       
  50 H50           -5.8771     0.2439    -1.8148 H       
  51 H51          -10.5461     0.4591    -1.5866 H       
  52 H52          -10.9089     1.9409    -0.6696 H       
  53 H53          -12.0761     0.7966    -3.3961 H       
  54 H54          -12.7367     2.1043    -2.3845 H       
  55 H55          -13.3722     2.3825    -4.7774 H       
  56 H56          -12.3532     3.7266    -4.2077 H       
  57 H57           -9.3257     2.4702    -5.8419 H       
  58 H58           -9.9863     3.7779    -4.8304 H       
  59 H59           -8.6902     2.1920    -3.4490 H       
  60 H60           -9.7092     0.8479    -4.0187 H       
  61 H61          -11.7520     4.1292    -6.5674 H       
  62 H62          -10.9960     2.8151    -7.5001 H       
  63 H63          -12.7221     2.7258    -7.0747 H       
@<TRIPOS>BOND
   1    1    2 ar
   2    1    6 ar
   3    1    7 1
   4    2    3 ar
   5    2   16 1
   6    3    4 ar
   7    3   36 1
   8    4    5 ar
   9    4   37 1
  10    5    6 ar
  11    5   13 1
  12    6   38 1
  13    7    8 2
  14    7    9 2
  15    7   10 am
  16   10   11 1
  17   10   12 1
  18   11   39 1
  19   11   40 1
  20   11   41 1
  21   12   42 1
  22   12   43 1
  23   12   44 1
  24   14   15 ar
  25   14   19 ar
  26   14   20 1
  27   15   16 ar
  28   16   17 ar
  29   17   18 ar
  30   17   35 1
  31   18   19 ar
  32   18   45 1
  33   20   21 1
  34   20   46 1
  35   21   22 ar
  36   21   26 ar
  37   22   23 ar
  38   22   47 1
  39   23   24 ar
  40   23   48 1
  41   24   25 ar
  42   24   27 1
  43   25   26 ar
  44   25   49 1
  45   26   50 1
  46   27   28 1
  47   27   51 1
  48   27   52 1
  49   28   29 1
  50   28   33 1
  51   29   30 1
  52   29   53 1
  53   29   54 1
  54   30   31 1
  55   30   55 1
  56   30   56 1
  57   31   32 1
  58   31   34 1
  59   32   33 1
  60   32   57 1
  61   32   58 1
  62   33   59 1
  63   33   60 1
  64   34   61 1
  65   34   62 1
  66   34   63 1

#	End of record

