#	Name: ASD10410185
#	Creating user name:	WinNT
#	Creation time:	15. 06. 2019 21:27

#	Modifying user name:	WinNT
#	Modification time:	15. 06. 2019 21:27

#	Program:	/corina/corina34_cracker 3.40 0067  02.08.2006

@<TRIPOS>MOLECULE
ASD10410185
  70   76    0    0    0
SMALL
NO_CHARGES


@<TRIPOS>ATOM
   1 C1            -0.0260     1.4162     0.0056 C.ar    
   2 C2            -0.0108     0.0339     0.1252 C.ar    
   3 C3             1.2009    -0.6427     0.2173 C.ar    
   4 C4             2.3891     0.0625     0.1895 C.ar    
   5 C5             2.3723     1.4464     0.0697 C.ar    
   6 C6             1.1622     2.1208    -0.0221 C.ar    
   7 F7             1.2163    -1.9885     0.3342 F       
   8 N8             3.5760     2.1613     0.0421 N.pl3   
   9 C9             3.6703     3.3395    -0.6980 C.2     
  10 N10            4.7030     4.1476    -0.7122 N.2     
  11 N11            2.7237     3.8226    -1.5113 N.2     
  12 C12            3.1358     4.9490    -2.0522 C.2     
  13 N13            4.3855     5.2043    -1.5809 N.pl3   
  14 C14            5.1906     6.2962    -1.8972 C.ar    
  15 N15            2.4264     5.7312    -2.9430 N.pl3   
  16 N16           -1.2162    -0.6802     0.1537 N.3     
  17 C17           -2.0511    -0.2594     1.2875 C.3     
  18 C18           -3.3190    -1.1156     1.3296 C.3     
  19 N19           -4.0468    -0.9711     0.0611 N.3     
  20 C20           -3.2120    -1.3920    -1.0727 C.3     
  21 C21           -1.9441    -0.5358    -1.1147 C.3     
  22 C22           -4.2093    -0.6529     2.4846 C.3     
  23 N23            4.7631     7.2280    -2.7395 N.ar    
  24 C24            5.5223     8.2652    -3.0428 C.ar    
  25 N25            6.7200     8.4332    -2.5405 N.ar    
  26 C26            7.2451     7.5392    -1.6733 C.ar    
  27 C27            6.4643     6.4321    -1.3261 C.ar    
  28 C28           -5.3104    -1.7198     0.0910 C.3     
  29 C29           -6.4163    -0.8911     0.8131 C.3     
  30 C30           -5.8494    -1.9247    -1.3432 C.3     
  31 C31           -7.2302    -1.2004    -1.3526 C.3     
  32 C32           -6.3370     0.5211     0.1567 C.3     
  33 C33           -6.8760     0.3162    -1.2775 C.3     
  34 C34           -7.7044    -1.4609     0.1207 C.3     
  35 C35            8.4936     7.5377    -1.0315 C.2     
  36 C36            8.7263     6.5128    -0.2270 C.2     
  37 S37            7.3520     5.4206    -0.1959 S.3     
  38 C38            9.5055     8.6337    -1.2456 C.3     
  39 H39           -0.9667     1.9412    -0.0703 H       
  40 H40            3.3304    -0.4621     0.2613 H       
  41 H41            1.1497     3.1967    -0.1152 H       
  42 H42            4.3442     1.8371     0.5377 H       
  43 H43            1.5373     5.4628    -3.2229 H       
  44 H44            2.8175     6.5488    -3.2886 H       
  45 H45           -1.4948    -0.3875     2.2161 H       
  46 H46           -2.3242     0.7892     1.1686 H       
  47 H47           -3.0471    -2.1610     1.4758 H       
  48 H48           -2.9389    -2.4406    -0.9537 H       
  49 H49           -3.7683    -1.2639    -2.0012 H       
  50 H50           -2.2160     0.5096    -1.2610 H       
  51 H51           -1.3098    -0.8654    -1.9376 H       
  52 H52           -4.4816     0.3922     2.3373 H       
  53 H53           -5.1122    -1.2629     2.5143 H       
  54 H54           -3.6685    -0.7583     3.4250 H       
  55 H55            5.1407     9.0036    -3.7324 H       
  56 H56           -5.1705    -2.6802     0.5871 H       
  57 H57           -6.3924    -0.9121     1.9027 H       
  58 H58           -5.1768    -1.4699    -2.0705 H       
  59 H59           -5.9759    -2.9867    -1.5535 H       
  60 H60           -7.9152    -1.4909    -2.1492 H       
  61 H61           -6.9631     1.2286     0.7005 H       
  62 H62           -5.3046     0.8696     0.1285 H       
  63 H63           -6.1086     0.5640    -2.0108 H       
  64 H64           -7.7671     0.9229    -1.4388 H       
  65 H65           -7.8421    -2.5229     0.3242 H       
  66 H66           -8.5935    -0.8827     0.3723 H       
  67 H67            9.6367     6.3693     0.3359 H       
  68 H68            9.3463     9.4236    -0.5116 H       
  69 H69           10.5106     8.2279    -1.1304 H       
  70 H70            9.3916     9.0424    -2.2497 H       
@<TRIPOS>BOND
   1    1    2 ar
   2    1    6 ar
   3    1   39 1
   4    2    3 ar
   5    2   16 1
   6    3    4 ar
   7    3    7 1
   8    4    5 ar
   9    4   40 1
  10    5    6 ar
  11    5    8 1
  12    6   41 1
  13    8    9 1
  14    8   42 1
  15    9   10 2
  16    9   11 1
  17   10   13 1
  18   11   12 2
  19   12   13 1
  20   12   15 1
  21   13   14 1
  22   14   23 ar
  23   14   27 ar
  24   15   43 1
  25   15   44 1
  26   16   17 1
  27   16   21 1
  28   17   18 1
  29   17   45 1
  30   17   46 1
  31   18   19 1
  32   18   22 1
  33   18   47 1
  34   19   20 1
  35   19   28 1
  36   20   21 1
  37   20   48 1
  38   20   49 1
  39   21   50 1
  40   21   51 1
  41   22   52 1
  42   22   53 1
  43   22   54 1
  44   23   24 ar
  45   24   25 ar
  46   24   55 1
  47   25   26 ar
  48   26   27 ar
  49   26   35 1
  50   27   37 1
  51   28   29 1
  52   28   30 1
  53   28   56 1
  54   29   32 1
  55   29   34 1
  56   29   57 1
  57   30   31 1
  58   30   58 1
  59   30   59 1
  60   31   33 1
  61   31   34 1
  62   31   60 1
  63   32   33 1
  64   32   61 1
  65   32   62 1
  66   33   63 1
  67   33   64 1
  68   34   65 1
  69   34   66 1
  70   35   36 2
  71   35   38 1
  72   36   37 1
  73   36   67 1
  74   38   68 1
  75   38   69 1
  76   38   70 1

#	End of record

