#	Name: ASD10610096
#	Creating user name:	WinNT
#	Creation time:	15. 06. 2019 21:28

#	Modifying user name:	WinNT
#	Modification time:	15. 06. 2019 21:28

#	Program:	/corina/corina34_cracker 3.40 0067  02.08.2006

@<TRIPOS>MOLECULE
ASD10610096
  61   64    0    0    0
SMALL
NO_CHARGES


@<TRIPOS>ATOM
   1 O1            -0.2624     1.1166    -1.1836 O.3     
   2 N2            -0.6594     0.0729    -1.6463 N.2     
   3 C3            -1.0384     0.2042    -2.8885 C.2     
   4 C4            -0.8320     1.5657    -3.2291 C.2     
   5 C5            -0.3259     2.1152    -2.0847 C.2     
   6 C6             0.0714     3.5210    -1.8780 C.2     
   7 O7            -0.0402     4.3238    -2.7843 O.2     
   8 N8             0.5579     3.9153    -0.6846 N.am    
   9 O9            -0.3107     6.1967     0.7541 O.3     
  10 C10           -0.0235     6.3702    -0.6395 C.3     
  11 C11            1.0513     5.2837    -0.5106 C.3     
  12 C12            1.0492     5.7827     0.9396 C.3     
  13 C13            2.3221     5.5663    -1.2696 C.2     
  14 N14            3.2594     4.6061    -1.3957 N.am    
  15 O15            2.5015     6.6578    -1.7670 O.2     
  16 C16            4.5398     4.9121    -2.0386 C.3     
  17 C17            4.3968     4.7666    -3.5549 C.3     
  18 C18            7.5298     2.2017    -0.6219 C.ar    
  19 C19            7.8984     3.4531    -1.1117 C.ar    
  20 C20            6.9288     4.3260    -1.5681 C.ar    
  21 C21            5.5934     3.9573    -1.5395 C.ar    
  22 C22            5.2243     2.7163    -1.0540 C.ar    
  23 C23            6.1849     1.8374    -0.5955 C.ar    
  24 C24            8.5660     1.2579    -0.1362 C.ar    
  25 C25            9.4664     1.6545     0.8567 C.ar    
  26 C26           10.4320     0.7664     1.3051 C.ar    
  27 C27           10.5034    -0.5072     0.7707 C.ar    
  28 C28            9.6128    -0.9024    -0.2129 C.ar    
  29 C29            8.6422    -0.0290    -0.6637 C.ar    
  30 F30            7.2836     5.5399    -2.0436 F       
  31 O31            9.3958     2.9064     1.3805 O.3     
  32 C32            8.5145     3.0971     2.4891 C.3     
  33 C33            8.4937     4.5774     2.8752 C.3     
  34 F34            9.7842     4.9851     3.2298 F       
  35 F35            8.0470     5.3367     1.7884 F       
  36 Cl36           9.7119    -2.5033    -0.8771 Cl      
  37 Cl37          11.5527     1.2537     2.5381 Cl      
  38 O38           -1.5323    -0.7695    -3.6949 O.3     
  39 C39           -1.6538    -2.0777    -3.1329 C.3     
  40 H40           -1.0284     2.0538    -4.1723 H       
  41 H41            0.5814     3.2930     0.0591 H       
  42 H42           -0.8503     6.0860    -1.2904 H       
  43 H43            0.3817     7.3534    -0.8788 H       
  44 H44            1.7344     6.6125     1.1128 H       
  45 H45            1.1621     4.9837     1.6724 H       
  46 H46            3.0862     3.7123    -1.0609 H       
  47 H47            4.8322     5.9342    -1.7976 H       
  48 H48            3.6347     5.4573    -3.9159 H       
  49 H49            5.3494     4.9943    -4.0332 H       
  50 H50            4.1044     3.7446    -3.7959 H       
  51 H51            8.9392     3.7405    -1.1341 H       
  52 H52            4.1821     2.4340    -1.0335 H       
  53 H53            5.8946     0.8688    -0.2163 H       
  54 H54           11.2573    -1.1962     1.1218 H       
  55 H55            7.9462    -0.3420    -1.4279 H       
  56 H56            7.5091     2.7795     2.2128 H       
  57 H57            8.8626     2.5056     3.3358 H       
  58 H58            7.8215     4.7229     3.7209 H       
  59 H59           -0.6720    -2.4297    -2.8162 H       
  60 H60           -2.3221    -2.0429    -2.2725 H       
  61 H61           -2.0599    -2.7583    -3.8811 H       
@<TRIPOS>BOND
   1    1    2 1
   2    1    5 1
   3    2    3 2
   4    3    4 1
   5    3   38 1
   6    4    5 2
   7    4   40 1
   8    5    6 1
   9    6    7 2
  10    6    8 am
  11    8   11 1
  12    8   41 1
  13    9   10 1
  14    9   12 1
  15   10   11 1
  16   10   42 1
  17   10   43 1
  18   11   12 1
  19   11   13 1
  20   12   44 1
  21   12   45 1
  22   13   14 am
  23   13   15 2
  24   14   16 1
  25   14   46 1
  26   16   17 1
  27   16   21 1
  28   16   47 1
  29   17   48 1
  30   17   49 1
  31   17   50 1
  32   18   19 ar
  33   18   23 ar
  34   18   24 1
  35   19   20 ar
  36   19   51 1
  37   20   21 ar
  38   20   30 1
  39   21   22 ar
  40   22   23 ar
  41   22   52 1
  42   23   53 1
  43   24   25 ar
  44   24   29 ar
  45   25   26 ar
  46   25   31 1
  47   26   27 ar
  48   26   37 1
  49   27   28 ar
  50   27   54 1
  51   28   29 ar
  52   28   36 1
  53   29   55 1
  54   31   32 1
  55   32   33 1
  56   32   56 1
  57   32   57 1
  58   33   34 1
  59   33   35 1
  60   33   58 1
  61   38   39 1
  62   39   59 1
  63   39   60 1
  64   39   61 1

#	End of record

