#	Name: ASD10220085
#	Creating user name:	WinNT
#	Creation time:	15. 06. 2019 21:26

#	Modifying user name:	WinNT
#	Modification time:	15. 06. 2019 21:26

#	Program:	/corina/corina34_cracker 3.40 0067  02.08.2006

@<TRIPOS>MOLECULE
ASD10220085
  39   41    0    0    0
SMALL
NO_CHARGES


@<TRIPOS>ATOM
   1 C1             0.0037     1.5122     0.4019 C.2     
   2 C2             0.0497     0.2215     0.9742 C.2     
   3 C3            -1.0777    -0.4316     1.3352 C.2     
   4 C4            -2.4058     0.1547     1.1564 C.2     
   5 C5            -2.5348     1.4181     0.6019 C.2     
   6 C6            -1.3326     2.1668     0.2001 C.2     
   7 O7            -3.6406    -0.3034     1.4372 O.3     
   8 C8            -4.5792     0.5834     1.1008 C.2     
   9 C9            -3.9730     1.7014     0.5653 C.2     
  10 C10           -4.6311     2.9209     0.0638 C.2     
  11 O11           -3.9609     3.8755    -0.2817 O.2     
  12 C12           -6.1029     2.9840    -0.0193 C.ar    
  13 C13           -6.7592     4.2121     0.1043 C.ar    
  14 C14           -8.1377     4.2683     0.0262 C.ar    
  15 C15           -8.8732     3.1028    -0.1755 C.ar    
  16 C16           -8.2219     1.8778    -0.2985 C.ar    
  17 C17           -6.8432     1.8166    -0.2274 C.ar    
  18 Cl18          -0.9449    -2.0159     2.0323 Cl      
  19 O19            1.0272     2.0845     0.0834 O.2     
  20 O20           -1.4193     3.2741    -0.2874 O.2     
  21 O21           -8.9432     0.7417    -0.4950 O.3     
  22 C22           -8.2106    -0.4796    -0.6124 C.3     
  23 O23          -10.2286     3.1610    -0.2520 O.3     
  24 C24          -10.7974     3.3573    -1.5481 C.3     
  25 O25           -8.7768     5.4627     0.1468 O.3     
  26 C26           -7.9606     6.6174     0.3525 C.3     
  27 H27            1.0071    -0.2545     1.1265 H       
  28 H28           -5.6431     0.4478     1.2274 H       
  29 H29           -6.1894     5.1161     0.2611 H       
  30 H30           -6.3387     0.8665    -0.3229 H       
  31 H31           -7.5296    -0.4147    -1.4610 H       
  32 H32           -7.6390    -0.6497     0.3000 H       
  33 H33           -8.9044    -1.3062    -0.7658 H       
  34 H34          -10.4400     4.2999    -1.9628 H       
  35 H35          -10.5021     2.5372    -2.2025 H       
  36 H36          -11.8841     3.3847    -1.4676 H       
  37 H37           -7.2777     6.7343    -0.4890 H       
  38 H38           -8.5942     7.5008     0.4317 H       
  39 H39           -7.3872     6.4980     1.2718 H       
@<TRIPOS>BOND
   1    1    2 1
   2    1   19 2
   3    1    6 1
   4    2    3 2
   5    2   27 1
   6    3    4 1
   7    3   18 1
   8    4    5 2
   9    4    7 1
  10    5    6 1
  11    5    9 1
  12    6   20 2
  13    7    8 1
  14    8    9 2
  15    8   28 1
  16    9   10 1
  17   10   11 2
  18   10   12 1
  19   12   13 ar
  20   12   17 ar
  21   13   14 ar
  22   13   29 1
  23   14   15 ar
  24   14   25 1
  25   15   16 ar
  26   15   23 1
  27   16   17 ar
  28   16   21 1
  29   17   30 1
  30   21   22 1
  31   22   31 1
  32   22   32 1
  33   22   33 1
  34   23   24 1
  35   24   34 1
  36   24   35 1
  37   24   36 1
  38   25   26 1
  39   26   37 1
  40   26   38 1
  41   26   39 1

#	End of record

