#	Name: ASD11740010
#	Creating user name:	WinNT
#	Creation time:	15. 06. 2019 21:29

#	Modifying user name:	WinNT
#	Modification time:	15. 06. 2019 21:29

#	Program:	/corina/corina34_cracker 3.40 0067  02.08.2006

@<TRIPOS>MOLECULE
ASD11740010
  38   39    0    0    0
SMALL
NO_CHARGES


@<TRIPOS>ATOM
   1 C1             0.4035     1.7958    -0.1819 C.ar    
   2 C2             0.2520     0.4265    -0.1086 C.ar    
   3 C3             1.3596    -0.3961     0.0252 C.ar    
   4 C4             2.6250     0.1446     0.0860 C.ar    
   5 C5             2.7955     1.5297     0.0127 C.ar    
   6 C6             1.6719     2.3600    -0.1222 C.ar    
   7 N7             1.8272     3.7381    -0.1967 N.am    
   8 S8             0.7059     4.7366     0.5019 S.o2    
   9 O9             1.2361     6.0420     0.3176 O.2     
  10 O10           -0.5249     4.3545    -0.0968 O.2     
  11 C11            4.1468     2.1151     0.0777 C.2     
  12 N12            5.2227     1.3139     0.2082 N.am    
  13 O13            4.2908     3.3210     0.0136 O.2     
  14 C14            6.5119     1.8586     0.1555 C.ar    
  15 C15            7.5793     1.1857     0.7469 C.ar    
  16 C16            8.8522     1.7285     0.6920 C.ar    
  17 C17            9.0625     2.9362     0.0519 C.ar    
  18 C18            8.0037     3.6055    -0.5352 C.ar    
  19 C19            6.7305     3.0664    -0.4903 C.ar    
  20 O20            7.3713    -0.0015     1.3769 O.3     
  21 C21            8.5117    -0.6348     1.9603 C.3     
  22 Cl22           8.2746     5.1214    -1.3366 Cl      
  23 C23            0.7275     4.2828     2.2581 C.3     
  24 H24           -0.4642     2.4295    -0.2901 H       
  25 H25           -0.7360    -0.0073    -0.1554 H       
  26 H26            1.2297    -1.4668     0.0823 H       
  27 H27            3.4844    -0.5011     0.1906 H       
  28 H28            2.5925     4.1157    -0.6579 H       
  29 H29            5.1042     0.3601     0.3387 H       
  30 H30            9.6808     1.2087     1.1497 H       
  31 H31           10.0558     3.3580     0.0105 H       
  32 H32            5.9054     3.5905    -0.9496 H       
  33 H33            9.2497    -0.8402     1.1848 H       
  34 H34            8.9480     0.0232     2.7119 H       
  35 H35            8.2075    -1.5706     2.4292 H       
  36 H36            1.7261     4.4460     2.6632 H       
  37 H37            0.0101     4.8981     2.8011 H       
  38 H38            0.4592     3.2318     2.3651 H       
@<TRIPOS>BOND
   1    1    2 ar
   2    1    6 ar
   3    1   24 1
   4    2    3 ar
   5    2   25 1
   6    3    4 ar
   7    3   26 1
   8    4    5 ar
   9    4   27 1
  10    5    6 ar
  11    5   11 1
  12    6    7 1
  13    7    8 am
  14    7   28 1
  15    8    9 2
  16    8   10 2
  17    8   23 1
  18   11   12 am
  19   11   13 2
  20   12   14 1
  21   12   29 1
  22   14   15 ar
  23   14   19 ar
  24   15   16 ar
  25   15   20 1
  26   16   17 ar
  27   16   30 1
  28   17   18 ar
  29   17   31 1
  30   18   19 ar
  31   18   22 1
  32   19   32 1
  33   20   21 1
  34   21   33 1
  35   21   34 1
  36   21   35 1
  37   23   36 1
  38   23   37 1
  39   23   38 1

#	End of record

