#	Name: ASD10160219
#	Creating user name:	WinNT
#	Creation time:	15. 06. 2019 21:25

#	Modifying user name:	WinNT
#	Modification time:	15. 06. 2019 21:25

#	Program:	/corina/corina34_cracker 3.40 0067  02.08.2006

@<TRIPOS>MOLECULE
ASD10160219
  41   43    0    0    0
SMALL
NO_CHARGES


@<TRIPOS>ATOM
   1 C1            -0.3866     1.1255    -1.9070 C.2     
   2 C2            -0.2695    -0.2580    -1.4108 C.ar    
   3 C3             0.9145    -0.9776    -1.6103 C.ar    
   4 C4             1.0192    -2.2726    -1.1439 C.ar    
   5 C5            -0.0477    -2.8611    -0.4784 C.ar    
   6 C6            -1.2275    -2.1488    -0.2783 C.ar    
   7 C7            -1.3388    -0.8533    -0.7344 C.ar    
   8 O8             0.5462     1.6431    -2.4906 O.2     
   9 N9            -1.5295     1.8145    -1.7186 N.am    
  10 S10           -1.6611     3.3684    -2.2759 S.o2    
  11 O11           -2.9650     3.7729    -1.8817 O.2     
  12 O12           -0.5062     4.0219    -1.7675 O.2     
  13 C13           -1.5614     3.2120    -4.0804 C.3     
  14 O14            0.0593    -4.1350    -0.0218 O.3     
  15 N15            4.9182    -6.6203    -0.4588 N.ar    
  16 C16            5.2117    -7.3498    -1.5075 C.ar    
  17 C17            4.3088    -7.5265    -2.5540 C.ar    
  18 C18            3.0807    -6.9314    -2.5023 C.ar    
  19 C19            2.7686    -6.1488    -1.3740 C.ar    
  20 C20            1.5269    -5.5071    -1.2520 C.ar    
  21 C21            1.2616    -4.7565    -0.1411 C.ar    
  22 C22            2.2138    -4.6206     0.8737 C.ar    
  23 C23            3.4262    -5.2299     0.7830 C.ar    
  24 C24            3.7339    -6.0105    -0.3454 C.ar    
  25 C25            6.5619    -8.0149    -1.5836 C.3     
  26 F26           -2.2625    -2.7269     0.3696 F       
  27 F27            1.9528    -0.4058    -2.2586 F       
  28 H28            1.9322    -2.8288    -1.2972 H       
  29 H29           -2.2525    -0.3002    -0.5743 H       
  30 H30           -2.2751     1.4002    -1.2566 H       
  31 H31           -2.3766     2.5818    -4.4361 H       
  32 H32           -1.6403     4.1993    -4.5356 H       
  33 H33           -0.6076     2.7610    -4.3539 H       
  34 H34            4.5801    -8.1331    -3.4053 H       
  35 H35            2.3688    -7.0573    -3.3046 H       
  36 H36            0.7855    -5.6053    -2.0312 H       
  37 H37            1.9830    -4.0223     1.7427 H       
  38 H38            4.1508    -5.1146     1.5755 H       
  39 H39            6.5051    -9.0051    -1.1316 H       
  40 H40            6.8625    -8.1085    -2.6271 H       
  41 H41            7.2946    -7.4121    -1.0471 H       
@<TRIPOS>BOND
   1    1    2 1
   2    1    8 2
   3    1    9 am
   4    2    3 ar
   5    2    7 ar
   6    3    4 ar
   7    3   27 1
   8    4    5 ar
   9    4   28 1
  10    5    6 ar
  11    5   14 1
  12    6    7 ar
  13    6   26 1
  14    7   29 1
  15    9   10 am
  16    9   30 1
  17   10   11 2
  18   10   12 2
  19   10   13 1
  20   13   31 1
  21   13   32 1
  22   13   33 1
  23   14   21 1
  24   15   16 ar
  25   15   24 ar
  26   16   17 ar
  27   16   25 1
  28   17   18 ar
  29   17   34 1
  30   18   19 ar
  31   18   35 1
  32   19   20 ar
  33   19   24 ar
  34   20   21 ar
  35   20   36 1
  36   21   22 ar
  37   22   23 ar
  38   22   37 1
  39   23   24 ar
  40   23   38 1
  41   25   39 1
  42   25   40 1
  43   25   41 1

#	End of record

