#	Name: ASD10438012
#	Creating user name:	WinNT
#	Creation time:	15. 06. 2019 21:27

#	Modifying user name:	WinNT
#	Modification time:	15. 06. 2019 21:27

#	Program:	/corina/corina34_cracker 3.40 0067  02.08.2006

@<TRIPOS>MOLECULE
ASD10438012
  24   25    0    0    0
SMALL
NO_CHARGES


@<TRIPOS>ATOM
   1 C1            -0.0178     1.4648     0.0101 C.3     
   2 N2             0.0021    -0.0041     0.0020 N.3     
   3 C3             1.3960     1.9864    -0.0006 C.ar    
   4 C4             2.0306     2.2312    -1.2054 C.ar    
   5 C5             3.3248     2.7088    -1.2222 C.ar    
   6 C6             3.9939     2.9449    -0.0203 C.ar    
   7 C7             3.3479     2.6958     1.1916 C.ar    
   8 C8             2.0516     2.2237     1.1944 C.ar    
   9 C9             5.3810     3.4561    -0.0308 C.2     
  10 C10            6.1217     3.7196     1.0642 C.2     
  11 C11            7.3918     4.1899     0.8016 C.2     
  12 C12            7.6934     4.3123    -0.4943 C.2     
  13 S13            6.3229     3.8077    -1.4740 S.3     
  14 H14           -0.5450     1.8259    -0.8730 H       
  15 H15           -0.5280     1.8163     0.9069 H       
  16 H16           -0.9349    -0.3784     0.0090 H       
  17 H17            0.5256    -0.3543    -0.7863 H       
  18 H18            1.5119     2.0478    -2.1347 H       
  19 H19            3.8193     2.8992    -2.1633 H       
  20 H20            3.8602     2.8761     2.1251 H       
  21 H21            1.5489     2.0350     2.1315 H       
  22 H22            5.7501     3.5743     2.0678 H       
  23 H23            8.0907     4.4410     1.5857 H       
  24 H24            8.6382     4.6639    -0.8818 H       
@<TRIPOS>BOND
   1    1    2 1
   2    1    3 1
   3    1   14 1
   4    1   15 1
   5    2   16 1
   6    2   17 1
   7    3    4 ar
   8    3    8 ar
   9    4    5 ar
  10    4   18 1
  11    5    6 ar
  12    5   19 1
  13    6    7 ar
  14    6    9 1
  15    7    8 ar
  16    7   20 1
  17    8   21 1
  18    9   10 2
  19    9   13 1
  20   10   11 1
  21   10   22 1
  22   11   12 2
  23   11   23 1
  24   12   13 1
  25   12   24 1

#	End of record

