#	Name: ASD10420145
#	Creating user name:	WinNT
#	Creation time:	15. 06. 2019 21:27

#	Modifying user name:	WinNT
#	Modification time:	15. 06. 2019 21:27

#	Program:	/corina/corina34_cracker 3.40 0067  02.08.2006

@<TRIPOS>MOLECULE
ASD10420145
  27   28    0    0    0
SMALL
NO_CHARGES


@<TRIPOS>ATOM
   1 C1            -0.0251     1.3497    -0.0709 C.ar    
   2 C2             0.0042    -0.0284    -0.1898 C.ar    
   3 C3             1.1539     2.0672     0.0261 C.ar    
   4 C4             1.2111    -0.6964    -0.2119 C.ar    
   5 C5             2.3676     1.4117     0.0048 C.ar    
   6 C6             7.2091    -0.1358    -0.5475 C.ar    
   7 C7             6.1512    -1.8729     0.7358 C.ar    
   8 C8             3.7011    -0.6877    -0.1370 C.2     
   9 C9             6.0738    -0.6687     0.0486 C.ar    
  10 C10            8.4151    -0.8040    -0.4567 C.ar    
  11 C11            7.3577    -2.5403     0.8260 C.ar    
  12 C12            2.4043     0.0214    -0.1145 C.ar    
  13 C13            8.4919    -2.0076     0.2297 C.ar    
  14 N14            4.8514     0.0082    -0.0427 N.am    
  15 O15            3.7300    -1.8986    -0.2406 O.2     
  16 O16            9.6791    -2.6651     0.3184 O.3     
  17 Br17           9.9613    -0.0784    -1.2685 Br      
  18 Br18           7.4632    -4.1802     1.7617 Br      
  19 H19           -0.9725     1.8682    -0.0582 H       
  20 H20           -0.9197    -0.5826    -0.2651 H       
  21 H21            1.1241     3.1428     0.1184 H       
  22 H22            1.2326    -1.7722    -0.3041 H       
  23 H23            3.2872     1.9729     0.0806 H       
  24 H24            7.1484     0.7985    -1.0858 H       
  25 H25            5.2686    -2.2876     1.1999 H       
  26 H26            4.8326     0.9780    -0.0381 H       
  27 H27           10.2087    -2.4185     1.0890 H       
@<TRIPOS>BOND
   1    1    2 ar
   2    1    3 ar
   3    1   19 1
   4    2    4 ar
   5    2   20 1
   6    3    5 ar
   7    3   21 1
   8    4   12 ar
   9    4   22 1
  10    5   12 ar
  11    5   23 1
  12    6    9 ar
  13    6   10 ar
  14    6   24 1
  15    7    9 ar
  16    7   11 ar
  17    7   25 1
  18    8   12 1
  19    8   14 am
  20    8   15 2
  21    9   14 1
  22   10   13 ar
  23   10   17 1
  24   11   13 ar
  25   11   18 1
  26   13   16 1
  27   14   26 1
  28   16   27 1

#	End of record

