#	Name: ASD15350002
#	Creating user name:	WinNT
#	Creation time:	15. 06. 2019 21:31

#	Modifying user name:	WinNT
#	Modification time:	15. 06. 2019 21:31

#	Program:	/corina/corina34_cracker 3.40 0067  02.08.2006

@<TRIPOS>MOLECULE
ASD15350002
  73   78    0    0    0
SMALL
NO_CHARGES


@<TRIPOS>ATOM
   1 C1             0.2192     1.3901     0.5556 C.ar    
   2 C2             0.2450     0.0081     0.5702 C.ar    
   3 C3             1.4403    -0.6628     0.3912 C.ar    
   4 C4             2.6097     0.0483     0.1971 C.ar    
   5 C5             2.5838     1.4304     0.1815 C.ar    
   6 C6             1.3887     2.1013     0.3619 C.ar    
   7 C7             3.9130    -0.6830     0.0029 C.3     
   8 C8             4.1301    -0.9513    -1.4877 C.3     
   9 N9             5.3971    -1.6622    -1.6764 N.pl3   
  10 C10            5.5713    -2.9969    -1.6844 C.2     
  11 N11            6.8497    -3.2081    -1.8822 N.2     
  12 N12            7.4303    -2.0630    -1.9901 N.2     
  13 N13            6.5545    -1.1268    -1.8718 N.2     
  14 C14            4.5040    -4.0448    -1.5007 C.3     
  15 N15            4.9842    -5.0748    -0.5698 N.3     
  16 C16            4.1876    -4.6781    -2.8310 C.2     
  17 C17            3.9485    -6.0885    -0.3262 C.3     
  18 C18            4.5132    -7.1827     0.5828 C.3     
  19 N19            4.9653    -6.5819     1.8455 N.3     
  20 C20            6.0010    -5.5682     1.6019 C.3     
  21 C21            5.4363    -4.4740     0.6928 C.3     
  22 C22            5.4219    -7.5613     2.7306 C.ar    
  23 C23            5.8947    -7.1994     3.9856 C.ar    
  24 C24            6.3449    -8.1703     4.8585 C.ar    
  25 C25            6.3254    -9.5015     4.4843 C.ar    
  26 C26            5.8553    -9.8652     3.2357 C.ar    
  27 C27            5.3987    -8.8998     2.3599 C.ar    
  28 C28            2.9675    -4.4946    -3.3933 C.2     
  29 C29            2.6913    -5.1228    -4.6867 C.ar    
  30 C30            3.6974    -5.8929    -5.3003 C.ar    
  31 N31            4.9188    -6.0407    -4.6748 N.am    
  32 C32            5.1643    -5.4553    -3.4897 C.2     
  33 C33            1.4508    -4.9686    -5.3138 C.ar    
  34 C34            1.2238    -5.5751    -6.5331 C.ar    
  35 C35            2.2217    -6.3365    -7.1364 C.ar    
  36 C36            3.4477    -6.4952    -6.5286 C.ar    
  37 O37            6.2547    -5.6072    -2.9665 O.2     
  38 O38            0.0198    -5.4289    -7.1477 O.3     
  39 C39           -0.1494    -6.0825    -8.4071 C.3     
  40 C40            6.8179   -10.5581     5.4393 C.3     
  41 F41            5.7533   -11.0060     6.2287 F       
  42 F42            7.3453   -11.6323     4.7146 F       
  43 F43            7.8124   -10.0170     6.2611 F       
  44 H44           -0.7154     1.9142     0.6909 H       
  45 H45           -0.6686    -0.5475     0.7219 H       
  46 H46            1.4607    -1.7426     0.4034 H       
  47 H47            3.4975     1.9860     0.0306 H       
  48 H48            1.3684     3.1810     0.3501 H       
  49 H49            4.7320    -0.0739     0.3856 H       
  50 H50            3.8820    -1.6300     0.5418 H       
  51 H51            3.3112    -1.5604    -1.8703 H       
  52 H52            4.1611    -0.0043    -2.0265 H       
  53 H53            3.6047    -3.5804    -1.0963 H       
  54 H54            3.0896    -5.6222     0.1564 H       
  55 H55            3.6391    -6.5275    -1.2747 H       
  56 H56            3.7379    -7.9207     0.7884 H       
  57 H57            5.3552    -7.6673     0.0887 H       
  58 H58            6.3104    -5.1292     2.5504 H       
  59 H59            6.8599    -6.0345     1.1193 H       
  60 H60            6.2117    -3.7360     0.4873 H       
  61 H61            4.5943    -3.9894     1.1870 H       
  62 H62            5.9106    -6.1599     4.2783 H       
  63 H63            6.7131    -7.8897     5.8342 H       
  64 H64            5.8413   -10.9057     2.9466 H       
  65 H65            5.0313    -9.1845     1.3851 H       
  66 H66            2.2157    -3.8983    -2.8978 H       
  67 H67            5.6114    -6.5718    -5.0981 H       
  68 H68            0.6754    -4.3792    -4.8472 H       
  69 H69            2.0326    -6.8069    -8.0900 H       
  70 H70            4.2145    -7.0876    -7.0056 H       
  71 H71            0.5885    -5.7044    -9.1147 H       
  72 H72           -0.0140    -7.1566    -8.2801 H       
  73 H73           -1.1517    -5.8851    -8.7871 H       
@<TRIPOS>BOND
   1    1    2 ar
   2    1    6 ar
   3    1   44 1
   4    2    3 ar
   5    2   45 1
   6    3    4 ar
   7    3   46 1
   8    4    5 ar
   9    4    7 1
  10    5    6 ar
  11    5   47 1
  12    6   48 1
  13    7    8 1
  14    7   49 1
  15    7   50 1
  16    8    9 1
  17    8   51 1
  18    8   52 1
  19    9   10 1
  20    9   13 1
  21   10   11 2
  22   10   14 1
  23   11   12 1
  24   12   13 2
  25   14   15 1
  26   14   16 1
  27   14   53 1
  28   15   17 1
  29   15   21 1
  30   16   28 2
  31   16   32 1
  32   17   18 1
  33   17   54 1
  34   17   55 1
  35   18   19 1
  36   18   56 1
  37   18   57 1
  38   19   20 1
  39   19   22 1
  40   20   21 1
  41   20   58 1
  42   20   59 1
  43   21   60 1
  44   21   61 1
  45   22   23 ar
  46   22   27 ar
  47   23   24 ar
  48   23   62 1
  49   24   25 ar
  50   24   63 1
  51   25   26 ar
  52   25   40 1
  53   26   27 ar
  54   26   64 1
  55   27   65 1
  56   28   29 1
  57   28   66 1
  58   29   30 ar
  59   29   33 ar
  60   30   31 1
  61   30   36 ar
  62   31   32 am
  63   31   67 1
  64   32   37 2
  65   33   34 ar
  66   33   68 1
  67   34   35 ar
  68   34   38 1
  69   35   36 ar
  70   35   69 1
  71   36   70 1
  72   38   39 1
  73   39   71 1
  74   39   72 1
  75   39   73 1
  76   40   41 1
  77   40   42 1
  78   40   43 1

#	End of record

