#	Name: ASD13490022
#	Creating user name:	WinNT
#	Creation time:	15. 06. 2019 21:30

#	Modifying user name:	WinNT
#	Modification time:	15. 06. 2019 21:30

#	Program:	/corina/corina34_cracker 3.40 0067  02.08.2006

@<TRIPOS>MOLECULE
ASD13490022
  55   59    0    0    0
SMALL
NO_CHARGES


@<TRIPOS>ATOM
   1 C1             0.4125     1.2644    -0.5598 C.ar    
   2 C2             0.3959    -0.0968    -0.3078 C.ar    
   3 C3             1.1116    -0.6126     0.7706 C.ar    
   4 C4             1.8392     0.2376     1.5896 C.ar    
   5 C5             1.8547     1.5956     1.3378 C.ar    
   6 C6             1.1424     2.1128     0.2630 C.ar    
   7 N7             1.0959    -1.9936     1.0283 N.pl3   
   8 C8             2.1877    -2.7943     1.2394 C.2     
   9 C9             1.7220    -4.0413     1.4469 C.2     
  10 N10            0.3838    -4.0043     1.3651 N.2     
  11 C11            0.0002    -2.7806     1.1204 C.2     
  12 C12            2.5585    -5.2641     1.7223 C.3     
  13 O13           -0.3181    -0.9290    -1.1113 O.3     
  14 C14           -1.0280    -0.3308    -2.1977 C.3     
  15 N15            1.1600     3.4874     0.0097 N.pl3   
  16 C16            2.3553     4.1994     0.1074 C.ar    
  17 C17            2.3619     5.6568     0.0136 C.ar    
  18 C18            3.5392     3.5463     0.2981 C.ar    
  19 C19            4.7473     4.2357     0.3994 C.ar    
  20 C20            4.8233     5.5862     0.3163 C.ar    
  21 N21            2.0533     7.8410    -0.1656 N.pl3   
  22 N22            1.4388     6.5832    -0.1581 N.2     
  23 C23            3.6530     6.3533     0.1243 C.ar    
  24 C24            3.3798     7.7022     0.0037 C.2     
  25 C25            1.3856     9.0622    -0.3259 C.ar    
  26 C26            0.0081     9.0841    -0.4937 C.ar    
  27 C27           -0.6489    10.2941    -0.6521 C.ar    
  28 C28            0.0716    11.4804    -0.6426 C.ar    
  29 C29            1.4430    11.4565    -0.4759 C.ar    
  30 C30            2.1007    10.2526    -0.3115 C.ar    
  31 O31           -1.9976    10.3189    -0.8171 O.3     
  32 C32           -2.6084    11.6012    -0.9746 C.3     
  33 H33           -0.1380     1.6658    -1.3978 H       
  34 H34            2.3939    -0.1625     2.4255 H       
  35 H35            2.4214     2.2563     1.9773 H       
  36 H36            3.2225    -2.4851     1.2394 H       
  37 H37           -1.0223    -2.4520     1.0073 H       
  38 H38            2.7041    -5.3702     2.7973 H       
  39 H39            2.0496    -6.1471     1.3357 H       
  40 H40            3.5269    -5.1596     1.2331 H       
  41 H41           -1.7477     0.3894    -1.8087 H       
  42 H42           -0.3237     0.1784    -2.8555 H       
  43 H43           -1.5542    -1.1040    -2.7575 H       
  44 H44            0.3408     3.9462    -0.2340 H       
  45 H45            3.5401     2.4689     0.3728 H       
  46 H46            5.6563     3.6723     0.5501 H       
  47 H47            5.7813     6.0776     0.4007 H       
  48 H48            4.1034     8.5031     0.0391 H       
  49 H49           -0.5508     8.1600    -0.5012 H       
  50 H50           -0.4403    12.4233    -0.7661 H       
  51 H51            2.0014    12.3810    -0.4696 H       
  52 H52            3.1721    10.2370    -0.1766 H       
  53 H53           -2.4100    12.2090    -0.0918 H       
  54 H54           -2.1965    12.0941    -1.8552 H       
  55 H55           -3.6845    11.4785    -1.0969 H       
@<TRIPOS>BOND
   1    1    2 ar
   2    1    6 ar
   3    1   33 1
   4    2    3 ar
   5    2   13 1
   6    3    4 ar
   7    3    7 1
   8    4    5 ar
   9    4   34 1
  10    5    6 ar
  11    5   35 1
  12    6   15 1
  13    7    8 1
  14    7   11 1
  15    8    9 2
  16    8   36 1
  17    9   10 1
  18    9   12 1
  19   10   11 2
  20   11   37 1
  21   12   38 1
  22   12   39 1
  23   12   40 1
  24   13   14 1
  25   14   41 1
  26   14   42 1
  27   14   43 1
  28   15   16 1
  29   15   44 1
  30   16   18 ar
  31   16   17 ar
  32   17   23 ar
  33   17   22 2
  34   18   19 ar
  35   18   45 1
  36   19   20 ar
  37   19   46 1
  38   20   23 ar
  39   20   47 1
  40   21   22 1
  41   21   24 1
  42   21   25 1
  43   23   24 2
  44   24   48 1
  45   25   26 ar
  46   25   30 ar
  47   26   27 ar
  48   26   49 1
  49   27   28 ar
  50   27   31 1
  51   28   29 ar
  52   28   50 1
  53   29   30 ar
  54   29   51 1
  55   30   52 1
  56   31   32 1
  57   32   53 1
  58   32   54 1
  59   32   55 1

#	End of record

