#	Name: ASD12970018
#	Creating user name:	WinNT
#	Creation time:	15. 06. 2019 21:30

#	Modifying user name:	WinNT
#	Modification time:	15. 06. 2019 21:30

#	Program:	/corina/corina34_cracker 3.40 0067  02.08.2006

@<TRIPOS>MOLECULE
ASD12970018
  47   49    0    0    0
SMALL
NO_CHARGES


@<TRIPOS>ATOM
   1 C1            -0.0810     1.7653     0.3542 C.ar    
   2 C2            -0.1242     0.3922     0.4731 C.ar    
   3 N3             0.9864    -0.3181     0.5353 N.ar    
   4 C4             2.1801     0.2425     0.4871 C.ar    
   5 C5             2.3164     1.6095     0.3684 C.ar    
   6 C6             1.1646     2.4029     0.2994 C.ar    
   7 C7             1.2608     3.8720     0.1718 C.2     
   8 N8             0.7348     5.8972    -0.2129 N.2     
   9 N9             0.3071     4.6854    -0.2188 N.2     
  10 N10            2.3652     4.6462     0.4457 N.pl3   
  11 C11            1.9881     5.9316     0.1852 C.2     
  12 C12            3.6733     4.1862     0.9184 C.3     
  13 C13            4.5772     3.8987    -0.2821 C.3     
  14 S14            2.9929     7.3695     0.3512 S.3     
  15 C15            1.8113     8.6398    -0.1647 C.3     
  16 C16            2.4696     9.9939    -0.1006 C.2     
  17 O17            3.6241    10.0906     0.2587 O.2     
  18 N18            1.7756    11.0975    -0.4423 N.am    
  19 C19            2.3502    12.3632    -0.2813 C.ar    
  20 C20            1.5617    13.4425     0.0953 C.ar    
  21 C21            3.7112    12.5414    -0.4921 C.ar    
  22 C22            4.2752    13.7919    -0.3324 C.ar    
  23 C23            3.4864    14.8657     0.0375 C.ar    
  24 C24            2.1318    14.6905     0.2533 C.ar    
  25 C25            4.1053    16.2287     0.2114 C.3     
  26 C26            4.0612    16.9824    -1.1193 C.3     
  27 H27           -0.9939     2.3398     0.2998 H       
  28 H28           -1.0799    -0.1089     0.5162 H       
  29 H29            3.0624    -0.3780     0.5418 H       
  30 H30            3.2965     2.0614     0.3299 H       
  31 H31            4.1278     4.9587     1.5386 H       
  32 H32            3.5481     3.2761     1.5051 H       
  33 H33            4.1228     3.1261    -0.9023 H       
  34 H34            4.7024     4.8087    -0.8689 H       
  35 H35            5.5505     3.5564     0.0696 H       
  36 H36            1.4875     8.4413    -1.1864 H       
  37 H37            0.9475     8.6240     0.4998 H       
  38 H38            0.8778    11.0144    -0.8000 H       
  39 H39            0.5036    13.3063     0.2640 H       
  40 H40            4.3279    11.7030    -0.7804 H       
  41 H41            5.3336    13.9312    -0.4962 H       
  42 H42            1.5191    15.5304     0.5458 H       
  43 H43            3.5486    16.7872     0.9639 H       
  44 H44            5.1411    16.1192     0.5327 H       
  45 H45            4.5088    17.9683    -0.9936 H       
  46 H46            4.6179    16.4239    -1.8718 H       
  47 H47            3.0254    17.0920    -1.4407 H       
@<TRIPOS>BOND
   1    1    2 ar
   2    1    6 ar
   3    1   27 1
   4    2    3 ar
   5    2   28 1
   6    3    4 ar
   7    4    5 ar
   8    4   29 1
   9    5    6 ar
  10    5   30 1
  11    6    7 1
  12    7   10 1
  13    7    9 2
  14    8    9 1
  15    8   11 2
  16   10   11 1
  17   10   12 1
  18   11   14 1
  19   12   13 1
  20   12   31 1
  21   12   32 1
  22   13   33 1
  23   13   34 1
  24   13   35 1
  25   14   15 1
  26   15   16 1
  27   15   36 1
  28   15   37 1
  29   16   17 2
  30   16   18 am
  31   18   19 1
  32   18   38 1
  33   19   21 ar
  34   19   20 ar
  35   20   24 ar
  36   20   39 1
  37   21   22 ar
  38   21   40 1
  39   22   23 ar
  40   22   41 1
  41   23   24 ar
  42   23   25 1
  43   24   42 1
  44   25   26 1
  45   25   43 1
  46   25   44 1
  47   26   45 1
  48   26   46 1
  49   26   47 1

#	End of record

