#	Name: ASD13010001
#	Creating user name:	WinNT
#	Creation time:	15. 06. 2019 21:30

#	Modifying user name:	WinNT
#	Modification time:	15. 06. 2019 21:30

#	Program:	/corina/corina34_cracker 3.40 0067  02.08.2006

@<TRIPOS>MOLECULE
ASD13010001
  52   55    0    0    0
SMALL
NO_CHARGES


@<TRIPOS>ATOM
   1 C1            -0.0073     1.3624     0.0128 C.ar    
   2 C2             0.0063    -0.0002    -0.0024 C.ar    
   3 C3             1.2202    -0.7030    -0.0090 C.ar    
   4 C4             2.4271    -0.0120    -0.0005 C.ar    
   5 C5             1.1906     2.0753     0.0216 C.ar    
   6 N6             1.4933     3.4129     0.0368 N.pl3   
   7 C7             2.4180     1.3814     0.0146 C.ar    
   8 C8             3.4674     2.4036     0.0265 C.2     
   9 N9             2.8826     3.5709     0.0394 N.2     
  10 C10            0.5627     4.4510     0.0478 C.ar    
  11 C11            1.2167    -2.1794    -0.0245 C.2     
  12 O12            0.3531    -2.7916     0.5736 O.2     
  13 N13            2.1707    -2.8485    -0.7017 N.am    
  14 C14            2.2426    -4.3092    -0.6150 C.3     
  15 C15            3.1358    -2.1152    -1.5244 C.3     
  16 O16            4.8067     2.1777     0.0251 O.3     
  17 C17            5.6354     3.2548     0.0375 C.ar    
  18 C18            6.0560     3.8227    -1.1581 C.ar    
  19 C19            6.0581     3.7924     1.2441 C.ar    
  20 C20            6.9007     4.8875     1.2541 C.ar    
  21 C21            7.3228     5.4478     0.0629 C.ar    
  22 C22            6.8988     4.9180    -1.1421 C.ar    
  23 Cl23           5.5243     3.1574    -2.6708 Cl      
  24 C24            5.5984     3.1829     2.5434 C.3     
  25 F25            6.1530     3.8930     3.6136 F       
  26 F26            4.2026     3.2417     2.6180 F       
  27 F27            6.0128     1.8481     2.6048 F       
  28 C28           -1.2874     6.5143     0.0705 C.ar    
  29 C29           -1.5596     5.3367    -0.6325 C.ar    
  30 C30           -0.6385     4.3140    -0.6417 C.ar    
  31 C31            0.8347     5.6198     0.7530 C.ar    
  32 C32           -0.0819     6.6464     0.7664 C.ar    
  33 C33           -2.2716     7.6122     0.0822 C.2     
  34 O34           -3.3206     7.4943    -0.5196 O.2     
  35 O35           -2.0077     8.7465     0.7602 O.3     
  36 H36           -0.9488     1.8915     0.0136 H       
  37 H37           -0.9267    -0.5442    -0.0090 H       
  38 H38            3.3632    -0.5506    -0.0052 H       
  39 H39            1.6311    -4.7504    -1.4021 H       
  40 H40            3.2773    -4.6299    -0.7359 H       
  41 H41            1.8729    -4.6341     0.3575 H       
  42 H42            3.9655    -1.7818    -0.9010 H       
  43 H43            3.5125    -2.7682    -2.3117 H       
  44 H44            2.6477    -1.2499    -1.9727 H       
  45 H45            7.2297     5.3064     2.1936 H       
  46 H46            7.9811     6.3040     0.0733 H       
  47 H47            7.2267     5.3601    -2.0713 H       
  48 H48           -2.4899     5.2312    -1.1708 H       
  49 H49           -0.8480     3.4043    -1.1848 H       
  50 H50            1.7659     5.7210     1.2906 H       
  51 H51            0.1317     7.5548     1.3102 H       
  52 H52           -2.6832     9.4381     0.7387 H       
@<TRIPOS>BOND
   1    1    2 ar
   2    1    5 ar
   3    1   36 1
   4    2    3 ar
   5    2   37 1
   6    3    4 ar
   7    3   11 1
   8    4    7 ar
   9    4   38 1
  10    5    7 ar
  11    5    6 1
  12    6    9 1
  13    6   10 1
  14    7    8 1
  15    8    9 2
  16    8   16 1
  17   10   31 ar
  18   10   30 ar
  19   11   12 2
  20   11   13 am
  21   13   14 1
  22   13   15 1
  23   14   39 1
  24   14   40 1
  25   14   41 1
  26   15   42 1
  27   15   43 1
  28   15   44 1
  29   16   17 1
  30   17   19 ar
  31   17   18 ar
  32   18   22 ar
  33   18   23 1
  34   19   20 ar
  35   19   24 1
  36   20   21 ar
  37   20   45 1
  38   21   22 ar
  39   21   46 1
  40   22   47 1
  41   24   25 1
  42   24   26 1
  43   24   27 1
  44   28   29 ar
  45   28   32 ar
  46   28   33 1
  47   29   30 ar
  48   29   48 1
  49   30   49 1
  50   31   32 ar
  51   31   50 1
  52   32   51 1
  53   33   34 2
  54   33   35 1
  55   35   52 1

#	End of record

