#	Name: ASD11000119
#	Creating user name:	WinNT
#	Creation time:	15. 06. 2019 21:28

#	Modifying user name:	WinNT
#	Modification time:	15. 06. 2019 21:28

#	Program:	/corina/corina34_cracker 3.40 0067  02.08.2006

@<TRIPOS>MOLECULE
ASD11000119
  25   26    0    0    0
SMALL
NO_CHARGES


@<TRIPOS>ATOM
   1 N1            -0.0124     1.3352     0.0368 N.am    
   2 C2             0.0072    -0.0097     0.0184 C.2     
   3 C3             1.3110    -0.7612    -0.0012 C.3     
   4 C4             2.3422     0.0088    -0.8269 C.3     
   5 C5             2.3569     1.4522    -0.3937 C.ar    
   6 C6             3.5341     2.1643    -0.4108 C.ar    
   7 C7             3.5458     3.5052    -0.0080 C.ar    
   8 C8             2.3570     4.1165     0.4113 C.ar    
   9 C9             1.1832     3.3965     0.4252 C.ar    
  10 C10            1.1770     2.0615     0.0226 C.ar    
  11 O11           -1.0384    -0.6241     0.0181 O.2     
  12 F12            0.0360     3.9844     0.8297 F       
  13 C13            4.8003     4.2683    -0.0244 C.2     
  14 O14            5.8450     3.7122    -0.2903 O.2     
  15 C15            4.7899     5.7423     0.2891 C.3     
  16 H16           -0.8616     1.8035     0.0560 H       
  17 H17            1.6774    -0.8775     1.0187 H       
  18 H18            1.1551    -1.7454    -0.4431 H       
  19 H19            3.3295    -0.4268    -0.6728 H       
  20 H20            2.0797    -0.0509    -1.8831 H       
  21 H21            4.4483     1.6895    -0.7349 H       
  22 H22            2.3612     5.1504     0.7233 H       
  23 H23            3.7607     6.0811     0.4082 H       
  24 H24            5.3406     5.9212     1.2126 H       
  25 H25            5.2607     6.2906    -0.5268 H       
@<TRIPOS>BOND
   1    1    2 am
   2    1   10 1
   3    1   16 1
   4    2    3 1
   5    2   11 2
   6    3    4 1
   7    3   17 1
   8    3   18 1
   9    4    5 1
  10    4   19 1
  11    4   20 1
  12    5    6 ar
  13    5   10 ar
  14    6    7 ar
  15    6   21 1
  16    7    8 ar
  17    7   13 1
  18    8    9 ar
  19    8   22 1
  20    9   10 ar
  21    9   12 1
  22   13   14 2
  23   13   15 1
  24   15   23 1
  25   15   24 1
  26   15   25 1

#	End of record

