#	Name: ASD10420123
#	Creating user name:	WinNT
#	Creation time:	15. 06. 2019 21:27

#	Modifying user name:	WinNT
#	Modification time:	15. 06. 2019 21:27

#	Program:	/corina/corina34_cracker 3.40 0067  02.08.2006

@<TRIPOS>MOLECULE
ASD10420123
  26   27    0    0    0
SMALL
NO_CHARGES


@<TRIPOS>ATOM
   1 Cl1            3.9340    -0.7989    -0.0391 Cl      
   2 Cl2            1.1402     3.8227     0.0111 Cl      
   3 C3            -0.0166     1.3756     0.0096 C.ar    
   4 O4             2.8813    -6.1772    -1.9441 O.2     
   5 C5             0.0021    -0.0041     0.0020 C.ar    
   6 C6             1.2193    -0.6823    -0.0132 C.ar    
   7 C7             2.4132     0.0381    -0.0207 C.ar    
   8 C8             2.3834     1.4191    -0.0130 C.ar    
   9 C9             1.1713     2.0870     0.0021 C.ar    
  10 C10            2.0215    -2.8418    -0.9540 C.ar    
  11 C11            2.0430    -4.2369    -0.9574 C.ar    
  12 C12            2.8645    -4.9622    -1.9435 C.2     
  13 C13            1.2798    -4.9465    -0.0181 C.ar    
  14 O14            1.2964    -6.3027    -0.0154 O.3     
  15 C15            0.5085    -4.2596     0.9084 C.ar    
  16 C16            0.4891    -2.8811     0.9095 C.ar    
  17 C17            1.2449    -2.1658    -0.0209 C.ar    
  18 O18            3.5967    -4.2778    -2.8441 O.3     
  19 H19           -0.9598     1.9017     0.0169 H       
  20 H20           -0.9253    -0.5575     0.0082 H       
  21 H21            3.3072     1.9785    -0.0185 H       
  22 H22            2.6100    -2.2891    -1.6714 H       
  23 H23            1.9833    -6.6865     0.5467 H       
  24 H24           -0.0789    -4.8067     1.6309 H       
  25 H25           -0.1133    -2.3525     1.6334 H       
  26 H26            4.1193    -4.7970    -3.4706 H       
@<TRIPOS>BOND
   1    1    7 1
   2    2    9 1
   3    3    5 ar
   4    3    9 ar
   5    3   19 1
   6    4   12 2
   7    5    6 ar
   8    5   20 1
   9    6    7 ar
  10    6   17 1
  11    7    8 ar
  12    8    9 ar
  13    8   21 1
  14   10   11 ar
  15   10   17 ar
  16   10   22 1
  17   11   12 1
  18   11   13 ar
  19   12   18 1
  20   13   14 1
  21   13   15 ar
  22   14   23 1
  23   15   16 ar
  24   15   24 1
  25   16   17 ar
  26   16   25 1
  27   18   26 1

#	End of record

