#	Name: ASD11400009
#	Creating user name:	WinNT
#	Creation time:	15. 06. 2019 21:29

#	Modifying user name:	WinNT
#	Modification time:	15. 06. 2019 21:29

#	Program:	/corina/corina34_cracker 3.40 0067  02.08.2006

@<TRIPOS>MOLECULE
ASD11400009
  68   72    0    0    0
SMALL
NO_CHARGES


@<TRIPOS>ATOM
   1 Cl1           -7.4309     5.6606     2.3138 Cl      
   2 C2            -5.9480     4.7588     2.2751 C.ar    
   3 C3            -5.7503     3.7139     3.1598 C.ar    
   4 C4            -4.5693     2.9962     3.1285 C.ar    
   5 C5            -3.5861     3.3224     2.2134 C.ar    
   6 C6            -3.7829     4.3670     1.3292 C.ar    
   7 C7            -4.9657     5.0812     1.3554 C.ar    
   8 C8            -5.1802     6.2196     0.3916 C.3     
   9 S9            -2.5285     4.7828     0.1638 S.o2    
  10 O10           -2.3151     6.1823     0.2862 O.2     
  11 O11           -1.4946     3.8217     0.3271 O.2     
  12 N12           -3.1615     4.5366    -1.3465 N.am    
  13 C13           -3.4960     3.2565    -1.7571 C.ar    
  14 N14           -3.3471     2.2247    -0.9338 N.ar    
  15 C15           -3.6672     1.0003    -1.3252 C.ar    
  16 N16           -3.5031    -0.0545    -0.4445 N.pl3   
  17 C17           -3.0933     0.2028     0.9383 C.3     
  18 C18           -3.0588    -1.1157     1.7137 C.3     
  19 C19           -2.6372    -0.8510     3.1362 C.ar    
  20 C20           -3.5897    -0.5766     4.0997 C.ar    
  21 C21           -3.2031    -0.3338     5.4044 C.ar    
  22 C22           -1.8639    -0.3658     5.7458 C.ar    
  23 C23           -0.9114    -0.6410     4.7825 C.ar    
  24 C24           -1.2985    -0.8881     3.4786 C.ar    
  25 N25           -4.1407     0.7611    -2.5380 N.ar    
  26 C26           -4.3125     1.7463    -3.4128 C.ar    
  27 C27           -4.0009     3.0332    -3.0428 C.ar    
  28 C28           -4.1791     4.1989    -3.9755 C.3     
  29 N29           -4.3001     3.7311    -5.3608 N.3     
  30 C30           -5.3442     2.6990    -5.4621 C.3     
  31 C31           -4.8438     1.4245    -4.7843 C.3     
  32 C32           -4.5756     4.8498    -6.2721 C.3     
  33 C33           -4.4505     4.3787    -7.6981 C.ar    
  34 C34           -5.5544     3.8719    -8.3580 C.ar    
  35 C35           -5.4396     3.4397    -9.6660 C.ar    
  36 C36           -4.2209     3.5147   -10.3143 C.ar    
  37 C37           -3.1172     4.0224    -9.6547 C.ar    
  38 C38           -3.2331     4.4586    -8.3481 C.ar    
  39 H39           -6.5183     3.4592     3.8751 H       
  40 H40           -4.4146     2.1807     3.8195 H       
  41 H41           -2.6635     2.7614     2.1894 H       
  42 H42           -5.5726     5.8311    -0.5482 H       
  43 H43           -5.8915     6.9272     0.8175 H       
  44 H44           -4.2315     6.7241     0.2082 H       
  45 H45           -3.2980     5.2887    -1.9437 H       
  46 H46           -3.6594    -0.9642    -0.7427 H       
  47 H47           -2.1013     0.6545     0.9452 H       
  48 H48           -3.8050     0.8819     1.4078 H       
  49 H49           -4.0508    -1.5674     1.7068 H       
  50 H50           -2.3471    -1.7948     1.2443 H       
  51 H51           -4.6360    -0.5517     3.8330 H       
  52 H52           -3.9472    -0.1188     6.1570 H       
  53 H53           -1.5617    -0.1753     6.7650 H       
  54 H54            0.1348    -0.6657     5.0491 H       
  55 H55           -0.5543    -1.1032     2.7260 H       
  56 H56           -5.0801     4.7468    -3.6999 H       
  57 H57           -3.3178     4.8618    -3.8927 H       
  58 H58           -6.2491     3.0437    -4.9616 H       
  59 H59           -5.5580     2.4968    -6.5116 H       
  60 H60           -4.0442     0.9866    -5.3818 H       
  61 H61           -5.6645     0.7120    -4.7020 H       
  62 H62           -5.5864     5.2191    -6.0989 H       
  63 H63           -3.8597     5.6514    -6.0901 H       
  64 H64           -6.5064     3.8133    -7.8515 H       
  65 H65           -6.3018     3.0431   -10.1813 H       
  66 H66           -4.1311     3.1764   -11.3360 H       
  67 H67           -2.1651     4.0806   -10.1611 H       
  68 H68           -2.3708     4.8552    -7.8328 H       
@<TRIPOS>BOND
   1    1    2 1
   2    2    3 ar
   3    2    7 ar
   4    3    4 ar
   5    3   39 1
   6    4    5 ar
   7    4   40 1
   8    5    6 ar
   9    5   41 1
  10    6    7 ar
  11    6    9 1
  12    7    8 1
  13    8   42 1
  14    8   43 1
  15    8   44 1
  16    9   10 2
  17    9   11 2
  18    9   12 am
  19   12   13 1
  20   12   45 1
  21   13   14 ar
  22   13   27 ar
  23   14   15 ar
  24   15   16 1
  25   15   25 ar
  26   16   17 1
  27   16   46 1
  28   17   18 1
  29   17   47 1
  30   17   48 1
  31   18   19 1
  32   18   49 1
  33   18   50 1
  34   19   20 ar
  35   19   24 ar
  36   20   21 ar
  37   20   51 1
  38   21   22 ar
  39   21   52 1
  40   22   23 ar
  41   22   53 1
  42   23   24 ar
  43   23   54 1
  44   24   55 1
  45   25   26 ar
  46   26   27 ar
  47   26   31 1
  48   27   28 1
  49   28   29 1
  50   28   56 1
  51   28   57 1
  52   29   30 1
  53   29   32 1
  54   30   31 1
  55   30   58 1
  56   30   59 1
  57   31   60 1
  58   31   61 1
  59   32   33 1
  60   32   62 1
  61   32   63 1
  62   33   34 ar
  63   33   38 ar
  64   34   35 ar
  65   34   64 1
  66   35   36 ar
  67   35   65 1
  68   36   37 ar
  69   36   66 1
  70   37   38 ar
  71   37   67 1
  72   38   68 1

#	End of record

