#	Name: ASD11000139
#	Creating user name:	WinNT
#	Creation time:	15. 06. 2019 21:28

#	Modifying user name:	WinNT
#	Modification time:	15. 06. 2019 21:28

#	Program:	/corina/corina34_cracker 3.40 0067  02.08.2006

@<TRIPOS>MOLECULE
ASD11000139
  49   52    0    0    0
SMALL
NO_CHARGES


@<TRIPOS>ATOM
   1 N1            -0.0172     1.3215    -0.0112 N.ar    
   2 C2             0.0016    -0.0034    -0.0060 C.ar    
   3 N3             1.1403    -0.6810    -0.0155 N.ar    
   4 C4             2.3025    -0.0498    -0.0306 C.ar    
   5 C5             2.3192     1.3363    -0.0364 C.ar    
   6 C6             1.1098     2.0136    -0.0262 C.ar    
   7 C7             3.6238     2.0904    -0.0531 C.3     
   8 O8             4.0222     2.3233    -1.4055 O.3     
   9 C9             5.1872     2.9971    -1.5985 C.ar    
  10 C10            5.9304     3.4245    -0.5011 C.ar    
  11 C11            7.1133     4.1081    -0.6776 C.ar    
  12 C12            7.5754     4.3771    -1.9614 C.ar    
  13 C13            6.8273     3.9468    -3.0735 C.ar    
  14 C14            5.6306     3.2491    -2.8815 C.ar    
  15 N15            8.7575     5.0615    -2.1591 N.am    
  16 C16            9.2058     5.3236    -3.3992 C.2     
  17 C17            8.4931     4.9143    -4.5464 C.2     
  18 C18            7.3250     4.2377    -4.4195 C.2     
  19 O19           10.2541     5.9304    -3.5361 O.2     
  20 N20           -1.1973    -0.6965     0.0102 N.pl3   
  21 C21           -1.2008    -2.0923    -0.1029 C.ar    
  22 C22           -2.1491    -2.8421     0.5799 C.ar    
  23 C23           -0.2594    -2.7269    -0.9028 C.ar    
  24 C24           -0.2638    -4.1031    -1.0143 C.ar    
  25 C25           -1.2086    -4.8520    -0.3278 C.ar    
  26 C26           -2.1521    -4.2187     0.4674 C.ar    
  27 O27           -1.2126    -6.2073    -0.4384 O.3     
  28 C28            0.7577    -4.7919    -1.8821 C.3     
  29 C29           -2.2134    -6.9153     0.2959 C.3     
  30 F30           -2.0650    -6.6500     1.6615 F       
  31 F31           -3.4815    -6.5001    -0.1247 F       
  32 H32            3.2273    -0.6075    -0.0379 H       
  33 H33            1.0881     3.0934    -0.0307 H       
  34 H34            3.4983     3.0449     0.4582 H       
  35 H35            4.3891     1.5038     0.4553 H       
  36 H36            5.5758     3.2185     0.4980 H       
  37 H37            7.6815     4.4353     0.1807 H       
  38 H38            5.0530     2.9164    -3.7313 H       
  39 H39            9.2722     5.3580    -1.3922 H       
  40 H40            8.8798     5.1405    -5.5291 H       
  41 H41            6.7736     3.9202    -5.2922 H       
  42 H42           -2.0347    -0.2151     0.1000 H       
  43 H43           -2.8838    -2.3492     1.1992 H       
  44 H44            0.4757    -2.1440    -1.4378 H       
  45 H45           -2.8873    -4.8024     1.0015 H       
  46 H46            1.6413    -5.0250    -1.2880 H       
  47 H47            0.3338    -5.7138    -2.2802 H       
  48 H48            1.0367    -4.1349    -2.7060 H       
  49 H49           -2.1045    -7.9854     0.1197 H       
@<TRIPOS>BOND
   1    1    2 ar
   2    1    6 ar
   3    2    3 ar
   4    2   20 1
   5    3    4 ar
   6    4    5 ar
   7    4   32 1
   8    5    6 ar
   9    5    7 1
  10    6   33 1
  11    7    8 1
  12    7   34 1
  13    7   35 1
  14    8    9 1
  15    9   10 ar
  16    9   14 ar
  17   10   11 ar
  18   10   36 1
  19   11   12 ar
  20   11   37 1
  21   12   13 ar
  22   12   15 1
  23   13   14 ar
  24   13   18 1
  25   14   38 1
  26   15   16 am
  27   15   39 1
  28   16   17 1
  29   16   19 2
  30   17   18 2
  31   17   40 1
  32   18   41 1
  33   20   21 1
  34   20   42 1
  35   21   22 ar
  36   21   23 ar
  37   22   26 ar
  38   22   43 1
  39   23   24 ar
  40   23   44 1
  41   24   25 ar
  42   24   28 1
  43   25   26 ar
  44   25   27 1
  45   26   45 1
  46   27   29 1
  47   28   46 1
  48   28   47 1
  49   28   48 1
  50   29   30 1
  51   29   31 1
  52   29   49 1

#	End of record

