#	Name: ASD13010035
#	Creating user name:	WinNT
#	Creation time:	15. 06. 2019 21:30

#	Modifying user name:	WinNT
#	Modification time:	15. 06. 2019 21:30

#	Program:	/corina/corina34_cracker 3.40 0067  02.08.2006

@<TRIPOS>MOLECULE
ASD13010035
  39   42    0    0    0
SMALL
NO_CHARGES


@<TRIPOS>ATOM
   1 C1            -0.0166     1.3746     0.0096 C.ar    
   2 C2             0.0021    -0.0041     0.0020 C.ar    
   3 C3             1.2068    -0.6950    -0.0132 C.ar    
   4 C4             2.3947    -0.0219    -0.0209 C.ar    
   5 C5             1.1845     2.0814     0.0019 C.ar    
   6 N6             1.5007     3.4193     0.0057 N.pl3   
   7 C7             2.4020     1.3760    -0.0135 C.ar    
   8 C8             3.4618     2.3859    -0.0182 C.2     
   9 N9             2.8921     3.5609    -0.0071 N.2     
  10 C10            0.5815     4.4672     0.0195 C.ar    
  11 O11            4.7985     2.1440    -0.0316 O.3     
  12 C12            5.6402     3.2114    -0.0340 C.ar    
  13 C13            6.0553     3.7670    -1.2365 C.ar    
  14 C14            6.0818     3.7516     1.1661 C.ar    
  15 C15            6.9378     4.8372     1.1605 C.ar    
  16 C16            7.3538     5.3851    -0.0389 C.ar    
  17 C17            6.9115     4.8526    -1.2358 C.ar    
  18 C18           -1.2465     6.5500     0.0481 C.ar    
  19 C19           -1.5379     5.3713    -0.6455 C.ar    
  20 C20           -0.6281     4.3387    -0.6571 C.ar    
  21 C21            0.8730     5.6374     0.7146 C.ar    
  22 C22           -0.0326     6.6735     0.7311 C.ar    
  23 C23           -2.2187     7.6584     0.0627 C.2     
  24 O24           -3.2746     7.5482    -0.5284 O.2     
  25 O25           -1.9363     8.7936     0.7317 O.3     
  26 Cl26           5.5006     3.0990    -2.7397 Cl      
  27 Cl27           5.5592     3.0651     2.6725 Cl      
  28 F28           -1.1939     2.0373     0.0188 F       
  29 H29           -0.9287    -0.5518     0.0083 H       
  30 H30            1.2040    -1.7750    -0.0186 H       
  31 H31            3.3264    -0.5681    -0.0324 H       
  32 H32            7.2817     5.2579     2.0938 H       
  33 H33            8.0222     6.2334    -0.0408 H       
  34 H34            7.2348     5.2852    -2.1710 H       
  35 H35           -2.4745     5.2726    -1.1740 H       
  36 H36           -0.8529     3.4278    -1.1920 H       
  37 H37            1.8108     5.7321     1.2419 H       
  38 H38            0.1958     7.5827     1.2675 H       
  39 H39           -2.6045     9.4922     0.7125 H       
@<TRIPOS>BOND
   1    1    2 ar
   2    1    5 ar
   3    1   28 1
   4    2    3 ar
   5    2   29 1
   6    3    4 ar
   7    3   30 1
   8    4    7 ar
   9    4   31 1
  10    5    7 ar
  11    5    6 1
  12    6    9 1
  13    6   10 1
  14    7    8 1
  15    8    9 2
  16    8   11 1
  17   10   21 ar
  18   10   20 ar
  19   11   12 1
  20   12   14 ar
  21   12   13 ar
  22   13   17 ar
  23   13   26 1
  24   14   15 ar
  25   14   27 1
  26   15   16 ar
  27   15   32 1
  28   16   17 ar
  29   16   33 1
  30   17   34 1
  31   18   19 ar
  32   18   22 ar
  33   18   23 1
  34   19   20 ar
  35   19   35 1
  36   20   36 1
  37   21   22 ar
  38   21   37 1
  39   22   38 1
  40   23   24 2
  41   23   25 1
  42   25   39 1

#	End of record

