#	Name: ASD10950079
#	Creating user name:	WinNT
#	Creation time:	15. 06. 2019 21:28

#	Modifying user name:	WinNT
#	Modification time:	15. 06. 2019 21:28

#	Program:	/corina/corina34_cracker 3.40 0067  02.08.2006

@<TRIPOS>MOLECULE
ASD10950079
  50   54    0    0    0
SMALL
NO_CHARGES


@<TRIPOS>ATOM
   1 O1             0.4541     0.2872    -1.3299 O.2     
   2 C2             0.4230     0.9539    -0.3127 C.2     
   3 C3             1.4710     1.9457    -0.0540 C.2     
   4 C4             2.7810     1.6947     0.1762 C.2     
   5 O5             3.3506     0.4681     0.2066 O.3     
   6 C6             3.4904     2.9742     0.3887 C.2     
   7 O7             4.6786     3.0830     0.6178 O.2     
   8 N8             2.6259     4.0003     0.2902 N.am    
   9 C9             1.2983     3.4457     0.0005 C.3     
  10 C10            0.7968     3.9660    -1.3220 C.2     
  11 C11           -0.4832     4.5060    -1.5843 C.2     
  12 C12           -0.5043     4.8441    -2.8861 C.2     
  13 O13            0.6884     4.5392    -3.4231 O.3     
  14 C14            1.4831     4.0110    -2.4780 C.2     
  15 C15            2.9528     5.4204     0.4404 C.3     
  16 C16            3.3322     6.0034    -0.9224 C.3     
  17 C17            3.6686     7.4642    -0.7678 C.2     
  18 C18            2.8350     8.4997    -0.9549 C.2     
  19 N19            3.4934     9.6764    -0.7224 N.pl3   
  20 C20            4.7998     9.4203    -0.3711 C.ar    
  21 C21            4.9654     8.0234    -0.3788 C.ar    
  22 C22            6.2050     7.4671    -0.0568 C.ar    
  23 C23            7.2521     8.2837     0.2646 C.ar    
  24 C24            7.0936     9.6629     0.2741 C.ar    
  25 C25            5.8787    10.2327    -0.0370 C.ar    
  26 C26           -0.6752     0.7680     0.6598 C.ar    
  27 C27           -1.7458    -0.0872     0.3701 C.ar    
  28 C28           -2.7477    -0.2264     1.3142 C.ar    
  29 C29           -2.6609     0.4766     2.5026 C.ar    
  30 N30           -1.6400     1.2757     2.7487 N.ar    
  31 C31           -0.6596     1.4377     1.8851 C.ar    
  32 H32            4.3008     0.4800     0.3857 H       
  33 H33            0.6008     3.7082     0.7959 H       
  34 H34           -1.2896     4.6238    -0.8756 H       
  35 H35           -1.3388     5.2855    -3.4105 H       
  36 H36            2.4987     3.6736    -2.6231 H       
  37 H37            2.0874     5.9528     0.8351 H       
  38 H38            3.7912     5.5295     1.1284 H       
  39 H39            4.1977     5.4711    -1.3170 H       
  40 H40            2.4939     5.8944    -1.6103 H       
  41 H41            1.7984     8.4163    -1.2464 H       
  42 H42            3.0986    10.5595    -0.7946 H       
  43 H43            6.3354     6.3950    -0.0614 H       
  44 H44            8.2106     7.8529     0.5136 H       
  45 H45            7.9306    10.2954     0.5306 H       
  46 H46            5.7655    11.3067    -0.0269 H       
  47 H47           -1.7884    -0.6238    -0.5661 H       
  48 H48           -3.5889    -0.8769     1.1253 H       
  49 H49           -3.4419     0.3698     3.2409 H       
  50 H50            0.1592     2.1007     2.1226 H       
@<TRIPOS>BOND
   1    1    2 2
   2    2    3 1
   3    2   26 1
   4    3    4 2
   5    3    9 1
   6    4    5 1
   7    4    6 1
   8    5   32 1
   9    6    7 2
  10    6    8 am
  11    8    9 1
  12    8   15 1
  13    9   10 1
  14    9   33 1
  15   10   11 1
  16   10   14 2
  17   11   12 2
  18   11   34 1
  19   12   13 1
  20   12   35 1
  21   13   14 1
  22   14   36 1
  23   15   16 1
  24   15   37 1
  25   15   38 1
  26   16   17 1
  27   16   39 1
  28   16   40 1
  29   17   18 2
  30   17   21 1
  31   18   19 1
  32   18   41 1
  33   19   20 1
  34   19   42 1
  35   20   21 ar
  36   20   25 ar
  37   21   22 ar
  38   22   23 ar
  39   22   43 1
  40   23   24 ar
  41   23   44 1
  42   24   25 ar
  43   24   45 1
  44   25   46 1
  45   26   27 ar
  46   26   31 ar
  47   27   28 ar
  48   27   47 1
  49   28   29 ar
  50   28   48 1
  51   29   30 ar
  52   29   49 1
  53   30   31 ar
  54   31   50 1

#	End of record

