#	Name: ASD15010002
#	Creating user name:	WinNT
#	Creation time:	15. 06. 2019 21:31

#	Modifying user name:	WinNT
#	Modification time:	15. 06. 2019 21:31

#	Program:	/corina/corina34_cracker 3.40 0067  02.08.2006

@<TRIPOS>MOLECULE
ASD15010002
 158  163    0    0    0
SMALL
NO_CHARGES


@<TRIPOS>ATOM
   1 N1             3.6732     3.2924    -3.3065 N.3     
   2 C2             2.9111     2.0503    -3.1217 C.3     
   3 C3             3.2280     1.4572    -1.7473 C.3     
   4 C4             2.4342     0.1635    -1.5548 C.3     
   5 C5             2.7511    -0.4296    -0.1805 C.3     
   6 C6             1.9573    -1.7233     0.0120 C.3     
   7 O7             2.2533    -2.2772     1.2956 O.3     
   8 C8             1.5597    -3.4944     1.5774 C.3     
   9 O9             2.0787    -4.5404     0.7535 O.3     
  10 C10            3.4772    -4.7787     0.9250 C.3     
  11 C11            3.7482    -5.1991     2.3719 C.3     
  12 C12            3.2426    -4.1045     3.3167 C.3     
  13 C13            1.7536    -3.8633     3.0505 C.3     
  14 O14            3.0644    -6.4228     2.6496 O.3     
  15 C15            3.8344    -7.5945     2.3732 C.3     
  16 O16            3.4248    -4.5208     4.6715 O.3     
  17 O17            1.2880    -2.7937     3.8759 O.3     
  18 C18            3.7809    -8.5366     3.5787 C.3     
  19 C19            2.3318    -8.9764     3.8093 C.3     
  20 C20            1.8005    -9.6352     2.5326 C.3     
  21 C21            1.9305    -8.6506     1.3675 C.3     
  22 O22            3.2974    -8.2584     1.2273 O.3     
  23 C23            1.4574    -9.3222     0.0768 C.3     
  24 O24            2.5606   -10.8119     2.2505 O.3     
  25 C25            1.8239   -11.8308     1.5714 C.3     
  26 O26            2.2824    -9.9135     4.8870 O.3     
  27 N27            4.6140    -9.7132     3.3179 N.am    
  28 C28            2.7624   -12.9856     1.2117 C.3     
  29 C29            3.3235   -13.5973     2.4990 C.3     
  30 C30            2.1593   -14.0492     3.3861 C.3     
  31 C31            1.2441   -12.8533     3.6619 C.3     
  32 O32            0.7820   -12.3130     2.4223 O.3     
  33 O33            2.0383   -13.9811     0.4860 O.3     
  34 O34            4.1430   -14.7225     2.1760 O.3     
  35 O35            1.4192   -15.0728     2.7180 O.3     
  36 C36            0.7969   -16.0097     3.5996 C.3     
  37 C37           -0.0648   -16.9801     2.7876 C.3     
  38 C38            0.8330   -17.7690     1.8296 C.3     
  39 C39            1.9153   -18.4901     2.6388 C.3     
  40 C40            2.7006   -17.4614     3.4565 C.3     
  41 O41            1.8022   -16.7419     4.3035 O.3     
  42 C42            3.7445   -18.1801     4.3136 C.3     
  43 O43            1.3033   -19.4341     3.5200 O.3     
  44 C44            1.1028   -20.7249     2.9407 C.3     
  45 O45            0.0477   -18.7289     1.1197 O.3     
  46 N46           -0.7460   -17.9068     3.6951 N.am    
  47 O47            2.3696   -21.3385     2.6940 O.3     
  48 C48            3.1776   -21.4987     3.8617 C.3     
  49 C49            2.4522   -22.4020     4.8625 C.3     
  50 C50            1.0902   -21.7872     5.1992 C.3     
  51 C51            0.2940   -21.5970     3.9045 C.3     
  52 O52            2.2628   -23.6964     4.2874 O.3     
  53 C53            3.3349   -24.6070     4.5398 C.3     
  54 O54           -0.9496   -20.9574     4.1982 O.3     
  55 O55            0.3753   -22.6602     6.0761 O.3     
  56 O56            3.3361   -24.9704     5.9219 O.3     
  57 C57            2.1230   -25.5818     6.3654 C.3     
  58 C58            1.8899   -26.8766     5.5826 C.3     
  59 C59            1.8458   -26.5578     4.0850 C.3     
  60 C60            3.1504   -25.8626     3.6836 C.3     
  61 C61            2.2283   -25.9001     7.8583 C.3     
  62 O62            2.9557   -27.7917     5.8448 O.3     
  63 O63            1.7019   -27.7700     3.3422 O.3     
  64 N64            3.0894   -25.4860     2.2691 N.am    
  65 O65            1.4429    -8.3625    -0.9819 O.3     
  66 O66            4.5364   -17.2150     5.0089 O.3     
  67 O67            2.3305   -24.6822     8.5989 O.3     
  68 C68            3.9182    -5.8766    -0.0084 C.2     
  69 O69            3.1094    -6.4294    -0.7156 O.2     
  70 O70            5.2094    -6.2404    -0.0541 O.3     
  71 S71            5.7854   -10.1550     4.4019 S.o2    
  72 O72            6.3845   -11.3358     3.8861 O.2     
  73 O73            6.5213    -8.9766     4.7000 O.2     
  74 O74            5.0796   -10.5580     5.6887 O.3     
  75 C75            0.0645   -13.3026     4.4852 C.2     
  76 O76           -1.0496   -13.2563     4.0199 O.2     
  77 O77            0.2515   -13.7541     5.7353 O.3     
  78 S78           -2.4006   -17.9424     3.7535 S.o2    
  79 O79           -2.7474   -18.9536     4.6896 O.2     
  80 O80           -2.8269   -16.5922     3.8743 O.2     
  81 O81           -2.8890   -18.4275     2.3961 O.3     
  82 C82            4.4934   -22.1265     3.4801 C.2     
  83 O83            4.6820   -22.4906     2.3436 O.2     
  84 O84            5.4559   -22.2811     4.4028 O.3     
  85 S85            4.4574   -25.5418     1.3377 S.o2    
  86 O86            4.0663   -25.1573     0.0268 O.2     
  87 O87            5.4717   -24.8722     2.0739 O.2     
  88 O88            4.8828   -27.0005     1.2488 O.3     
  89 H89            4.6620     3.1313    -3.1860 H       
  90 H90            3.4811     3.7038    -4.2076 H       
  91 H91            1.8445     2.2652    -3.1874 H       
  92 H92            3.1864     1.3362    -3.8978 H       
  93 H93            4.2946     1.2422    -1.6816 H       
  94 H94            2.9527     2.1713    -0.9712 H       
  95 H95            1.3676     0.3784    -1.6206 H       
  96 H96            2.7095    -0.5506    -2.3309 H       
  97 H97            3.8177    -0.6446    -0.1147 H       
  98 H98            2.4758     0.2845     0.5956 H       
  99 H99            0.8907    -1.5084    -0.0538 H       
 100 H100           2.2326    -2.4374    -0.7641 H       
 101 H101           0.4973    -3.3633     1.3721 H       
 102 H102           4.0314    -3.8671     0.7014 H       
 103 H103           4.8195    -5.3386     2.5162 H       
 104 H104           3.7986    -3.1840     3.1388 H       
 105 H105           1.1917    -4.7697     3.2760 H       
 106 H106           4.8690    -7.3120     2.1783 H       
 107 H107           3.1255    -3.8742     5.3253 H       
 108 H108           0.3508    -2.5862     3.7592 H       
 109 H109           4.1492    -8.0173     4.4635 H       
 110 H110           1.7212    -8.1068     4.0523 H       
 111 H111           0.7524    -9.9015     2.6693 H       
 112 H112           1.3182    -7.7707     1.5652 H       
 113 H113           2.1363   -10.1356    -0.1795 H       
 114 H114           0.4526    -9.7194     0.2210 H       
 115 H115           1.3886   -11.4190     0.6609 H       
 116 H116           2.6111    -9.5647     5.7269 H       
 117 H117           4.4794   -10.2334     2.5104 H       
 118 H118           3.5824   -12.6111     0.5988 H       
 119 H119           3.9172   -12.8521     3.0283 H       
 120 H120           2.5479   -14.4354     4.3284 H       
 121 H121           1.7984   -12.0896     4.2074 H       
 122 H122           1.6504   -13.6613    -0.3401 H       
 123 H123           4.8973   -14.5100     1.6095 H       
 124 H124           0.1692   -15.4758     4.3131 H       
 125 H125          -0.8042   -16.4196     2.2156 H       
 126 H126           1.3017   -17.0847     1.1223 H       
 127 H127           2.5921   -19.0095     1.9604 H       
 128 H128           3.2001   -16.7658     2.7822 H       
 129 H129           3.2414   -18.8246     5.0345 H       
 130 H130           4.3872   -18.7839     3.6730 H       
 131 H131           0.5600   -20.6213     2.0012 H       
 132 H132          -0.6628   -18.3416     0.5902 H       
 133 H133          -0.2278   -18.4996     4.2617 H       
 134 H134           3.3579   -20.5242     4.3155 H       
 135 H135           3.0470   -22.4897     5.7716 H       
 136 H136           1.2357   -20.8214     5.6830 H       
 137 H137           0.1060   -22.5681     3.4465 H       
 138 H138           4.2827   -24.1312     4.2882 H       
 139 H139          -1.5065   -20.8052     3.4224 H       
 140 H140          -0.4980   -22.3327     6.3311 H       
 141 H141           1.2895   -24.9000     6.1968 H       
 142 H142           0.9430   -27.3216     5.8883 H       
 143 H143           1.0027   -25.8990     3.8772 H       
 144 H144           3.9889   -26.5401     3.8453 H       
 145 H145           1.3401   -26.4457     8.1770 H       
 146 H146           3.1135   -26.5101     8.0382 H       
 147 H147           3.0455   -28.0344     6.7766 H       
 148 H148           0.8989   -28.2665     3.5513 H       
 149 H149           2.2476   -25.2040     1.8782 H       
 150 H150           1.1524    -8.7194    -1.8324 H       
 151 H151           5.2206   -17.6004     5.5731 H       
 152 H152           2.4007   -24.8081     9.5551 H       
 153 H153           5.4575    -6.8960    -0.7202 H       
 154 H154           5.6783   -10.8364     6.3951 H       
 155 H155          -0.5353   -14.0310     6.2244 H       
 156 H156          -3.8514   -18.4855     2.3221 H       
 157 H157           6.2827   -22.6888     4.1107 H       
 158 H158           5.6802   -27.1462     0.7216 H       
@<TRIPOS>BOND
   1    1    2 1
   2    1   89 1
   3    1   90 1
   4    2    3 1
   5    2   91 1
   6    2   92 1
   7    3    4 1
   8    3   93 1
   9    3   94 1
  10    4    5 1
  11    4   95 1
  12    4   96 1
  13    5    6 1
  14    5   97 1
  15    5   98 1
  16    6    7 1
  17    6   99 1
  18    6  100 1
  19    7    8 1
  20    8    9 1
  21    8   13 1
  22    8  101 1
  23    9   10 1
  24   10   68 1
  25   10   11 1
  26   10  102 1
  27   11   12 1
  28   11   14 1
  29   11  103 1
  30   12   13 1
  31   12   16 1
  32   12  104 1
  33   13   17 1
  34   13  105 1
  35   14   15 1
  36   15   18 1
  37   15   22 1
  38   15  106 1
  39   16  107 1
  40   17  108 1
  41   18   19 1
  42   18   27 1
  43   18  109 1
  44   19   20 1
  45   19   26 1
  46   19  110 1
  47   20   21 1
  48   20   24 1
  49   20  111 1
  50   21   22 1
  51   21   23 1
  52   21  112 1
  53   23   65 1
  54   23  113 1
  55   23  114 1
  56   24   25 1
  57   25   28 1
  58   25   32 1
  59   25  115 1
  60   26  116 1
  61   27   71 am
  62   27  117 1
  63   28   29 1
  64   28   33 1
  65   28  118 1
  66   29   30 1
  67   29   34 1
  68   29  119 1
  69   30   31 1
  70   30   35 1
  71   30  120 1
  72   31   75 1
  73   31   32 1
  74   31  121 1
  75   33  122 1
  76   34  123 1
  77   35   36 1
  78   36   37 1
  79   36   41 1
  80   36  124 1
  81   37   38 1
  82   37   46 1
  83   37  125 1
  84   38   39 1
  85   38   45 1
  86   38  126 1
  87   39   40 1
  88   39   43 1
  89   39  127 1
  90   40   41 1
  91   40   42 1
  92   40  128 1
  93   42   66 1
  94   42  129 1
  95   42  130 1
  96   43   44 1
  97   44   47 1
  98   44   51 1
  99   44  131 1
 100   45  132 1
 101   46   78 am
 102   46  133 1
 103   47   48 1
 104   48   82 1
 105   48   49 1
 106   48  134 1
 107   49   50 1
 108   49   52 1
 109   49  135 1
 110   50   51 1
 111   50   55 1
 112   50  136 1
 113   51   54 1
 114   51  137 1
 115   52   53 1
 116   53   56 1
 117   53   60 1
 118   53  138 1
 119   54  139 1
 120   55  140 1
 121   56   57 1
 122   57   58 1
 123   57   61 1
 124   57  141 1
 125   58   59 1
 126   58   62 1
 127   58  142 1
 128   59   60 1
 129   59   63 1
 130   59  143 1
 131   60   64 1
 132   60  144 1
 133   61   67 1
 134   61  145 1
 135   61  146 1
 136   62  147 1
 137   63  148 1
 138   64   85 am
 139   64  149 1
 140   65  150 1
 141   66  151 1
 142   67  152 1
 143   68   69 2
 144   68   70 1
 145   70  153 1
 146   71   72 2
 147   71   73 2
 148   71   74 1
 149   74  154 1
 150   75   76 2
 151   75   77 1
 152   77  155 1
 153   78   79 2
 154   78   80 2
 155   78   81 1
 156   81  156 1
 157   82   83 2
 158   82   84 1
 159   84  157 1
 160   85   86 2
 161   85   87 2
 162   85   88 1
 163   88  158 1

#	End of record

