#	Name: ASD10420180
#	Creating user name:	WinNT
#	Creation time:	15. 06. 2019 21:27

#	Modifying user name:	WinNT
#	Modification time:	15. 06. 2019 21:27

#	Program:	/corina/corina34_cracker 3.40 0067  02.08.2006

@<TRIPOS>MOLECULE
ASD10420180
  27   28    0    0    0
SMALL
NO_CHARGES


@<TRIPOS>ATOM
   1 Cl1            4.2522    -0.9258    -1.7554 Cl      
   2 Cl2           -4.0048     2.6104     5.1385 Cl      
   3 Cl3           -3.6411     3.7164    -0.1365 Cl      
   4 C4            -0.0315     1.3621     0.0044 C.ar    
   5 C5            -0.0398    -0.0216    -0.1458 C.ar    
   6 C6             1.1566    -0.7203    -0.1657 C.ar    
   7 C7             2.3549    -0.0431    -0.0365 C.ar    
   8 C8             2.3632     1.3314     0.1131 C.ar    
   9 C9             1.1734     2.0348     0.1333 C.ar    
  10 O10           -1.2025     2.0529     0.0189 O.3     
  11 C11           -1.8526     2.1820     1.2056 C.ar    
  12 C12           -3.0156     2.9363     1.2827 C.ar    
  13 C13           -3.6748     3.0660     2.4909 C.ar    
  14 C14           -3.1759     2.4451     3.6222 C.ar    
  15 C15           -2.0168     1.6929     3.5468 C.ar    
  16 C16           -1.3581     1.5555     2.3403 C.ar    
  17 C17            3.6550    -0.8047    -0.0584 C.3     
  18 O18           -1.2193    -0.6863    -0.2722 O.3     
  19 H19            1.1530    -1.7940    -0.2817 H       
  20 H20            3.3014     1.8567     0.2140 H       
  21 H21            1.1827     3.1085     0.2496 H       
  22 H22           -4.5796     3.6526     2.5519 H       
  23 H23           -1.6289     1.2095     4.4312 H       
  24 H24           -0.4562     0.9644     2.2814 H       
  25 H25            3.4966    -1.8056     0.3432 H       
  26 H26            4.3928    -0.2817     0.5500 H       
  27 H27           -1.5200    -0.7836    -1.1862 H       
@<TRIPOS>BOND
   1    1   17 1
   2    2   14 1
   3    3   12 1
   4    4    5 ar
   5    4    9 ar
   6    4   10 1
   7    5    6 ar
   8    5   18 1
   9    6    7 ar
  10    6   19 1
  11    7    8 ar
  12    7   17 1
  13    8    9 ar
  14    8   20 1
  15    9   21 1
  16   10   11 1
  17   11   12 ar
  18   11   16 ar
  19   12   13 ar
  20   13   14 ar
  21   13   22 1
  22   14   15 ar
  23   15   16 ar
  24   15   23 1
  25   16   24 1
  26   17   25 1
  27   17   26 1
  28   18   27 1

#	End of record

