#	Name: ASD10950013
#	Creating user name:	WinNT
#	Creation time:	15. 06. 2019 21:28

#	Modifying user name:	WinNT
#	Modification time:	15. 06. 2019 21:28

#	Program:	/corina/corina34_cracker 3.40 0067  02.08.2006

@<TRIPOS>MOLECULE
ASD10950013
  59   63    0    0    0
SMALL
NO_CHARGES


@<TRIPOS>ATOM
   1 C1             0.6416     1.3396    -2.1833 C.3     
   2 O2             0.5570    -0.0616    -1.8122 O.3     
   3 C3             1.0713    -0.4099    -0.6169 C.2     
   4 O4             1.5767     0.4339     0.0960 O.2     
   5 C5             1.0208    -1.8180    -0.1730 C.ar    
   6 C6             1.5530    -2.1825     1.0654 C.ar    
   7 C7             1.5025    -3.4991     1.4737 C.ar    
   8 C8             0.9261    -4.4577     0.6591 C.ar    
   9 C9             0.3968    -4.1035    -0.5693 C.ar    
  10 C10            0.4355    -2.7895    -0.9874 C.ar    
  11 C11            0.8751    -5.8942     1.1117 C.3     
  12 N12           -0.4763    -6.4348     0.9235 N.am    
  13 C13           -1.7003    -5.9343     1.5540 C.3     
  14 C14           -2.3310    -4.8620     0.6635 C.3     
  15 C15           -3.5901    -4.3472     1.3121 C.2     
  16 C16           -4.8412    -4.7730     1.0766 C.2     
  17 N17           -5.7257    -4.0729     1.8511 N.pl3   
  18 C18           -5.0481    -3.1563     2.6234 C.ar    
  19 C19           -3.6803    -3.2916     2.3238 C.ar    
  20 C20           -2.7429    -2.4801     2.9659 C.ar    
  21 C21           -3.1597    -1.5574     3.8832 C.ar    
  22 C22           -4.5084    -1.4203     4.1828 C.ar    
  23 C23           -5.4497    -2.2129     3.5637 C.ar    
  24 C24           -0.3925    -7.4711     0.0696 C.2     
  25 O25           -1.3321    -8.1450    -0.3033 O.2     
  26 C26            1.0120    -7.6679    -0.3486 C.2     
  27 C27            1.7904    -6.7406     0.2582 C.2     
  28 C28            3.2403    -6.5873     0.1144 C.2     
  29 O29            3.7131    -6.2499    -0.9542 O.2     
  30 C30            4.1306    -6.8434     1.2705 C.ar    
  31 C31            5.5146    -6.6695     1.1647 C.ar    
  32 C32            6.3070    -6.9192     2.2679 C.ar    
  33 N33            5.7757    -7.3158     3.4074 N.ar    
  34 C34            4.4770    -7.4921     3.5501 C.ar    
  35 C35            3.6101    -7.2603     2.5002 C.ar    
  36 O36            1.4497    -8.6227    -1.2007 O.3     
  37 H37            1.6875     1.6447    -2.2144 H       
  38 H38            0.1918     1.4831    -3.1657 H       
  39 H39            0.1088     1.9429    -1.4482 H       
  40 H40            2.0034    -1.4353     1.7019 H       
  41 H41            1.9141    -3.7825     2.4311 H       
  42 H42           -0.0513    -4.8567    -1.2003 H       
  43 H43            0.0220    -2.5143    -1.9464 H       
  44 H44            1.1651    -5.9670     2.1599 H       
  45 H45           -2.4034    -6.7567     1.6859 H       
  46 H46           -1.4585    -5.5036     2.5257 H       
  47 H47           -1.6279    -4.0396     0.5315 H       
  48 H48           -2.5728    -5.2927    -0.3082 H       
  49 H49           -5.1099    -5.5522     0.3787 H       
  50 H50           -6.6870    -4.2027     1.8552 H       
  51 H51           -1.6920    -2.5816     2.7384 H       
  52 H52           -2.4343    -0.9300     4.3796 H       
  53 H53           -4.8224    -0.6867     4.9105 H       
  54 H54           -6.4965    -2.0986     3.8035 H       
  55 H55            5.9567    -6.3452     0.2342 H       
  56 H56            7.3766    -6.7881     2.1961 H       
  57 H57            4.0853    -7.8181     4.5023 H       
  58 H58            2.5473    -7.4064     2.6244 H       
  59 H59            0.7506    -9.1993    -1.5380 H       
@<TRIPOS>BOND
   1    1    2 1
   2    1   37 1
   3    1   38 1
   4    1   39 1
   5    2    3 1
   6    3    4 2
   7    3    5 1
   8    5    6 ar
   9    5   10 ar
  10    6    7 ar
  11    6   40 1
  12    7    8 ar
  13    7   41 1
  14    8    9 ar
  15    8   11 1
  16    9   10 ar
  17    9   42 1
  18   10   43 1
  19   11   12 1
  20   11   27 1
  21   11   44 1
  22   12   13 1
  23   12   24 am
  24   13   14 1
  25   13   45 1
  26   13   46 1
  27   14   15 1
  28   14   47 1
  29   14   48 1
  30   15   16 2
  31   15   19 1
  32   16   17 1
  33   16   49 1
  34   17   18 1
  35   17   50 1
  36   18   19 ar
  37   18   23 ar
  38   19   20 ar
  39   20   21 ar
  40   20   51 1
  41   21   22 ar
  42   21   52 1
  43   22   23 ar
  44   22   53 1
  45   23   54 1
  46   24   25 2
  47   24   26 1
  48   26   27 2
  49   26   36 1
  50   27   28 1
  51   28   29 2
  52   28   30 1
  53   30   31 ar
  54   30   35 ar
  55   31   32 ar
  56   31   55 1
  57   32   33 ar
  58   32   56 1
  59   33   34 ar
  60   34   35 ar
  61   34   57 1
  62   35   58 1
  63   36   59 1

#	End of record

