#	Name: ASD10160086
#	Creating user name:	WinNT
#	Creation time:	15. 06. 2019 21:25

#	Modifying user name:	WinNT
#	Modification time:	15. 06. 2019 21:25

#	Program:	/corina/corina34_cracker 3.40 0067  02.08.2006

@<TRIPOS>MOLECULE
ASD10160086
  45   46    0    0    0
SMALL
NO_CHARGES


@<TRIPOS>ATOM
   1 C1             4.7344    -7.0755    -0.9452 C.2     
   2 C2             3.5033    -6.3013    -0.7027 C.ar    
   3 C3             2.8455    -5.6755    -1.7689 C.ar    
   4 C4             1.6936    -4.9522    -1.5357 C.ar    
   5 C5             1.1881    -4.8453    -0.2462 C.ar    
   6 C6             1.8397    -5.4655     0.8147 C.ar    
   7 C7             2.9857    -6.1943     0.5914 C.ar    
   8 O8             5.1802    -7.1715    -2.0725 O.2     
   9 N9             5.3688    -7.6723     0.0833 N.am    
  10 S10            6.7515    -8.5419    -0.1890 S.o2    
  11 O11            7.1146    -9.0337     1.0938 O.2     
  12 O12            6.4052    -9.4298    -1.2429 O.2     
  13 C13            7.9545    -7.3113    -0.7628 C.3     
  14 F14            3.3377    -5.7793    -3.0227 F       
  15 O15            0.0553    -4.1333    -0.0208 O.3     
  16 C16           -2.3266    -4.0816    -0.0040 C.ar    
  17 C17           -1.1360    -4.7815    -0.1176 C.ar    
  18 C18           -1.1746    -6.1564    -0.3325 C.ar    
  19 C19           -2.4102    -6.7747    -0.4249 C.ar    
  20 C20           -3.5621    -6.0073    -0.3009 C.ar    
  21 N21           -3.4867    -4.7032    -0.0972 N.ar    
  22 O22           -4.7787    -6.6035    -0.3904 O.3     
  23 C23           -5.9253    -5.7615    -0.2546 C.3     
  24 C24           -7.1954    -6.6049    -0.3827 C.3     
  25 C25           -7.2747    -7.5883     0.7867 C.3     
  26 C26           -8.4204    -5.6885    -0.3623 C.3     
  27 Cl27          -2.5189    -8.4864    -0.6929 Cl      
  28 H28            1.1848    -4.4684    -2.3564 H       
  29 H29            1.4427    -5.3790     1.8153 H       
  30 H30            3.4873    -6.6790     1.4159 H       
  31 H31            5.0154    -7.5924     0.9831 H       
  32 H32            8.0953    -6.5539     0.0082 H       
  33 H33            8.9059    -7.8017    -0.9685 H       
  34 H34            7.5849    -6.8389    -1.6730 H       
  35 H35           -2.3046    -3.0155     0.1673 H       
  36 H36           -0.2625    -6.7272    -0.4254 H       
  37 H37           -5.9073    -5.2778     0.7220 H       
  38 H38           -5.9131    -5.0021    -1.0365 H       
  39 H39           -7.1711    -7.1581    -1.3216 H       
  40 H40           -8.1795    -8.1892     0.6955 H       
  41 H41           -6.4020    -8.2412     0.7722 H       
  42 H42           -7.2990    -7.0352     1.7256 H       
  43 H43           -8.3640    -4.9879    -1.1954 H       
  44 H44           -9.3253    -6.2894    -0.4535 H       
  45 H45           -8.4448    -5.1353     0.5766 H       
@<TRIPOS>BOND
   1    1    2 1
   2    1    8 2
   3    1    9 am
   4    2    3 ar
   5    2    7 ar
   6    3    4 ar
   7    3   14 1
   8    4    5 ar
   9    4   28 1
  10    5    6 ar
  11    5   15 1
  12    6    7 ar
  13    6   29 1
  14    7   30 1
  15    9   10 am
  16    9   31 1
  17   10   11 2
  18   10   12 2
  19   10   13 1
  20   13   32 1
  21   13   33 1
  22   13   34 1
  23   15   17 1
  24   16   17 ar
  25   16   21 ar
  26   16   35 1
  27   17   18 ar
  28   18   19 ar
  29   18   36 1
  30   19   20 ar
  31   19   27 1
  32   20   21 ar
  33   20   22 1
  34   22   23 1
  35   23   24 1
  36   23   37 1
  37   23   38 1
  38   24   25 1
  39   24   26 1
  40   24   39 1
  41   25   40 1
  42   25   41 1
  43   25   42 1
  44   26   43 1
  45   26   44 1
  46   26   45 1

#	End of record

