#	Name: ASD10410140
#	Creating user name:	WinNT
#	Creation time:	15. 06. 2019 21:26

#	Modifying user name:	WinNT
#	Modification time:	15. 06. 2019 21:26

#	Program:	/corina/corina34_cracker 3.40 0067  02.08.2006

@<TRIPOS>MOLECULE
ASD10410140
  67   73    0    0    0
SMALL
NO_CHARGES


@<TRIPOS>ATOM
   1 C1            -0.0183     1.3940    -0.0810 C.ar    
   2 C2            -0.0057     0.0094     0.0247 C.ar    
   3 C3             1.2026    -0.6691     0.1153 C.ar    
   4 C4             2.3914     0.0330     0.1007 C.ar    
   5 C5             2.3789     1.4177    -0.0050 C.ar    
   6 C6             1.1705     2.0962    -0.0960 C.ar    
   7 N7             3.5845     2.1297    -0.0197 N.pl3   
   8 C8             3.6711     3.3405    -0.7069 C.2     
   9 N9             4.7090     4.1424    -0.7091 N.2     
  10 N10            2.7107     3.8683    -1.4749 N.2     
  11 C11            3.1213     5.0155    -1.9718 C.2     
  12 N12            4.3777     5.2393    -1.5208 N.pl3   
  13 C13            5.1850     6.3427    -1.8064 C.ar    
  14 N14            2.3987     5.8438    -2.8097 N.pl3   
  15 N15           -1.2109    -0.7023     0.0404 N.3     
  16 C16           -0.9680    -2.1468     0.1580 C.3     
  17 C17           -2.3077    -2.8808     0.2517 C.3     
  18 N18           -3.1124    -2.5803    -0.9407 N.3     
  19 C19           -3.3553    -1.1357    -1.0583 C.3     
  20 C20           -2.0155    -0.4018    -1.1520 C.3     
  21 N21            4.7405     7.3073    -2.5917 N.ar    
  22 N22            5.4443     8.3385    -2.8815 N.ar    
  23 C23            6.6605     8.5255    -2.4266 C.ar    
  24 C24            7.2470     7.5614    -1.5755 C.ar    
  25 C25            6.4733     6.4383    -1.2564 C.ar    
  26 C26           -4.3772    -3.3272    -0.9243 C.3     
  27 C27           -5.2738    -2.9044    -2.1278 C.3     
  28 C28           -4.1155    -4.8350    -1.1425 C.3     
  29 C29           -4.8787    -5.1812    -2.4574 C.3     
  30 C30           -6.6478    -3.5873    -1.8498 C.3     
  31 C31           -6.3861    -5.0951    -2.0681 C.3     
  32 C32           -4.7077    -3.8397    -3.2540 C.3     
  33 C33            8.5490     7.5179    -0.9430 C.2     
  34 C34            8.7694     6.4480    -0.1996 C.2     
  35 S35            7.3823     5.3743    -0.1970 S.3     
  36 C36            7.4296     9.7633    -2.8104 C.3     
  37 H37           -0.9579     1.9214    -0.1559 H       
  38 H38            1.2123    -1.7459     0.1975 H       
  39 H39            3.3311    -0.4947     0.1719 H       
  40 H40            1.1607     3.1730    -0.1786 H       
  41 H41            4.3595     1.7810     0.4479 H       
  42 H42            1.5014     5.5952    -3.0816 H       
  43 H43            2.7889     6.6737    -3.1258 H       
  44 H44           -0.4223    -2.4964    -0.7184 H       
  45 H45           -0.3812    -2.3451     1.0550 H       
  46 H46           -2.1308    -3.9547     0.3099 H       
  47 H47           -2.8415    -2.5510     1.1431 H       
  48 H48           -3.9420    -0.9375    -1.9553 H       
  49 H49           -3.9009    -0.7862    -0.1819 H       
  50 H50           -2.1925     0.6722    -1.2102 H       
  51 H51           -1.4818    -0.7315    -2.0434 H       
  52 H52           -4.9022    -3.1632     0.0168 H       
  53 H53           -5.3076    -1.8368    -2.3450 H       
  54 H54           -3.0484    -5.0221    -1.2621 H       
  55 H55           -4.5127    -5.4142    -0.3089 H       
  56 H56           -4.5684    -6.0964    -2.9616 H       
  57 H57           -6.9638    -3.4011    -0.8234 H       
  58 H58           -7.4002    -3.2267    -2.5513 H       
  59 H59           -7.0099    -5.4758    -2.8769 H       
  60 H60           -6.5735    -5.6502    -1.1490 H       
  61 H61           -5.3239    -3.8165    -4.1527 H       
  62 H62           -3.6620    -3.6262    -3.4753 H       
  63 H63            9.2835     8.2996    -1.0695 H       
  64 H64            9.6860     6.2596     0.3395 H       
  65 H65            7.2335    10.5525    -2.0847 H       
  66 H66            8.4961     9.5388    -2.8238 H       
  67 H67            7.1154    10.0938    -3.8005 H       
@<TRIPOS>BOND
   1    1    2 ar
   2    1    6 ar
   3    1   37 1
   4    2    3 ar
   5    2   15 1
   6    3    4 ar
   7    3   38 1
   8    4    5 ar
   9    4   39 1
  10    5    6 ar
  11    5    7 1
  12    6   40 1
  13    7    8 1
  14    7   41 1
  15    8    9 2
  16    8   10 1
  17    9   12 1
  18   10   11 2
  19   11   12 1
  20   11   14 1
  21   12   13 1
  22   13   21 ar
  23   13   25 ar
  24   14   42 1
  25   14   43 1
  26   15   16 1
  27   15   20 1
  28   16   17 1
  29   16   44 1
  30   16   45 1
  31   17   18 1
  32   17   46 1
  33   17   47 1
  34   18   19 1
  35   18   26 1
  36   19   20 1
  37   19   48 1
  38   19   49 1
  39   20   50 1
  40   20   51 1
  41   21   22 ar
  42   22   23 ar
  43   23   24 ar
  44   23   36 1
  45   24   25 ar
  46   24   33 1
  47   25   35 1
  48   26   27 1
  49   26   28 1
  50   26   52 1
  51   27   30 1
  52   27   32 1
  53   27   53 1
  54   28   29 1
  55   28   54 1
  56   28   55 1
  57   29   31 1
  58   29   32 1
  59   29   56 1
  60   30   31 1
  61   30   57 1
  62   30   58 1
  63   31   59 1
  64   31   60 1
  65   32   61 1
  66   32   62 1
  67   33   34 2
  68   33   63 1
  69   34   35 1
  70   34   64 1
  71   36   65 1
  72   36   66 1
  73   36   67 1

#	End of record

