#	Name: ASD10100025
#	Creating user name:	WinNT
#	Creation time:	15. 06. 2019 21:24

#	Modifying user name:	WinNT
#	Modification time:	15. 06. 2019 21:24

#	Program:	/corina/corina34_cracker 3.40 0067  02.08.2006

@<TRIPOS>MOLECULE
ASD10100025
  48   50    0    0    0
SMALL
NO_CHARGES


@<TRIPOS>ATOM
   1 C1             0.5857     1.4485    -0.4973 C.3     
   2 C2            -0.1984     1.5223    -1.8090 C.3     
   3 N3             0.7082     1.2808    -2.9341 N.am    
   4 C4             0.6170     0.0764    -3.6698 C.2     
   5 C5             0.4198    -1.1161    -3.0281 C.2     
   6 N6             0.3079    -1.1571    -1.6571 N.pl3   
   7 N7             0.3341    -2.2741    -3.7672 N.am    
   8 C8             0.1227    -3.5561    -3.0904 C.3     
   9 C9            -1.3557    -3.8217    -2.9679 C.ar    
  10 C10           -2.0479    -3.3780    -1.8567 C.ar    
  11 C11           -3.4039    -3.6216    -1.7443 C.ar    
  12 C12           -4.0679    -4.3085    -2.7434 C.ar    
  13 C13           -3.3759    -4.7513    -3.8551 C.ar    
  14 C14           -2.0207    -4.5040    -3.9695 C.ar    
  15 C15            0.4429    -2.2353    -5.1078 C.2     
  16 O16            0.3643    -3.2683    -5.7448 O.2     
  17 N17            0.6369    -1.0718    -5.7547 N.am    
  18 C18            0.7217     0.0870    -5.0723 C.2     
  19 O19            0.8929     1.1381    -5.6668 O.2     
  20 S20            1.8398     2.4180    -3.3445 S.o2    
  21 O21            1.5148     2.8517    -4.6581 O.2     
  22 O22            1.9402     3.3022    -2.2367 O.2     
  23 C23            3.3911     1.5910    -3.4633 C.ar    
  24 C24            4.2009     1.4774    -2.3487 C.ar    
  25 C25            5.4180     0.8285    -2.4418 C.ar    
  26 C26            5.8251     0.2929    -3.6494 C.ar    
  27 C27            5.0149     0.4057    -4.7638 C.ar    
  28 C28            3.7959     1.0508    -4.6696 C.ar    
  29 H29           -0.0888     1.6283     0.3399 H       
  30 H30            1.0339     0.4600    -0.3970 H       
  31 H31            1.3707     2.2048    -0.5002 H       
  32 H32           -0.9834     0.7661    -1.8061 H       
  33 H33           -0.6466     2.5108    -1.9093 H       
  34 H34           -0.2000    -0.4744    -1.1913 H       
  35 H35            0.7369    -1.8686    -1.1565 H       
  36 H36            0.5884    -4.3537    -3.6693 H       
  37 H37            0.5689    -3.5203    -2.0966 H       
  38 H38           -1.5291    -2.8414    -1.0761 H       
  39 H39           -3.9446    -3.2756    -0.8758 H       
  40 H40           -5.1272    -4.4994    -2.6553 H       
  41 H41           -3.8946    -5.2883    -4.6356 H       
  42 H42           -1.4807    -4.8467    -4.8398 H       
  43 H43            0.7126    -1.0666    -6.7218 H       
  44 H44            3.8829     1.8959    -1.4052 H       
  45 H45            6.0510     0.7404    -1.5712 H       
  46 H46            6.7762    -0.2134    -3.7223 H       
  47 H47            5.3331    -0.0125    -5.7073 H       
  48 H48            3.1612     1.1356    -5.5393 H       
@<TRIPOS>BOND
   1    1    2 1
   2    1   29 1
   3    1   30 1
   4    1   31 1
   5    2    3 1
   6    2   32 1
   7    2   33 1
   8    3    4 1
   9    3   20 am
  10    4   18 1
  11    4    5 2
  12    5    6 1
  13    5    7 1
  14    6   34 1
  15    6   35 1
  16    7    8 1
  17    7   15 am
  18    8    9 1
  19    8   36 1
  20    8   37 1
  21    9   14 ar
  22    9   10 ar
  23   10   11 ar
  24   10   38 1
  25   11   12 ar
  26   11   39 1
  27   12   13 ar
  28   12   40 1
  29   13   14 ar
  30   13   41 1
  31   14   42 1
  32   15   16 2
  33   15   17 am
  34   17   18 am
  35   17   43 1
  36   18   19 2
  37   20   21 2
  38   20   22 2
  39   20   23 1
  40   23   28 ar
  41   23   24 ar
  42   24   25 ar
  43   24   44 1
  44   25   26 ar
  45   25   45 1
  46   26   27 ar
  47   26   46 1
  48   27   28 ar
  49   27   47 1
  50   28   48 1

#	End of record

