#	Name: ASD10610066
#	Creating user name:	WinNT
#	Creation time:	15. 06. 2019 21:27

#	Modifying user name:	WinNT
#	Modification time:	15. 06. 2019 21:27

#	Program:	/corina/corina34_cracker 3.40 0067  02.08.2006

@<TRIPOS>MOLECULE
ASD10610066
  60   65    0    0    0
SMALL
NO_CHARGES


@<TRIPOS>ATOM
   1 O1            -0.8322     1.7221    -1.3187 O.3     
   2 N2            -1.4450     0.8600    -1.9038 N.2     
   3 C3            -2.0678     1.3306    -2.9501 C.2     
   4 C4            -1.7766     2.7180    -3.0000 C.2     
   5 C5            -0.9691     2.9210    -1.9163 C.2     
   6 C6            -0.3679     4.1982    -1.4869 C.2     
   7 O7            -0.5763     5.2127    -2.1237 O.2     
   8 N8             0.4124     4.2402    -0.3888 N.am    
   9 C9             1.0988     5.4822    -0.0250 C.3     
  10 C10            0.2336     6.7158     0.2406 C.3     
  11 C11            0.9183     5.9965     1.4046 C.3     
  12 C12            2.4388     5.6999    -0.6793 C.2     
  13 N13            3.2588     4.6534    -0.9004 N.am    
  14 O14            2.7794     6.8169    -1.0069 O.2     
  15 O15            6.8067     4.5143    -0.7396 O.3     
  16 C16            5.6081     5.1642    -0.2844 C.3     
  17 C17            4.6068     4.8778    -1.4283 C.3     
  18 C18            5.1728     3.6048    -2.0285 C.ar    
  19 C19            6.4735     3.4756    -1.5544 C.ar    
  20 C20            4.6320     2.6671    -2.8819 C.ar    
  21 C21            5.3791     1.5735    -3.2742 C.ar    
  22 C22            6.6825     1.4238    -2.8028 C.ar    
  23 C23            7.2270     2.3743    -1.9448 C.ar    
  24 C24            7.4893     0.2509    -3.2163 C.ar    
  25 C25            6.9567    -1.0441    -3.1117 C.ar    
  26 C26            7.7252    -2.1393    -3.5043 C.ar    
  27 C27            9.0043    -1.9456    -3.9932 C.ar    
  28 C28            9.5278    -0.6678    -4.0955 C.ar    
  29 C29            8.7761     0.4281    -3.7152 C.ar    
  30 O30            3.7190    -0.8070    -1.8144 O.3     
  31 N31            4.7620    -0.3115    -2.1855 N.2     
  32 C32            5.5856    -1.2458    -2.5867 C.2     
  33 N33            4.9506    -2.4303    -2.4327 N.2     
  34 C34            3.7718    -2.1364    -1.9437 C.2     
  35 C35            2.6798    -3.1137    -1.5924 C.3     
  36 F36            7.2209    -3.3889    -3.4068 F       
  37 Cl37          11.1350    -0.4402    -4.7110 Cl      
  38 O38           -2.8412     0.6307    -3.8186 O.3     
  39 C39           -2.9953    -0.7678    -3.5683 C.3     
  40 H40           -2.1136     3.4439    -3.7252 H       
  41 H41            0.5195     3.4480     0.1606 H       
  42 H42            0.6338     7.6849    -0.0575 H       
  43 H43           -0.8463     6.6032     0.1447 H       
  44 H44            0.2888     5.4108     2.0744 H       
  45 H45            1.7689     6.4924     1.8722 H       
  46 H46            2.9564     3.7516    -0.7099 H       
  47 H47            5.2618     4.7245     0.6509 H       
  48 H48            5.7692     6.2364    -0.1718 H       
  49 H49            4.6074     5.6871    -2.1584 H       
  50 H50            3.6218     2.7876    -3.2443 H       
  51 H51            4.9557     0.8381    -3.9423 H       
  52 H52            8.2370     2.2562    -1.5810 H       
  53 H53            9.5981    -2.7953    -4.2963 H       
  54 H54            9.1890     1.4223    -3.8019 H       
  55 H55            1.8163    -2.5709    -1.2079 H       
  56 H56            2.3911    -3.6715    -2.4833 H       
  57 H57            3.0421    -3.8056    -0.8321 H       
  58 H58           -2.0184    -1.2508    -3.5913 H       
  59 H59           -3.4497    -0.9136    -2.5884 H       
  60 H60           -3.6352    -1.2057    -4.3344 H       
@<TRIPOS>BOND
   1    1    2 1
   2    1    5 1
   3    2    3 2
   4    3    4 1
   5    3   38 1
   6    4    5 2
   7    4   40 1
   8    5    6 1
   9    6    7 2
  10    6    8 am
  11    8    9 1
  12    8   41 1
  13    9   10 1
  14    9   11 1
  15    9   12 1
  16   10   11 1
  17   10   42 1
  18   10   43 1
  19   11   44 1
  20   11   45 1
  21   12   13 am
  22   12   14 2
  23   13   17 1
  24   13   46 1
  25   15   16 1
  26   15   19 1
  27   16   17 1
  28   16   47 1
  29   16   48 1
  30   17   18 1
  31   17   49 1
  32   18   19 ar
  33   18   20 ar
  34   19   23 ar
  35   20   21 ar
  36   20   50 1
  37   21   22 ar
  38   21   51 1
  39   22   23 ar
  40   22   24 1
  41   23   52 1
  42   24   25 ar
  43   24   29 ar
  44   25   26 ar
  45   25   32 1
  46   26   27 ar
  47   26   36 1
  48   27   28 ar
  49   27   53 1
  50   28   29 ar
  51   28   37 1
  52   29   54 1
  53   30   31 1
  54   30   34 1
  55   31   32 2
  56   32   33 1
  57   33   34 2
  58   34   35 1
  59   35   55 1
  60   35   56 1
  61   35   57 1
  62   38   39 1
  63   39   58 1
  64   39   59 1
  65   39   60 1

#	End of record

