#	Name: ASD11030023
#	Creating user name:	WinNT
#	Creation time:	15. 06. 2019 21:29

#	Modifying user name:	WinNT
#	Modification time:	15. 06. 2019 21:29

#	Program:	/corina/corina34_cracker 3.40 0067  02.08.2006

@<TRIPOS>MOLECULE
ASD11030023
  37   40    0    0    0
SMALL
NO_CHARGES


@<TRIPOS>ATOM
   1 Cl1            0.1603     0.0297    -1.1782 Cl      
   2 C2             0.1177     1.7597    -1.0404 C.ar    
   3 C3             1.2996     2.4710    -0.9184 C.ar    
   4 C4             1.2724     3.8456    -0.8086 C.ar    
   5 C5             0.0498     4.5199    -0.8206 C.ar    
   6 C6            -1.1384     3.7971    -0.9438 C.ar    
   7 C7            -1.0977     2.4232    -1.0587 C.ar    
   8 C8             0.0136     5.9922    -0.7028 C.2     
   9 N9             1.0473     6.7775    -0.5829 N.2     
  10 N10            0.8358     8.0176    -0.4942 N.2     
  11 C11           -0.4101     8.4231    -0.5295 C.2     
  12 S12           -1.4360     6.9983    -0.7074 S.3     
  13 N13           -0.8351     9.7095    -0.4484 N.2     
  14 C14            0.0405    10.6857    -0.3217 C.2     
  15 N15            1.3992    10.5590    -0.2582 N.am    
  16 C16            2.1351    11.6504    -0.1305 C.2     
  17 O17            3.3500    11.6136    -0.0679 O.2     
  18 C18            1.3833    12.9087    -0.0701 C.2     
  19 C19            1.8770    14.1663     0.0577 C.2     
  20 C20            0.9759    15.3225    -0.0388 C.ar    
  21 C21           -0.1858    15.2461    -0.8155 C.ar    
  22 C22           -1.0266    16.3348    -0.9009 C.ar    
  23 C23           -0.7246    17.5037    -0.2208 C.ar    
  24 C24            0.4232    17.5884     0.5503 C.ar    
  25 C25            1.2720    16.5057     0.6507 C.ar    
  26 Cl26           2.7096    16.6131     1.6179 Cl      
  27 Cl27          -1.7899    18.8695    -0.3362 Cl      
  28 S28           -0.3160    12.4178    -0.2086 S.3     
  29 H29            2.2447     1.9483    -0.9089 H       
  30 H30            2.1947     4.3992    -0.7131 H       
  31 H31           -2.0871     4.3130    -0.9537 H       
  32 H32           -2.0161     1.8630    -1.1544 H       
  33 H33            1.8166     9.6846    -0.3055 H       
  34 H34            2.9324    14.3171     0.2305 H       
  35 H35           -0.4227    14.3362    -1.3469 H       
  36 H36           -1.9233    16.2768    -1.4999 H       
  37 H37            0.6517    18.5029     1.0774 H       
@<TRIPOS>BOND
   1    1    2 1
   2    2    3 ar
   3    2    7 ar
   4    3    4 ar
   5    3   29 1
   6    4    5 ar
   7    4   30 1
   8    5    6 ar
   9    5    8 1
  10    6    7 ar
  11    6   31 1
  12    7   32 1
  13    8    9 2
  14    8   12 1
  15    9   10 1
  16   10   11 2
  17   11   12 1
  18   11   13 1
  19   13   14 2
  20   14   15 1
  21   14   28 1
  22   15   16 am
  23   15   33 1
  24   16   17 2
  25   16   18 1
  26   18   19 2
  27   18   28 1
  28   19   20 1
  29   19   34 1
  30   20   21 ar
  31   20   25 ar
  32   21   22 ar
  33   21   35 1
  34   22   23 ar
  35   22   36 1
  36   23   24 ar
  37   23   27 1
  38   24   25 ar
  39   24   37 1
  40   25   26 1

#	End of record

