#	Name: ASD10160308
#	Creating user name:	WinNT
#	Creation time:	15. 06. 2019 21:25

#	Modifying user name:	WinNT
#	Modification time:	15. 06. 2019 21:25

#	Program:	/corina/corina34_cracker 3.40 0067  02.08.2006

@<TRIPOS>MOLECULE
ASD10160308
  26   27    0    0    0
SMALL
NO_CHARGES


@<TRIPOS>ATOM
   1 C1            -0.0168     1.3861     0.0097 C.ar    
   2 C2             0.0021    -0.0041     0.0020 C.ar    
   3 C3             1.2210    -0.6607    -0.0131 C.ar    
   4 C4             2.3825     0.0998    -0.0201 C.ar    
   5 C5             2.2883     1.4769    -0.0118 C.ar    
   6 N6             1.1118     2.0749     0.0026 N.ar    
   7 O7            -1.2046     2.0422     0.0188 O.3     
   8 C8            -2.3727     5.5567    -0.6048 C.3     
   9 C9            -2.3926     4.0281    -0.6866 C.3     
  10 C10           -1.1569     3.4703     0.0264 C.3     
  11 C11           -1.1441     3.9750     1.4726 C.3     
  12 C12           -1.1725     5.5056     1.4710 C.3     
  13 O13           -2.3300     5.9585     0.7659 O.3     
  14 Cl14          -1.4823    -0.9043     0.0119 Cl      
  15 H15            1.2672    -1.7397    -0.0190 H       
  16 H16            3.3495    -0.3810    -0.0316 H       
  17 H17            3.1890     2.0728    -0.0172 H       
  18 H18           -1.4922     5.9371    -1.1226 H       
  19 H19           -3.2716     5.9575    -1.0733 H       
  20 H20           -3.2935     3.6492    -0.2041 H       
  21 H21           -2.3805     3.7191    -1.7318 H       
  22 H22           -0.2564     3.8078    -0.4869 H       
  23 H23           -2.0198     3.5950     1.9987 H       
  24 H24           -0.2393     3.6280     1.9715 H       
  25 H25           -1.2068     5.8696     2.4978 H       
  26 H26           -0.2763     5.8853     0.9803 H       
@<TRIPOS>BOND
   1    1    2 ar
   2    1    6 ar
   3    1    7 1
   4    2    3 ar
   5    2   14 1
   6    3    4 ar
   7    3   15 1
   8    4    5 ar
   9    4   16 1
  10    5    6 ar
  11    5   17 1
  12    7   10 1
  13    8    9 1
  14    8   13 1
  15    8   18 1
  16    8   19 1
  17    9   10 1
  18    9   20 1
  19    9   21 1
  20   10   11 1
  21   10   22 1
  22   11   12 1
  23   11   23 1
  24   11   24 1
  25   12   13 1
  26   12   25 1
  27   12   26 1

#	End of record

