#	Name: ASD10420178
#	Creating user name:	WinNT
#	Creation time:	15. 06. 2019 21:27

#	Modifying user name:	WinNT
#	Modification time:	15. 06. 2019 21:27

#	Program:	/corina/corina34_cracker 3.40 0067  02.08.2006

@<TRIPOS>MOLECULE
ASD10420178
  19   20    0    0    0
SMALL
NO_CHARGES


@<TRIPOS>ATOM
   1 C1            -0.0167     1.3782     0.0096 C.ar    
   2 C2             0.0021    -0.0041     0.0020 C.ar    
   3 C3             1.1666     2.0886     0.0021 C.ar    
   4 C4             2.4038     0.0163    -0.0203 C.ar    
   5 C5             1.2111    -0.6868    -0.0132 C.ar    
   6 C6             5.8021     2.6164    -0.0403 C.2     
   7 C7             2.3863     1.4110    -0.0131 C.ar    
   8 C8             3.6563     2.1691    -0.0217 C.2     
   9 N9             5.1272     3.7855    -0.0279 N.am    
  10 N10            3.7613     3.4665    -0.0162 N.2     
  11 O11            1.2237    -2.0458    -0.0206 O.3     
  12 O12            4.8931     1.6261    -0.0364 O.3     
  13 S13            7.5037     2.4294    -0.0641 S.2     
  14 H14           -0.9601     1.9037     0.0169 H       
  15 H15           -0.9269    -0.5549     0.0083 H       
  16 H16            1.1484     3.1684     0.0077 H       
  17 H17            3.3449    -0.5135    -0.0314 H       
  18 H18            5.5129     4.6755    -0.0269 H       
  19 H19            1.2190    -2.4343    -0.9061 H       
@<TRIPOS>BOND
   1    1    2 ar
   2    1    3 ar
   3    1   14 1
   4    2    5 ar
   5    2   15 1
   6    3    7 ar
   7    3   16 1
   8    4    5 ar
   9    4    7 ar
  10    4   17 1
  11    5   11 1
  12    6    9 am
  13    6   12 1
  14    6   13 2
  15    7    8 1
  16    8   10 2
  17    8   12 1
  18    9   10 1
  19    9   18 1
  20   11   19 1

#	End of record

