#	Name: ASD10010007
#	Creating user name:	WinNT
#	Creation time:	15. 06. 2019 21:24

#	Modifying user name:	WinNT
#	Modification time:	15. 06. 2019 21:24

#	Program:	/corina/corina34_cracker 3.40 0067  02.08.2006

@<TRIPOS>MOLECULE
ASD10010007
  54   58    0    0    0
SMALL
NO_CHARGES


@<TRIPOS>ATOM
   1 N1            -1.6249    -2.7407     3.4958 N.1     
   2 C2            -0.0037     1.3732     0.0181 C.ar    
   3 O3             1.5004    -3.1528    -0.0454 O.3     
   4 C4            -1.1783    -0.7134     0.0135 C.ar    
   5 C5            -2.3849    -0.0384     0.0284 C.ar    
   6 C6            -2.4048     1.3427     0.0499 C.ar    
   7 O7            -2.3296    -2.2732    -2.4625 O.2     
   8 C8            -1.1883    -2.6891    -2.4559 C.2     
   9 C9            -0.4645    -2.7030    -1.2481 C.2     
  10 C10            0.8091    -3.1346    -1.2005 C.2     
  11 C11            0.8455    -3.1555     1.1259 C.2     
  12 N12            1.4850    -3.6112     2.2519 N.pl3   
  13 C13           -0.4339    -2.7188     1.2208 C.2     
  14 C14           -1.0980    -2.7310     2.4894 C.1     
  15 C15           -1.1593    -2.2202     0.0022 C.3     
  16 C16            0.0110    -0.0081     0.0083 C.ar    
  17 C17           -1.2130     2.0527     0.0389 C.ar    
  18 O18           -1.2301     3.4116     0.0491 O.3     
  19 C19           -2.5113     4.0441     0.0705 C.3     
  20 C20           -0.5735    -3.1797    -3.7384 C.3     
  21 C21            0.4886    -4.2337    -3.4068 C.3     
  22 C22            1.5087    -3.6100    -2.4524 C.3     
  23 C23            1.1807    -4.6708    -4.6721 C.ar    
  24 C24            1.7606    -3.7487    -5.4884 C.ar    
  25 C25            2.4048    -4.1340    -6.6622 C.ar    
  26 C26            2.4735    -5.4438    -7.0266 C.ar    
  27 C27            1.8870    -6.4244    -6.2090 C.ar    
  28 C28            1.2358    -6.0329    -5.0124 C.ar    
  29 C29            1.9379    -7.7865    -6.5518 C.ar    
  30 C30            1.3589    -8.7084    -5.7352 C.ar    
  31 C31            0.7139    -8.3229    -4.5613 C.ar    
  32 C32            0.6538    -7.0144    -4.1919 C.ar    
  33 H33            0.9255     1.9236     0.0140 H       
  34 H34           -3.3125    -0.5916     0.0320 H       
  35 H35           -3.3476     1.8695     0.0612 H       
  36 H36            2.4005    -3.9267     2.1956 H       
  37 H37            1.0213    -3.6176     3.1039 H       
  38 H38            0.9522    -0.5376    -0.0037 H       
  39 H39           -2.3821     5.1264     0.0767 H       
  40 H40           -3.0762     3.7507    -0.8143 H       
  41 H41           -3.0529     3.7377     0.9655 H       
  42 H42           -1.3453    -3.6241    -4.3668 H       
  43 H43           -0.1085    -2.3450    -4.2632 H       
  44 H44            0.0157    -5.0934    -2.9321 H       
  45 H45            1.9927    -2.7643    -2.9409 H       
  46 H46            2.2601    -4.3540    -2.1878 H       
  47 H47            1.7203    -2.7027    -5.2224 H       
  48 H48            2.8562    -3.3822    -7.2927 H       
  49 H49            2.9759    -5.7276    -7.9395 H       
  50 H50            2.4336    -8.0999    -7.4587 H       
  51 H51            1.3994    -9.7544    -6.0010 H       
  52 H52            0.2655    -9.0751    -3.9292 H       
  53 H53            0.1505    -6.7305    -3.2795 H       
  54 H54           -2.1829    -2.5947     0.0124 H       
@<TRIPOS>BOND
   1    1   14 3
   2    2   16 ar
   3    2   33 1
   4    2   17 ar
   5    3   10 1
   6    3   11 1
   7    4   15 1
   8    4    5 ar
   9    4   16 ar
  10    5   34 1
  11    5    6 ar
  12    6   35 1
  13    6   17 ar
  14    7    8 2
  15    8   20 1
  16    8    9 1
  17    9   10 2
  18    9   15 1
  19   10   22 1
  20   11   12 1
  21   11   13 2
  22   12   36 1
  23   12   37 1
  24   13   14 1
  25   13   15 1
  26   15   54 1
  27   16   38 1
  28   17   18 1
  29   18   19 1
  30   19   39 1
  31   19   40 1
  32   19   41 1
  33   20   21 1
  34   20   42 1
  35   20   43 1
  36   21   23 1
  37   21   44 1
  38   21   22 1
  39   22   45 1
  40   22   46 1
  41   23   24 ar
  42   23   28 ar
  43   24   25 ar
  44   24   47 1
  45   25   48 1
  46   25   26 ar
  47   26   49 1
  48   26   27 ar
  49   27   28 ar
  50   27   29 ar
  51   28   32 ar
  52   29   50 1
  53   29   30 ar
  54   30   51 1
  55   30   31 ar
  56   31   32 ar
  57   31   52 1
  58   32   53 1

#	End of record

