#	Name: ASD10410187
#	Creating user name:	WinNT
#	Creation time:	15. 06. 2019 21:27

#	Modifying user name:	WinNT
#	Modification time:	15. 06. 2019 21:27

#	Program:	/corina/corina34_cracker 3.40 0067  02.08.2006

@<TRIPOS>MOLECULE
ASD10410187
  70   76    0    0    0
SMALL
NO_CHARGES


@<TRIPOS>ATOM
   1 C1             0.2266     1.7537     0.5570 C.ar    
   2 C2             0.1731     0.3827     0.7701 C.ar    
   3 C3             1.3172    -0.3894     0.6149 C.ar    
   4 C4             2.5076     0.2064     0.2487 C.ar    
   5 C5             2.5610     1.5778     0.0351 C.ar    
   6 C6             1.4172     2.3496     0.1903 C.ar    
   7 C7             1.2593    -1.8773     0.8466 C.3     
   8 N8             3.7685     2.1822    -0.3358 N.pl3   
   9 C9             3.7586     3.3471    -1.1024 C.2     
  10 N10            4.8150     4.0539    -1.4246 N.2     
  11 N11            2.6701     3.9184    -1.6311 N.2     
  12 C12            3.0150     5.0011    -2.2945 C.2     
  13 N13            4.3646     5.1365    -2.1973 N.pl3   
  14 C14            5.1449     6.1475    -2.7538 C.ar    
  15 N15            2.1589     5.8478    -2.9717 N.pl3   
  16 N16           -1.0336    -0.2213     1.1418 N.3     
  17 C17           -1.5264    -1.1103     0.0805 C.3     
  18 C18           -2.8017    -1.8101     0.5561 C.3     
  19 N19           -3.8110    -0.8001     0.9038 N.3     
  20 C20           -3.3182     0.0890     1.9651 C.3     
  21 C21           -2.0429     0.7888     1.4895 C.3     
  22 N22            4.5852     7.1161    -3.4673 N.ar    
  23 C23            5.3204     8.0769    -3.9971 C.ar    
  24 N24            6.6209     8.1306    -3.8530 N.ar    
  25 C25            7.2842     7.1903    -3.1438 C.ar    
  26 C26            6.5344     6.1617    -2.5644 C.ar    
  27 C27           -5.0775    -1.4340     1.2939 C.3     
  28 C28           -6.0965    -0.3585     1.7801 C.3     
  29 C29           -5.7539    -2.0866     0.0667 C.3     
  30 C30           -7.1178    -1.3440    -0.0730 C.3     
  31 C31           -6.0581     0.7427     0.6768 C.3     
  32 C32           -6.7344     0.0900    -0.5504 C.3     
  33 C33           -7.4534    -1.0677     1.4351 C.3     
  34 C34            8.6570     7.0699    -2.8762 C.2     
  35 C35            9.0114     6.0267    -2.1428 C.2     
  36 S36            7.6073     5.0694    -1.7015 S.3     
  37 C37            9.6638     8.0655    -3.3921 C.3     
  38 H38           -0.6640     2.3535     0.6737 H       
  39 H39            3.3974    -0.3939     0.1287 H       
  40 H40            1.4586     3.4159     0.0239 H       
  41 H41            1.0477    -2.3837    -0.0951 H       
  42 H42            2.2168    -2.2217     1.2373 H       
  43 H43            0.4714    -2.1027     1.5653 H       
  44 H44            4.6118     1.7905    -0.0596 H       
  45 H45            1.2063     5.6652    -2.9852 H       
  46 H46            2.5103     6.6249    -3.4338 H       
  47 H47           -1.7444    -0.5246    -0.8125 H       
  48 H48           -0.7665    -1.8569    -0.1505 H       
  49 H49           -3.1851    -2.4481    -0.2402 H       
  50 H50           -2.5778    -2.4174     1.4331 H       
  51 H51           -4.0781     0.8355     2.1961 H       
  52 H52           -3.1002    -0.4967     2.8582 H       
  53 H53           -1.6595     1.4268     2.2858 H       
  54 H54           -2.2668     1.3961     0.6125 H       
  55 H55            4.8299     8.8484    -4.5721 H       
  56 H56           -4.9059    -2.1752     2.0744 H       
  57 H57           -5.9692    -0.0106     2.8052 H       
  58 H58           -5.1466    -1.9371    -0.8261 H       
  59 H59           -5.9164    -3.1499     0.2431 H       
  60 H60           -7.8801    -1.8543    -0.6618 H       
  61 H61           -6.6183     1.6211     0.9971 H       
  62 H62           -5.0277     1.0119     0.4444 H       
  63 H63           -6.0366     0.0384    -1.3862 H       
  64 H64           -7.6272     0.6476    -0.8335 H       
  65 H65           -7.5876    -1.9903     1.9997 H       
  66 H66           -8.3054    -0.3972     1.5481 H       
  67 H67           10.0261     5.7968    -1.8533 H       
  68 H68            9.7895     8.8661    -2.6632 H       
  69 H69           10.6195     7.5662    -3.5517 H       
  70 H70            9.3108     8.4842    -4.3345 H       
@<TRIPOS>BOND
   1    1    2 ar
   2    1    6 ar
   3    1   38 1
   4    2    3 ar
   5    2   16 1
   6    3    4 ar
   7    3    7 1
   8    4    5 ar
   9    4   39 1
  10    5    6 ar
  11    5    8 1
  12    6   40 1
  13    7   41 1
  14    7   42 1
  15    7   43 1
  16    8    9 1
  17    8   44 1
  18    9   10 2
  19    9   11 1
  20   10   13 1
  21   11   12 2
  22   12   13 1
  23   12   15 1
  24   13   14 1
  25   14   22 ar
  26   14   26 ar
  27   15   45 1
  28   15   46 1
  29   16   17 1
  30   16   21 1
  31   17   18 1
  32   17   47 1
  33   17   48 1
  34   18   19 1
  35   18   49 1
  36   18   50 1
  37   19   20 1
  38   19   27 1
  39   20   21 1
  40   20   51 1
  41   20   52 1
  42   21   53 1
  43   21   54 1
  44   22   23 ar
  45   23   24 ar
  46   23   55 1
  47   24   25 ar
  48   25   26 ar
  49   25   34 1
  50   26   36 1
  51   27   28 1
  52   27   29 1
  53   27   56 1
  54   28   31 1
  55   28   33 1
  56   28   57 1
  57   29   30 1
  58   29   58 1
  59   29   59 1
  60   30   32 1
  61   30   33 1
  62   30   60 1
  63   31   32 1
  64   31   61 1
  65   31   62 1
  66   32   63 1
  67   32   64 1
  68   33   65 1
  69   33   66 1
  70   34   35 2
  71   34   37 1
  72   35   36 1
  73   35   67 1
  74   37   68 1
  75   37   69 1
  76   37   70 1

#	End of record

