#	Name: ASD10100024
#	Creating user name:	WinNT
#	Creation time:	15. 06. 2019 21:24

#	Modifying user name:	WinNT
#	Modification time:	15. 06. 2019 21:24

#	Program:	/corina/corina34_cracker 3.40 0067  02.08.2006

@<TRIPOS>MOLECULE
ASD10100024
  45   47    0    0    0
SMALL
NO_CHARGES


@<TRIPOS>ATOM
   1 Br1           -3.5862     4.2624    -2.7601 Br      
   2 C2            -2.4623     4.6040    -1.2782 C.ar    
   3 C3            -1.6555     5.7278    -1.2661 C.ar    
   4 C4            -0.8343     5.9770    -0.1830 C.ar    
   5 C5            -0.8185     5.1032     0.8884 C.ar    
   6 C6            -1.6243     3.9802     0.8768 C.ar    
   7 C7            -2.4507     3.7334    -0.2036 C.ar    
   8 C8            -3.3342     2.5126    -0.2131 C.3     
   9 N9            -3.2366     1.8290     1.0789 N.am    
  10 C10           -4.0676     2.1974     2.1125 C.2     
  11 N11           -4.9894     3.2040     1.9377 N.pl3   
  12 C12           -2.3388     0.8408     1.2468 C.2     
  13 O13           -1.6161     0.5253     0.3210 O.2     
  14 N14           -2.2277     0.1968     2.4226 N.am    
  15 C15           -3.0171     0.5274     3.4635 C.2     
  16 O16           -2.9099    -0.0615     4.5262 O.2     
  17 C17           -3.9684     1.5526     3.3155 C.2     
  18 N18           -4.8104     1.9115     4.3936 N.am    
  19 C19           -5.0189     3.3241     4.7214 C.3     
  20 S20           -5.5605     0.7351     5.2856 S.o2    
  21 O21           -6.8924     1.1817     5.4995 O.2     
  22 O22           -5.2465    -0.5026     4.6621 O.2     
  23 C23           -4.7853     0.7061     6.8676 C.ar    
  24 C24           -5.2696     1.5015     7.8893 C.ar    
  25 C25           -4.6614     1.4788     9.1304 C.ar    
  26 C26           -3.5692     0.6604     9.3501 C.ar    
  27 C27           -3.0855    -0.1357     8.3287 C.ar    
  28 C28           -3.6964    -0.1162     7.0888 C.ar    
  29 H29           -1.6673     6.4101    -2.1032 H       
  30 H30           -0.2045     6.8543    -0.1735 H       
  31 H31           -0.1760     5.2979     1.7344 H       
  32 H32           -1.6113     3.2977     1.7137 H       
  33 H33           -4.3673     2.8131    -0.3880 H       
  34 H34           -3.0129     1.8377    -1.0064 H       
  35 H35           -5.1706     3.5468     1.0485 H       
  36 H36           -5.4581     3.5709     2.7036 H       
  37 H37           -1.5735    -0.5125     2.5220 H       
  38 H38           -6.0644     3.5848     4.5567 H       
  39 H39           -4.7618     3.4964     5.7665 H       
  40 H40           -4.3857     3.9421     4.0848 H       
  41 H41           -6.1229     2.1409     7.7177 H       
  42 H42           -3.3207    -0.7409     6.2919 H       
  43 H43           -5.0393     2.1007     9.9284 H       
  44 H44           -3.0936     0.6432    10.3196 H       
  45 H45           -2.2320    -0.7748     8.5002 H       
@<TRIPOS>BOND
   1    1    2 1
   2    2    3 ar
   3    2    7 ar
   4    3    4 ar
   5    3   29 1
   6    4    5 ar
   7    4   30 1
   8    5    6 ar
   9    5   31 1
  10    6    7 ar
  11    6   32 1
  12    7    8 1
  13    8    9 1
  14    8   33 1
  15    8   34 1
  16    9   10 1
  17    9   12 am
  18   10   11 1
  19   10   17 2
  20   11   35 1
  21   11   36 1
  22   12   13 2
  23   12   14 am
  24   14   15 am
  25   14   37 1
  26   15   16 2
  27   15   17 1
  28   17   18 1
  29   18   19 1
  30   18   20 am
  31   19   38 1
  32   19   39 1
  33   19   40 1
  34   20   21 2
  35   20   22 2
  36   20   23 1
  37   23   24 ar
  38   23   28 ar
  39   24   25 ar
  40   24   41 1
  41   25   26 ar
  42   25   43 1
  43   26   27 ar
  44   26   44 1
  45   27   28 ar
  46   27   45 1
  47   28   42 1

#	End of record

