#	Name: ASD14910001
#	Creating user name:	WinNT
#	Creation time:	15. 06. 2019 21:31

#	Modifying user name:	WinNT
#	Modification time:	15. 06. 2019 21:31

#	Program:	/corina/corina34_cracker 3.40 0067  02.08.2006

@<TRIPOS>MOLECULE
ASD14910001
  30   31    0    0    0
SMALL
NO_CHARGES


@<TRIPOS>ATOM
   1 O1            -1.0513    -0.6048     0.0233 O.2     
   2 O2             3.4251    -0.4491    -0.9162 O.2     
   3 N3            -0.0161     1.3325     0.0094 N.am    
   4 N4             2.3452     1.4147    -0.4857 N.am    
   5 C5             1.2830    -0.7863    -0.0312 C.3     
   6 C6             1.1242    -1.9748    -0.9815 C.3     
   7 C7             1.5896    -1.2937     1.3543 C.ar    
   8 C8             2.4145     0.0798    -0.5043 C.2     
   9 C9             0.0021    -0.0041     0.0020 C.2     
  10 C10            1.1881     2.1483     0.0023 C.3     
  11 C11            0.8127    -1.4638    -2.3896 C.3     
  12 C12            1.7766    -0.3999     2.3921 C.ar    
  13 C13            1.6784    -2.6532     1.5885 C.ar    
  14 C14            2.0579    -0.8654     3.6629 C.ar    
  15 C15            1.9597    -3.1187     2.8593 C.ar    
  16 C16            2.1518    -2.2247     3.8960 C.ar    
  17 H17            2.0493    -2.5509    -1.0005 H       
  18 H18            0.3080    -2.6094    -0.6365 H       
  19 H19            1.0239     3.0159    -0.6369 H       
  20 H20            1.3889     2.4915     1.0171 H       
  21 H21           -0.8760     1.7812     0.0158 H       
  22 H22            3.1051     1.9196    -0.8150 H       
  23 H23            0.6997    -2.3105    -3.0667 H       
  24 H24           -0.1124    -0.8877    -2.3707 H       
  25 H25            1.6290    -0.8292    -2.7347 H       
  26 H26            1.7031     0.6621     2.2100 H       
  27 H27            1.5277    -3.3517     0.7786 H       
  28 H28            2.2046    -0.1671     4.4736 H       
  29 H29            2.0287    -4.1808     3.0423 H       
  30 H30            2.3720    -2.5884     4.8889 H       
@<TRIPOS>BOND
   1    1    9 2
   2    2    8 2
   3    3    9 am
   4    3   10 1
   5    3   21 1
   6    4    8 am
   7    4   10 1
   8    4   22 1
   9    5    6 1
  10    5    7 1
  11    5    8 1
  12    5    9 1
  13    6   11 1
  14    6   17 1
  15    6   18 1
  16    7   12 ar
  17    7   13 ar
  18   10   19 1
  19   10   20 1
  20   11   23 1
  21   11   24 1
  22   11   25 1
  23   12   14 ar
  24   12   26 1
  25   13   15 ar
  26   13   27 1
  27   14   16 ar
  28   14   28 1
  29   15   16 ar
  30   15   29 1
  31   16   30 1

#	End of record

