#	Name: ASD10950053
#	Creating user name:	WinNT
#	Creation time:	15. 06. 2019 21:28

#	Modifying user name:	WinNT
#	Modification time:	15. 06. 2019 21:28

#	Program:	/corina/corina34_cracker 3.40 0067  02.08.2006

@<TRIPOS>MOLECULE
ASD10950053
  62   66    0    0    0
SMALL
NO_CHARGES


@<TRIPOS>ATOM
   1 C1            -1.1389     2.8825     1.7731 C.3     
   2 C2            -1.1393     1.3951     1.4149 C.3     
   3 O3            -0.2635     0.6780     2.3244 O.3     
   4 C4            -0.1509    -0.6522     2.1436 C.2     
   5 O5            -0.7675    -1.1981     1.2507 O.2     
   6 C6             0.7225    -1.4469     3.0313 C.ar    
   7 C7             0.8414    -2.8258     2.8467 C.ar    
   8 C8             1.6587    -3.5619     3.6792 C.ar    
   9 C9             2.3596    -2.9368     4.6954 C.ar    
  10 C10            2.2463    -1.5708     4.8839 C.ar    
  11 C11            1.4371    -0.8217     4.0550 C.ar    
  12 C12            3.2501    -3.7477     5.6012 C.3     
  13 N13            4.5627    -3.1035     5.7268 N.am    
  14 C14            5.5006    -2.8377     4.6332 C.3     
  15 C15            5.2148    -1.4564     4.0406 C.3     
  16 C16            6.1795    -1.1831     2.9155 C.2     
  17 C17            7.3394    -0.5130     3.0033 C.2     
  18 N18            7.9447    -0.4658     1.7771 N.pl3   
  19 C19            7.1695    -1.1211     0.8469 C.ar    
  20 C20            6.0326    -1.6038     1.5201 C.ar    
  21 C21            5.0588    -2.3180     0.8192 C.ar    
  22 C22            5.2156    -2.5445    -0.5190 C.ar    
  23 C23            6.3360    -2.0705    -1.1880 C.ar    
  24 C24            7.3105    -1.3667    -0.5153 C.ar    
  25 C25            4.7527    -2.8000     7.0237 C.2     
  26 O26            5.7407    -2.2557     7.4750 O.2     
  27 C27            3.5809    -3.2260     7.8184 C.2     
  28 C28            2.6685    -3.7948     6.9949 C.2     
  29 C29            1.3682    -4.3486     7.3808 C.2     
  30 O30            0.4949    -3.6139     7.8013 O.2     
  31 C31            1.1171    -5.8036     7.2589 C.ar    
  32 C32           -0.1284    -6.3483     7.5889 C.ar    
  33 C33           -0.3189    -7.7101     7.4598 C.ar    
  34 N34            0.6527    -8.4922     7.0328 N.ar    
  35 C35            1.8409    -8.0202     6.7113 C.ar    
  36 C36            2.1170    -6.6702     6.8051 C.ar    
  37 O37            3.4426    -3.0729     9.1551 O.3     
  38 H38           -0.1261     3.2764     1.6883 H       
  39 H39           -1.7964     3.4208     1.0904 H       
  40 H40           -1.4939     3.0101     2.7957 H       
  41 H41           -2.1521     1.0012     1.4997 H       
  42 H42           -0.7843     1.2675     0.3923 H       
  43 H43            0.2946    -3.3150     2.0542 H       
  44 H44            1.7514    -4.6286     3.5378 H       
  45 H45            2.7959    -1.0892     5.6791 H       
  46 H46            1.3496     0.2445     4.2032 H       
  47 H47            3.3645    -4.7576     5.2076 H       
  48 H48            6.5212    -2.8652     5.0150 H       
  49 H49            5.3814    -3.5966     3.8599 H       
  50 H50            4.1942    -1.4289     3.6588 H       
  51 H51            5.3340    -0.6976     4.8139 H       
  52 H52            7.7357    -0.0753     3.9076 H       
  53 H53            8.7934    -0.0346     1.5909 H       
  54 H54            4.1849    -2.6903     1.3331 H       
  55 H55            4.4621    -3.0969    -1.0607 H       
  56 H56            6.4460    -2.2579    -2.2459 H       
  57 H57            8.1784    -1.0021    -1.0446 H       
  58 H58           -0.9288    -5.7137     7.9397 H       
  59 H59           -1.2768    -8.1403     7.7124 H       
  60 H60            2.6075    -8.6979     6.3659 H       
  61 H61            3.0925    -6.2905     6.5397 H       
  62 H62            4.1971    -2.6446     9.5820 H       
@<TRIPOS>BOND
   1    1    2 1
   2    1   38 1
   3    1   39 1
   4    1   40 1
   5    2    3 1
   6    2   41 1
   7    2   42 1
   8    3    4 1
   9    4    5 2
  10    4    6 1
  11    6    7 ar
  12    6   11 ar
  13    7    8 ar
  14    7   43 1
  15    8    9 ar
  16    8   44 1
  17    9   10 ar
  18    9   12 1
  19   10   11 ar
  20   10   45 1
  21   11   46 1
  22   12   13 1
  23   12   28 1
  24   12   47 1
  25   13   14 1
  26   13   25 am
  27   14   15 1
  28   14   48 1
  29   14   49 1
  30   15   16 1
  31   15   50 1
  32   15   51 1
  33   16   17 2
  34   16   20 1
  35   17   18 1
  36   17   52 1
  37   18   19 1
  38   18   53 1
  39   19   20 ar
  40   19   24 ar
  41   20   21 ar
  42   21   22 ar
  43   21   54 1
  44   22   23 ar
  45   22   55 1
  46   23   24 ar
  47   23   56 1
  48   24   57 1
  49   25   26 2
  50   25   27 1
  51   27   28 2
  52   27   37 1
  53   28   29 1
  54   29   30 2
  55   29   31 1
  56   31   32 ar
  57   31   36 ar
  58   32   33 ar
  59   32   58 1
  60   33   34 ar
  61   33   59 1
  62   34   35 ar
  63   35   36 ar
  64   35   60 1
  65   36   61 1
  66   37   62 1

#	End of record

