#	Name: ASD11710027
#	Creating user name:	WinNT
#	Creation time:	15. 06. 2019 21:29

#	Modifying user name:	WinNT
#	Modification time:	15. 06. 2019 21:29

#	Program:	/corina/corina34_cracker 3.40 0067  02.08.2006

@<TRIPOS>MOLECULE
ASD11710027
  51   53    0    0    0
SMALL
NO_CHARGES


@<TRIPOS>ATOM
   1 C1            -0.3886     0.0809     0.4666 C.3     
   2 N2            -0.5279    -1.3774     0.4490 N.am    
   3 C3             0.1608    -2.1308     1.3291 C.2     
   4 C4            -0.0850    -3.5865     1.4074 C.ar    
   5 O5             0.9841    -1.6133     2.0585 O.2     
   6 C6            -0.0120    -4.2446     2.6361 C.ar    
   7 C7            -0.3969    -4.3077     0.2538 C.ar    
   8 C8            -0.6257    -5.6659     0.3339 C.ar    
   9 C9            -0.5470    -6.3130     1.5543 C.ar    
  10 C10           -0.2430    -5.6031     2.7023 C.ar    
  11 S11           -0.8417    -8.0476     1.6479 S.o2    
  12 N12            0.6318    -8.7999     1.5753 N.am    
  13 C13            1.4310    -8.6620     0.4381 C.ar    
  14 C14            2.7836    -8.3739     0.5687 C.ar    
  15 C15            0.8762    -8.8183    -0.8258 C.ar    
  16 C16            1.6693    -8.6813    -1.9480 C.ar    
  17 C17            3.0144    -8.3893    -1.8146 C.ar    
  18 C18            3.5710    -8.2383    -0.5578 C.ar    
  19 O19           -1.3562    -8.2976     2.9487 O.2     
  20 O20           -1.5323    -8.4021     0.4576 O.2     
  21 C21            0.7365     0.4891    -0.4491 C.ar    
  22 C22            0.4804     0.7610    -1.7801 C.ar    
  23 C23            1.5125     1.1354    -2.6200 C.ar    
  24 C24            2.8006     1.2383    -2.1290 C.ar    
  25 C25            3.0565     0.9672    -0.7979 C.ar    
  26 C26            2.0237     0.5970     0.0431 C.ar    
  27 C27           -1.4158    -2.0167    -0.5251 C.3     
  28 C28           -0.6872    -2.1588    -1.8630 C.3     
  29 C29           -1.5219    -2.9324    -2.7966 C.1     
  30 N30           -2.1661    -3.5294    -3.5171 N.1     
  31 H31           -1.3177     0.5387     0.1271 H       
  32 H32           -0.1697     0.4128     1.4815 H       
  33 H33            0.2252    -3.6916     3.5330 H       
  34 H34           -0.4594    -3.8036    -0.6993 H       
  35 H35           -0.8671    -6.2251    -0.5579 H       
  36 H36           -0.1830    -6.1142     3.6519 H       
  37 H37            0.9398    -9.3362     2.3225 H       
  38 H38            3.2190    -8.2559     1.5500 H       
  39 H39           -0.1741    -9.0470    -0.9306 H       
  40 H40            1.2386    -8.8026    -2.9310 H       
  41 H41            3.6325    -8.2834    -2.6939 H       
  42 H42            4.6218    -8.0102    -0.4571 H       
  43 H43           -0.5259     0.6806    -2.1637 H       
  44 H44            1.3125     1.3471    -3.6600 H       
  45 H45            3.6070     1.5301    -2.7854 H       
  46 H46            4.0629     1.0473    -0.4143 H       
  47 H47            2.2237     0.3853     1.0831 H       
  48 H48           -1.7037    -3.0032    -0.1617 H       
  49 H49           -2.3077    -1.4048    -0.6603 H       
  50 H50           -0.4969    -1.1698    -2.2798 H       
  51 H51            0.2596    -2.6761    -1.7080 H       
@<TRIPOS>BOND
   1    1    2 1
   2    1   21 1
   3    1   31 1
   4    1   32 1
   5    2    3 am
   6    2   27 1
   7    3    4 1
   8    3    5 2
   9    4    6 ar
  10    4    7 ar
  11    6   10 ar
  12    6   33 1
  13    7    8 ar
  14    7   34 1
  15    8    9 ar
  16    8   35 1
  17    9   10 ar
  18    9   11 1
  19   10   36 1
  20   11   12 am
  21   11   19 2
  22   11   20 2
  23   12   13 1
  24   12   37 1
  25   13   14 ar
  26   13   15 ar
  27   14   18 ar
  28   14   38 1
  29   15   16 ar
  30   15   39 1
  31   16   17 ar
  32   16   40 1
  33   17   18 ar
  34   17   41 1
  35   18   42 1
  36   21   22 ar
  37   21   26 ar
  38   22   23 ar
  39   22   43 1
  40   23   24 ar
  41   23   44 1
  42   24   25 ar
  43   24   45 1
  44   25   26 ar
  45   25   46 1
  46   26   47 1
  47   27   28 1
  48   27   48 1
  49   27   49 1
  50   28   29 1
  51   28   50 1
  52   28   51 1
  53   29   30 3

#	End of record

