#	Name: ASD13010005
#	Creating user name:	WinNT
#	Creation time:	15. 06. 2019 21:30

#	Modifying user name:	WinNT
#	Modification time:	15. 06. 2019 21:30

#	Program:	/corina/corina34_cracker 3.40 0067  02.08.2006

@<TRIPOS>MOLECULE
ASD13010005
  43   46    0    0    0
SMALL
NO_CHARGES


@<TRIPOS>ATOM
   1 C1            -0.0163     1.3743     0.0526 C.ar    
   2 C2             0.0022    -0.0024     0.0652 C.ar    
   3 C3             1.2064    -0.6942     0.0528 C.ar    
   4 C4             2.3946    -0.0213     0.0274 C.ar    
   5 C5             1.1827     2.0805     0.0267 C.ar    
   6 N6             1.4974     3.4182     0.0091 N.pl3   
   7 C7             2.4010     1.3755     0.0137 C.ar    
   8 C8             3.4607     2.3868    -0.0129 C.2     
   9 N9             2.8884     3.5621    -0.0146 N.2     
  10 C10            0.5771     4.4647     0.0133 C.ar    
  11 N11            4.8342     2.1398    -0.0320 N.pl3   
  12 C12            5.3100     0.8281     0.0576 C.ar    
  13 C13            5.5751     0.2666     1.3011 C.ar    
  14 C14            5.5135     0.0805    -1.0962 C.ar    
  15 C15            5.9840    -1.2159    -1.0036 C.ar    
  16 C16            6.2521    -1.7692     0.2350 C.ar    
  17 C17            6.0454    -1.0304     1.3856 C.ar    
  18 Cl18           5.3166     1.1932     2.7461 Cl      
  19 C19           -1.2531     6.5457     0.0218 C.ar    
  20 C20           -1.5477     5.3562    -0.6518 C.ar    
  21 C21           -0.6366     4.3248    -0.6540 C.ar    
  22 C22            0.8711     5.6453     0.6896 C.ar    
  23 C23           -0.0354     6.6807     0.6959 C.ar    
  24 C24           -2.2268     7.6529     0.0263 C.2     
  25 O25           -3.2866     7.5323    -0.5558 O.2     
  26 O26           -1.9414     8.7985     0.6759 O.3     
  27 Cl27           5.1768     0.7738    -2.6517 Cl      
  28 C28            5.7774     3.2550    -0.1458 C.3     
  29 H29           -0.9575     1.9039     0.0583 H       
  30 H30           -0.9287    -0.5496     0.0853 H       
  31 H31            1.2032    -1.7742     0.0637 H       
  32 H32            3.3263    -0.5674     0.0183 H       
  33 H33            6.1421    -1.7975    -1.8998 H       
  34 H34            6.6193    -2.7825     0.3042 H       
  35 H35            6.2517    -1.4674     2.3514 H       
  36 H36           -2.4872     5.2487    -1.1734 H       
  37 H37           -0.8633     3.4060    -1.1743 H       
  38 H38            1.8116     5.7488     1.2103 H       
  39 H39            0.1952     7.5981     1.2171 H       
  40 H40           -2.6108     9.4959     0.6507 H       
  41 H41            5.9679     3.6721     0.8430 H       
  42 H42            6.7130     2.8971    -0.5756 H       
  43 H43            5.3532     4.0254    -0.7896 H       
@<TRIPOS>BOND
   1    1    2 ar
   2    1    5 ar
   3    1   29 1
   4    2    3 ar
   5    2   30 1
   6    3    4 ar
   7    3   31 1
   8    4    7 ar
   9    4   32 1
  10    5    7 ar
  11    5    6 1
  12    6    9 1
  13    6   10 1
  14    7    8 1
  15    8    9 2
  16    8   11 1
  17   10   22 ar
  18   10   21 ar
  19   11   12 1
  20   11   28 1
  21   12   14 ar
  22   12   13 ar
  23   13   17 ar
  24   13   18 1
  25   14   15 ar
  26   14   27 1
  27   15   16 ar
  28   15   33 1
  29   16   17 ar
  30   16   34 1
  31   17   35 1
  32   19   20 ar
  33   19   23 ar
  34   19   24 1
  35   20   21 ar
  36   20   36 1
  37   21   37 1
  38   22   23 ar
  39   22   38 1
  40   23   39 1
  41   24   25 2
  42   24   26 1
  43   26   40 1
  44   28   41 1
  45   28   42 1
  46   28   43 1

#	End of record

