#	Name: ASD10410041
#	Creating user name:	WinNT
#	Creation time:	15. 06. 2019 21:26

#	Modifying user name:	WinNT
#	Modification time:	15. 06. 2019 21:26

#	Program:	/corina/corina34_cracker 3.40 0067  02.08.2006

@<TRIPOS>MOLECULE
ASD10410041
  61   64    0    0    0
SMALL
NO_CHARGES


@<TRIPOS>ATOM
   1 C1            -0.1755     1.3177    -0.5826 C.ar    
   2 N2            -0.1492    -0.0057    -0.5689 N.ar    
   3 C3             0.8515    -0.6696    -1.1424 C.ar    
   4 C4             1.8764     0.0519    -1.7606 C.ar    
   5 C5             1.8082     1.4336    -1.7510 C.ar    
   6 N6             0.7825     2.0272    -1.1613 N.ar    
   7 N7            -1.2348     1.9780     0.0186 N.pl3   
   8 C8             0.8790    -2.1523    -1.1252 C.ar    
   9 C9             0.3911    -2.8484    -0.0204 C.ar    
  10 C10            0.4187    -4.2280    -0.0101 C.ar    
  11 C11            0.9293    -4.9203    -1.0937 C.ar    
  12 C12            1.4152    -4.2349    -2.1924 C.ar    
  13 C13            1.3873    -2.8551    -2.2161 C.ar    
  14 S14           -0.1969    -5.1095     1.3857 S.o2    
  15 O15            0.5087    -6.3426     1.3606 O.2     
  16 O16           -0.0463    -4.2012     2.4681 O.2     
  17 C17           -1.9531    -5.3733     1.0159 C.3     
  18 C18           -1.2231     3.3724     0.1187 C.ar    
  19 C19           -2.4099     4.0874     0.0190 C.ar    
  20 C20           -2.3948     5.4648     0.1183 C.ar    
  21 C21           -1.2001     6.1322     0.3166 C.ar    
  22 C22           -0.0168     5.4235     0.4162 C.ar    
  23 C23           -0.0256     4.0456     0.3236 C.ar    
  24 C24           -1.1874     7.6354     0.4239 C.3     
  25 N25           -1.3570     8.0274     1.8295 N.3     
  26 C26           -1.1143     9.4657     2.0080 C.3     
  27 C27           -1.3779     9.8476     3.4665 C.3     
  28 N28           -0.5036     9.0561     4.3431 N.3     
  29 C29           -0.7463     7.6178     4.1646 C.3     
  30 C30           -0.4826     7.2358     2.7061 C.3     
  31 C31           -0.6731     9.4481     5.7487 C.3     
  32 C32            3.0292    -0.6586    -2.4219 C.3     
  33 H33            2.5836     2.0217    -2.2193 H       
  34 H34           -1.9845     1.4727     0.3701 H       
  35 H35           -0.0074    -2.3090     0.8261 H       
  36 H36            0.9490    -6.0000    -1.0814 H       
  37 H37            1.8133    -4.7805    -3.0352 H       
  38 H38            1.7628    -2.3211    -3.0764 H       
  39 H39           -2.0480    -5.9503     0.0960 H       
  40 H40           -2.4193    -5.9186     1.8365 H       
  41 H41           -2.4473    -4.4096     0.8929 H       
  42 H42           -3.3432     3.5667    -0.1362 H       
  43 H43           -3.3171     6.0213     0.0405 H       
  44 H44            0.9146     5.9478     0.5711 H       
  45 H45            0.8983     3.4923     0.4060 H       
  46 H46           -0.2370     8.0182     0.0521 H       
  47 H47           -2.0029     8.0488    -0.1695 H       
  48 H48           -0.0793     9.6942     1.7537 H       
  49 H49           -1.7822    10.0307     1.3577 H       
  50 H50           -1.1706    10.9084     3.6078 H       
  51 H51           -2.4201     9.6445     3.7129 H       
  52 H52           -0.0784     7.0528     4.8149 H       
  53 H53           -1.7812     7.3893     4.4190 H       
  54 H54           -0.6900     6.1751     2.5648 H       
  55 H55            0.5595     7.4390     2.4597 H       
  56 H56           -1.7084     9.2858     6.0488 H       
  57 H57           -0.0146     8.8469     6.3756 H       
  58 H58           -0.4223    10.5025     5.8646 H       
  59 H59            2.7867    -0.8498    -3.4672 H       
  60 H60            3.9215    -0.0353    -2.3640 H       
  61 H61            3.2132    -1.6046    -1.9127 H       
@<TRIPOS>BOND
   1    1    2 ar
   2    1    6 ar
   3    1    7 1
   4    2    3 ar
   5    3    4 ar
   6    3    8 1
   7    4    5 ar
   8    4   32 1
   9    5    6 ar
  10    5   33 1
  11    7   18 1
  12    7   34 1
  13    8    9 ar
  14    8   13 ar
  15    9   10 ar
  16    9   35 1
  17   10   11 ar
  18   10   14 1
  19   11   12 ar
  20   11   36 1
  21   12   13 ar
  22   12   37 1
  23   13   38 1
  24   14   15 2
  25   14   16 2
  26   14   17 1
  27   17   39 1
  28   17   40 1
  29   17   41 1
  30   18   19 ar
  31   18   23 ar
  32   19   20 ar
  33   19   42 1
  34   20   21 ar
  35   20   43 1
  36   21   22 ar
  37   21   24 1
  38   22   23 ar
  39   22   44 1
  40   23   45 1
  41   24   25 1
  42   24   46 1
  43   24   47 1
  44   25   26 1
  45   25   30 1
  46   26   27 1
  47   26   48 1
  48   26   49 1
  49   27   28 1
  50   27   50 1
  51   27   51 1
  52   28   29 1
  53   28   31 1
  54   29   30 1
  55   29   52 1
  56   29   53 1
  57   30   54 1
  58   30   55 1
  59   31   56 1
  60   31   57 1
  61   31   58 1
  62   32   59 1
  63   32   60 1
  64   32   61 1

#	End of record

