#	Name: ASD10160397
#	Creating user name:	WinNT
#	Creation time:	15. 06. 2019 21:25

#	Modifying user name:	WinNT
#	Modification time:	15. 06. 2019 21:25

#	Program:	/corina/corina34_cracker 3.40 0067  02.08.2006

@<TRIPOS>MOLECULE
ASD10160397
  21   21    0    0    0
SMALL
NO_CHARGES


@<TRIPOS>ATOM
   1 C1            -0.0168     1.3861     0.0097 C.ar    
   2 C2             0.0021    -0.0041     0.0020 C.ar    
   3 C3             1.2210    -0.6607    -0.0131 C.ar    
   4 C4             2.3825     0.0998    -0.0201 C.ar    
   5 C5             2.2883     1.4769    -0.0118 C.ar    
   6 N6             1.1118     2.0749     0.0026 N.ar    
   7 O7            -1.2046     2.0422     0.0188 O.3     
   8 C8            -1.1569     3.4703     0.0264 C.3     
   9 C9            -1.1466     3.9879    -1.4134 C.3     
  10 C10           -2.3849     4.0178     0.7564 C.3     
  11 F11           -2.3350     3.6387     2.1021 F       
  12 F12            0.0328     3.5815    -2.0467 F       
  13 Cl13          -1.4823    -0.9043     0.0119 Cl      
  14 H14            1.2672    -1.7397    -0.0190 H       
  15 H15            3.3495    -0.3810    -0.0316 H       
  16 H16            3.1890     2.0728    -0.0172 H       
  17 H17           -0.2528     3.8010     0.5377 H       
  18 H18           -2.0050     3.5845    -1.9506 H       
  19 H19           -1.1998     5.0766    -1.4085 H       
  20 H20           -2.3949     5.1055     0.6854 H       
  21 H21           -3.2888     3.6156     0.2989 H       
@<TRIPOS>BOND
   1    1    2 ar
   2    1    6 ar
   3    1    7 1
   4    2    3 ar
   5    2   13 1
   6    3    4 ar
   7    3   14 1
   8    4    5 ar
   9    4   15 1
  10    5    6 ar
  11    5   16 1
  12    7    8 1
  13    8    9 1
  14    8   10 1
  15    8   17 1
  16    9   12 1
  17    9   18 1
  18    9   19 1
  19   10   11 1
  20   10   20 1
  21   10   21 1

#	End of record

