#	Name: ASD11000232
#	Creating user name:	WinNT
#	Creation time:	15. 06. 2019 21:29

#	Modifying user name:	WinNT
#	Modification time:	15. 06. 2019 21:29

#	Program:	/corina/corina34_cracker 3.40 0067  02.08.2006

@<TRIPOS>MOLECULE
ASD11000232
  51   54    0    0    0
SMALL
NO_CHARGES


@<TRIPOS>ATOM
   1 N1            -0.0172     1.3215    -0.0112 N.ar    
   2 C2             0.0016    -0.0034    -0.0060 C.ar    
   3 N3             1.1403    -0.6810    -0.0155 N.ar    
   4 C4             2.3025    -0.0498    -0.0306 C.ar    
   5 C5             2.3192     1.3363    -0.0364 C.ar    
   6 C6             1.1098     2.0136    -0.0262 C.ar    
   7 N7            -1.1973    -0.6965     0.0102 N.pl3   
   8 C8            -1.2008    -2.0923    -0.1029 C.ar    
   9 C9            -2.1491    -2.8421     0.5799 C.ar    
  10 C10           -0.2594    -2.7269    -0.9028 C.ar    
  11 C11           -0.2638    -4.1031    -1.0143 C.ar    
  12 C12           -1.2086    -4.8520    -0.3278 C.ar    
  13 C13           -2.1521    -4.2187     0.4674 C.ar    
  14 C14            3.6238     2.0904    -0.0531 C.3     
  15 C15            4.0504     2.3397    -1.5011 C.3     
  16 C16            5.3550     3.0939    -1.5177 C.ar    
  17 C17            6.5445     2.3982    -1.5272 C.ar    
  18 C18            7.7500     3.0924    -1.5431 C.ar    
  19 C19            7.7367     4.4999    -1.5492 C.ar    
  20 C20            6.5171     5.1849    -1.5398 C.ar    
  21 C21            5.3458     4.4822    -1.5291 C.ar    
  22 N22            8.9547     2.4223    -1.5524 N.am    
  23 C23           10.1195     3.0937    -1.5668 C.2     
  24 C24           10.1612     4.5045    -1.5735 C.2     
  25 C25            9.0104     5.2216    -1.5659 C.2     
  26 O26           11.1657     2.4684    -1.5739 O.2     
  27 C27            0.7577    -4.7919    -1.8821 C.3     
  28 O28           -1.2126    -6.2073    -0.4384 O.3     
  29 C29           -2.2134    -6.9153     0.2959 C.3     
  30 H30            3.2273    -0.6075    -0.0379 H       
  31 H31            1.0881     3.0934    -0.0307 H       
  32 H32           -2.0347    -0.2151     0.1000 H       
  33 H33           -2.8838    -2.3492     1.1992 H       
  34 H34            0.4757    -2.1440    -1.4378 H       
  35 H35           -2.8873    -4.8024     1.0015 H       
  36 H36            3.4983     3.0449     0.4582 H       
  37 H37            4.3891     1.5038     0.4553 H       
  38 H38            4.1759     1.3853    -2.0124 H       
  39 H39            3.2851     2.9263    -2.0094 H       
  40 H40            6.5410     1.3182    -1.5221 H       
  41 H41            6.5016     6.2648    -1.5444 H       
  42 H42            4.4043     5.0112    -1.5222 H       
  43 H43            8.9622     1.4523    -1.5481 H       
  44 H44           11.1130     5.0146    -1.5852 H       
  45 H45            9.0329     6.3014    -1.5713 H       
  46 H46            1.6413    -5.0250    -1.2880 H       
  47 H47            0.3338    -5.7138    -2.2802 H       
  48 H48            1.0367    -4.1349    -2.7060 H       
  49 H49           -2.0978    -6.7086     1.3598 H       
  50 H50           -3.2014    -6.5918    -0.0318 H       
  51 H51           -2.1045    -7.9854     0.1197 H       
@<TRIPOS>BOND
   1    1    2 ar
   2    1    6 ar
   3    2    3 ar
   4    2    7 1
   5    3    4 ar
   6    4    5 ar
   7    4   30 1
   8    5    6 ar
   9    5   14 1
  10    6   31 1
  11    7    8 1
  12    7   32 1
  13    8    9 ar
  14    8   10 ar
  15    9   13 ar
  16    9   33 1
  17   10   11 ar
  18   10   34 1
  19   11   12 ar
  20   11   27 1
  21   12   13 ar
  22   12   28 1
  23   13   35 1
  24   14   15 1
  25   14   36 1
  26   14   37 1
  27   15   16 1
  28   15   38 1
  29   15   39 1
  30   16   17 ar
  31   16   21 ar
  32   17   18 ar
  33   17   40 1
  34   18   19 ar
  35   18   22 1
  36   19   20 ar
  37   19   25 1
  38   20   21 ar
  39   20   41 1
  40   21   42 1
  41   22   23 am
  42   22   43 1
  43   23   24 1
  44   23   26 2
  45   24   25 2
  46   24   44 1
  47   25   45 1
  48   27   46 1
  49   27   47 1
  50   27   48 1
  51   28   29 1
  52   29   49 1
  53   29   50 1
  54   29   51 1

#	End of record

