#	Name: ASD10160277
#	Creating user name:	WinNT
#	Creation time:	15. 06. 2019 21:25

#	Modifying user name:	WinNT
#	Modification time:	15. 06. 2019 21:25

#	Program:	/corina/corina34_cracker 3.40 0067  02.08.2006

@<TRIPOS>MOLECULE
ASD10160277
  50   52    0    0    0
SMALL
NO_CHARGES


@<TRIPOS>ATOM
   1 C1             0.3735     1.0924     1.9738 C.2     
   2 C2             0.2905    -0.2814     1.4489 C.ar    
   3 C3             1.3779    -0.8387     0.7595 C.ar    
   4 C4             1.2913    -2.1316     0.2691 C.ar    
   5 C5             0.1312    -2.8707     0.4608 C.ar    
   6 C6            -0.9473    -2.3179     1.1441 C.ar    
   7 C7            -0.8703    -1.0371     1.6409 C.ar    
   8 O8             1.3861     1.7459     1.8098 O.2     
   9 N9            -0.6746     1.6273     2.6309 N.am    
  10 O10            0.0491    -4.1372    -0.0208 O.3     
  11 C11           -3.4825    -6.0683     0.3129 C.ar    
  12 N12           -3.2522    -5.3255    -0.7591 N.ar    
  13 C13           -2.1070    -4.6789    -0.9017 C.ar    
  14 C14           -1.1402    -4.7872     0.0917 C.ar    
  15 C15           -1.4176    -5.5761     1.2027 C.ar    
  16 N16           -2.5847    -6.1942     1.2783 N.ar    
  17 N17           -4.6969    -6.7266     0.4300 N.3     
  18 C18           -4.7611    -7.4939     1.6805 C.3     
  19 C19           -6.1623    -8.0865     1.8455 C.3     
  20 C20           -6.4713    -8.9941     0.6516 C.3     
  21 C21           -6.3502    -8.1825    -0.6412 C.3     
  22 C22           -4.9435    -7.5871    -0.7341 C.3     
  23 S23           -0.5813     3.1717     3.2210 S.o2    
  24 O24           -1.8335     3.3790     3.8600 O.2     
  25 O25            0.6312     3.1913     3.9616 O.2     
  26 C26           -0.4410     4.2134     1.7425 C.3     
  27 O27            2.5102    -0.1139     0.5732 O.3     
  28 C28            3.5180    -0.2144     1.5813 C.3     
  29 F29            2.3352    -2.6731    -0.3960 F       
  30 H30           -1.8466    -2.8981     1.2894 H       
  31 H31           -1.7082    -0.6137     2.1750 H       
  32 H32           -1.4837     1.1075     2.7582 H       
  33 H33           -1.9252    -4.0750    -1.7785 H       
  34 H34           -0.6898    -5.6825     1.9935 H       
  35 H35           -4.0273    -8.2994     1.6504 H       
  36 H36           -4.5436    -6.8359     2.5219 H       
  37 H37           -6.2051    -8.6688     2.7660 H       
  38 H38           -6.8953    -7.2809     1.8895 H       
  39 H39           -5.7621    -9.8215     0.6300 H       
  40 H40           -7.4849    -9.3842     0.7433 H       
  41 H41           -6.5272    -8.8334    -1.4974 H       
  42 H42           -7.0861    -7.3784    -0.6363 H       
  43 H43           -4.8585    -6.9968    -1.6465 H       
  44 H44           -4.2089    -8.3921    -0.7529 H       
  45 H45           -1.3192     4.0708     1.1129 H       
  46 H46           -0.3735     5.2598     2.0404 H       
  47 H47            0.4541     3.9357     1.1860 H       
  48 H48            4.3672     0.4128     1.3099 H       
  49 H49            3.1111     0.1182     2.5362 H       
  50 H50            3.8444    -1.2509     1.6667 H       
@<TRIPOS>BOND
   1    1    2 1
   2    1    8 2
   3    1    9 am
   4    2    3 ar
   5    2    7 ar
   6    3    4 ar
   7    3   27 1
   8    4    5 ar
   9    4   29 1
  10    5    6 ar
  11    5   10 1
  12    6    7 ar
  13    6   30 1
  14    7   31 1
  15    9   23 am
  16    9   32 1
  17   10   14 1
  18   11   12 ar
  19   11   16 ar
  20   11   17 1
  21   12   13 ar
  22   13   14 ar
  23   13   33 1
  24   14   15 ar
  25   15   16 ar
  26   15   34 1
  27   17   18 1
  28   17   22 1
  29   18   19 1
  30   18   35 1
  31   18   36 1
  32   19   20 1
  33   19   37 1
  34   19   38 1
  35   20   21 1
  36   20   39 1
  37   20   40 1
  38   21   22 1
  39   21   41 1
  40   21   42 1
  41   22   43 1
  42   22   44 1
  43   23   24 2
  44   23   25 2
  45   23   26 1
  46   26   45 1
  47   26   46 1
  48   26   47 1
  49   27   28 1
  50   28   48 1
  51   28   49 1
  52   28   50 1

#	End of record

