#	Name: ASD11320010
#	Creating user name:	WinNT
#	Creation time:	15. 06. 2019 21:29

#	Modifying user name:	WinNT
#	Modification time:	15. 06. 2019 21:29

#	Program:	/corina/corina34_cracker 3.40 0067  02.08.2006

@<TRIPOS>MOLECULE
ASD11320010
  61   65    0    0    0
SMALL
NO_CHARGES


@<TRIPOS>ATOM
   1 Cl1           -1.2319     2.0571    -9.8764 Cl      
   2 S2            -0.0172     1.4168     0.0098 S.o2    
   3 O3             0.0021    -0.0041     0.0020 O.2     
   4 O4             1.1617     2.2101     0.0028 O.2     
   5 O5            -3.7273     6.2123     7.6666 O.2     
   6 O6            -6.6072     3.2632     9.3065 O.2     
   7 N7            -0.9002     1.8797    -1.3124 N.am    
   8 N8            -1.5865     2.2401    -3.9890 N.3     
   9 N9            -3.0206     4.2413     5.5268 N.pl3   
  10 N10           -5.1839     4.7575     8.5197 N.am    
  11 N11           -4.0223     2.2986     5.5053 N.2     
  12 N12           -5.4681     2.6539     7.5128 N.am    
  13 C13           -0.7171     3.2090    -1.9147 C.3     
  14 C14           -1.8841     0.9703    -1.9192 C.3     
  15 C15           -0.4894     3.0341    -3.4200 C.3     
  16 C16           -1.6078     0.8885    -3.4243 C.3     
  17 C17           -1.5024     2.1966    -5.3832 C.ar    
  18 C18           -0.9297     1.8941     1.4396 C.ar    
  19 C19           -1.8431     1.0177     1.9980 C.ar    
  20 C20           -0.7254     3.1416     2.0022 C.ar    
  21 C21           -2.4500     1.4933    -6.1158 C.ar    
  22 C22           -0.4743     2.8613    -6.0393 C.ar    
  23 C23           -2.3631     2.6440     3.6872 C.ar    
  24 C24           -2.5604     1.3850     3.1177 C.ar    
  25 C25           -1.4362     3.5214     3.1219 C.ar    
  26 C26           -3.1282     3.0443     4.8870 C.2     
  27 C27           -3.9027     4.2069     6.5892 C.2     
  28 C28           -2.3647     1.4523    -7.4936 C.ar    
  29 C29           -0.3939     2.8169    -7.4174 C.ar    
  30 C30           -4.5219     2.9618     6.5474 C.2     
  31 C31           -4.2552     5.1160     7.6091 C.2     
  32 C32           -1.3364     2.1111    -8.1444 C.ar    
  33 C33           -5.5543     5.6974     9.5807 C.3     
  34 C34           -5.7748     3.5514     8.4682 C.2     
  35 C35           -6.7198     6.5679     9.1067 C.3     
  36 C36           -7.1067     7.5495    10.2148 C.3     
  37 H37           -1.7894    -0.0206    -1.4752 H       
  38 H38           -2.8901     1.3550    -1.7520 H       
  39 H39           -1.6088     3.8130    -1.7470 H       
  40 H40            0.1487     3.6974    -1.4677 H       
  41 H41           -2.3955     0.3067    -3.9030 H       
  42 H42           -0.6447     0.4076    -3.5954 H       
  43 H43            0.4573     2.5217    -3.5911 H       
  44 H44           -0.4643     4.0141    -3.8966 H       
  45 H45           -1.9951     0.0440     1.5562 H       
  46 H46           -0.0077     3.8193     1.5640 H       
  47 H47           -3.2526     0.9787    -5.6084 H       
  48 H48            0.2613     3.4126    -5.4725 H       
  49 H49           -3.2734     0.7001     3.5525 H       
  50 H50           -1.2756     4.4952     3.5603 H       
  51 H51           -3.1011     0.9053    -8.0637 H       
  52 H52            0.4050     3.3339    -7.9281 H       
  53 H53           -2.4342     4.9753     5.2854 H       
  54 H54           -5.8535     5.1422    10.4697 H       
  55 H55           -4.7004     6.3316     9.8186 H       
  56 H56           -5.9103     1.7906     7.4996 H       
  57 H57           -6.4207     7.1230     8.2177 H       
  58 H58           -7.5738     5.9336     8.8688 H       
  59 H59           -7.9370     8.1697     9.8771 H       
  60 H60           -7.4059     6.9944    11.1038 H       
  61 H61           -6.2528     8.1838    10.4527 H       
@<TRIPOS>BOND
   1    1   32 1
   2    2    3 2
   3    2    4 2
   4    2    7 am
   5    2   18 1
   6    5   31 2
   7    6   34 2
   8    7   13 1
   9    7   14 1
  10    8   15 1
  11    8   16 1
  12    8   17 1
  13    9   26 1
  14    9   27 1
  15    9   53 1
  16   10   31 am
  17   10   33 1
  18   10   34 am
  19   11   26 2
  20   11   30 1
  21   12   30 1
  22   12   34 am
  23   12   56 1
  24   13   15 1
  25   13   39 1
  26   13   40 1
  27   14   16 1
  28   14   37 1
  29   14   38 1
  30   15   43 1
  31   15   44 1
  32   16   41 1
  33   16   42 1
  34   17   21 ar
  35   17   22 ar
  36   18   19 ar
  37   18   20 ar
  38   19   24 ar
  39   19   45 1
  40   20   25 ar
  41   20   46 1
  42   21   28 ar
  43   21   47 1
  44   22   29 ar
  45   22   48 1
  46   23   24 ar
  47   23   25 ar
  48   23   26 1
  49   24   49 1
  50   25   50 1
  51   27   30 2
  52   27   31 1
  53   28   32 ar
  54   28   51 1
  55   29   32 ar
  56   29   52 1
  57   33   35 1
  58   33   54 1
  59   33   55 1
  60   35   36 1
  61   35   57 1
  62   35   58 1
  63   36   59 1
  64   36   60 1
  65   36   61 1

#	End of record

