#	Name: ASD10100010
#	Creating user name:	WinNT
#	Creation time:	15. 06. 2019 21:24

#	Modifying user name:	WinNT
#	Modification time:	15. 06. 2019 21:24

#	Program:	/corina/corina34_cracker 3.40 0067  02.08.2006

@<TRIPOS>MOLECULE
ASD10100010
  47   48    0    0    0
SMALL
NO_CHARGES


@<TRIPOS>ATOM
   1 C1            -1.0891     2.9764    -1.0098 C.3     
   2 C2            -1.9122     1.6963    -0.8526 C.3     
   3 C3            -3.1373     1.7622    -1.7668 C.3     
   4 C4            -3.9604     0.4821    -1.6095 C.3     
   5 S5             0.3634     2.8983     0.0740 S.o2    
   6 O6            -0.0284     2.9639     1.4384 O.2     
   7 O7             1.2718     1.9045    -0.3804 O.2     
   8 N8             1.1554     4.3280    -0.1927 N.am    
   9 C9             0.7167     5.5470     0.4914 C.3     
  10 C10            4.3643     4.4471    -2.8092 C.2     
  11 N11            3.2271     3.8352    -3.1861 N.am    
  12 C12            2.1682     3.7819    -2.3543 C.2     
  13 C13            2.2551     4.3723    -1.0807 C.2     
  14 C14            3.4195     4.9905    -0.7139 C.2     
  15 N15            4.4750     5.0202    -1.5968 N.am    
  16 O16            1.1407     3.2255    -2.7039 O.2     
  17 O17            5.3089     4.4785    -3.5745 O.2     
  18 C18            5.7263     5.6790    -1.2142 C.3     
  19 C19            5.6740     7.1299    -1.6180 C.ar    
  20 C20            5.1777     8.0745    -0.7392 C.ar    
  21 C21            5.1297     9.4054    -1.1097 C.ar    
  22 C22            5.5785     9.7918    -2.3588 C.ar    
  23 C23            6.0756     8.8473    -3.2373 C.ar    
  24 C24            6.1276     7.5170    -2.8651 C.ar    
  25 N25            3.5342     5.5766     0.5259 N.pl3   
  26 H26           -0.7645     3.0748    -2.0458 H       
  27 H27           -1.7000     3.8370    -0.7372 H       
  28 H28           -1.3013     0.8358    -1.1252 H       
  29 H29           -2.2367     1.5980     0.1833 H       
  30 H30           -3.7482     2.6228    -1.4942 H       
  31 H31           -2.8127     1.8605    -2.8027 H       
  32 H32           -4.8332     0.5290    -2.2608 H       
  33 H33           -3.3495    -0.3785    -1.8821 H       
  34 H34           -4.2849     0.3838    -0.5736 H       
  35 H35            1.5393     5.9469     1.0843 H       
  36 H36            0.4078     6.2869    -0.2471 H       
  37 H37           -0.1233     5.3142     1.1458 H       
  38 H38            3.1686     3.4288    -4.0649 H       
  39 H39            5.8596     5.6069    -0.1347 H       
  40 H40            6.5619     5.1918    -1.7168 H       
  41 H41            4.8271     7.7727     0.2367 H       
  42 H42            4.7413    10.1433    -0.4234 H       
  43 H43            5.5403    10.8315    -2.6486 H       
  44 H44            6.4259     9.1491    -4.2133 H       
  45 H45            6.5195     6.7796    -3.5501 H       
  46 H46            2.9935     5.2572     1.2653 H       
  47 H47            4.1556     6.3091     0.6605 H       
@<TRIPOS>BOND
   1    1    2 1
   2    1    5 1
   3    1   26 1
   4    1   27 1
   5    2    3 1
   6    2   28 1
   7    2   29 1
   8    3    4 1
   9    3   30 1
  10    3   31 1
  11    4   32 1
  12    4   33 1
  13    4   34 1
  14    5    6 2
  15    5    7 2
  16    5    8 am
  17    8    9 1
  18    8   13 1
  19    9   35 1
  20    9   36 1
  21    9   37 1
  22   10   11 am
  23   10   15 am
  24   10   17 2
  25   11   12 am
  26   11   38 1
  27   12   13 1
  28   12   16 2
  29   13   14 2
  30   14   15 1
  31   14   25 1
  32   15   18 1
  33   18   19 1
  34   18   39 1
  35   18   40 1
  36   19   20 ar
  37   19   24 ar
  38   20   21 ar
  39   20   41 1
  40   21   22 ar
  41   21   42 1
  42   22   23 ar
  43   22   43 1
  44   23   24 ar
  45   23   44 1
  46   24   45 1
  47   25   46 1
  48   25   47 1

#	End of record

