#	Name: ASD14170001
#	Creating user name:	WinNT
#	Creation time:	15. 06. 2019 21:30

#	Modifying user name:	WinNT
#	Modification time:	15. 06. 2019 21:30

#	Program:	/corina/corina34_cracker 3.40 0067  02.08.2006

@<TRIPOS>MOLECULE
ASD14170001
  41   43    0    0    0
SMALL
NO_CHARGES


@<TRIPOS>ATOM
   1 C1            -0.3237     2.4820    -0.5236 C.ar    
   2 C2             0.2624     1.2847    -0.9302 C.ar    
   3 C3             1.6104     1.2432    -1.2226 C.ar    
   4 C4             2.3808     2.3892    -1.1124 C.ar    
   5 C5             1.8025     3.5815    -0.7086 C.ar    
   6 C6             0.4553     3.6325    -0.4142 C.ar    
   7 C7            -1.7736     2.5332    -0.2141 C.2     
   8 C8            -2.3397     2.7891     1.0214 C.2     
   9 N9            -3.6817     2.7431     0.8647 N.pl3   
  10 N10           -3.9571     2.4567    -0.4773 N.2     
  11 C11           -2.8292     2.3362    -1.1251 C.2     
  12 C12           -4.6768     2.9561     1.9186 C.3     
  13 C13           -2.6827     2.0342    -2.5942 C.3     
  14 N14           -1.6553     3.0458     2.2059 N.am    
  15 C15           -1.8615     4.2024     2.8663 C.2     
  16 N16           -1.2393     4.4282     4.0403 N.am    
  17 O17           -2.6088     5.0422     2.4029 O.2     
  18 C18           -1.5313     5.5829     4.7769 C.ar    
  19 C19           -1.5164     5.5446     6.1647 C.ar    
  20 C20           -1.8306     6.7691     4.1203 C.ar    
  21 C21           -2.1179     7.9070     4.8485 C.ar    
  22 C22           -2.1076     7.8653     6.2325 C.ar    
  23 C23           -1.8043     6.6846     6.8893 C.ar    
  24 F24           -2.3889     8.9794     6.9431 F       
  25 F25           -2.6265     0.6490    -2.7822 F       
  26 F26           -3.7797     2.5549    -3.2889 F       
  27 F27           -1.5060     2.6183    -3.0753 F       
  28 F28            3.7002     2.3437    -1.3992 F       
  29 H29           -0.3374     0.3907    -1.0160 H       
  30 H30            2.0654     0.3157    -1.5374 H       
  31 H31            2.4071     4.4724    -0.6238 H       
  32 H32            0.0053     4.5625    -0.0998 H       
  33 H33           -4.9017     4.0198     1.9963 H       
  34 H34           -5.5874     2.4090     1.6745 H       
  35 H35           -4.2815     2.5980     2.8692 H       
  36 H36           -1.0298     2.3922     2.5560 H       
  37 H37           -0.5891     3.7909     4.3751 H       
  38 H38           -1.2802     4.6238     6.6773 H       
  39 H39           -1.8384     6.8021     3.0408 H       
  40 H40           -2.3504     8.8300     4.3381 H       
  41 H41           -1.7931     6.6551     7.9688 H       
@<TRIPOS>BOND
   1    1    2 ar
   2    1    6 ar
   3    1    7 1
   4    2    3 ar
   5    2   29 1
   6    3    4 ar
   7    3   30 1
   8    4    5 ar
   9    4   28 1
  10    5    6 ar
  11    5   31 1
  12    6   32 1
  13    7    8 2
  14    7   11 1
  15    8    9 1
  16    8   14 1
  17    9   10 1
  18    9   12 1
  19   10   11 2
  20   11   13 1
  21   12   33 1
  22   12   34 1
  23   12   35 1
  24   13   25 1
  25   13   26 1
  26   13   27 1
  27   14   15 am
  28   14   36 1
  29   15   16 am
  30   15   17 2
  31   16   18 1
  32   16   37 1
  33   18   20 ar
  34   18   19 ar
  35   19   23 ar
  36   19   38 1
  37   20   21 ar
  38   20   39 1
  39   21   22 ar
  40   21   40 1
  41   22   23 ar
  42   22   24 1
  43   23   41 1

#	End of record

