#	Name: ASD14650001
#	Creating user name:	WinNT
#	Creation time:	15. 06. 2019 21:31

#	Modifying user name:	WinNT
#	Modification time:	15. 06. 2019 21:31

#	Program:	/corina/corina34_cracker 3.40 0067  02.08.2006

@<TRIPOS>MOLECULE
ASD14650001
 181  186    0    0    0
SMALL
NO_CHARGES


@<TRIPOS>ATOM
   1 Co1            0.0000     0.0000     0.0000 Du      
   2 P2            15.5695    13.6066    10.7483 P.3     
   3 O3            24.8601     6.3197    11.2419 O.2     
   4 O4            22.5337     8.6089    10.9032 O.2     
   5 O5            27.1006     6.9896    15.3904 O.2     
   6 O6            21.0250    15.2611    11.6191 O.2     
   7 O7            33.7049    11.4035    10.3410 O.2     
   8 O8            32.5800    15.1130    13.5461 O.2     
   9 O9            24.4399    19.2895     8.9281 O.2     
  10 O10           16.2473    14.8850    11.4542 O.3     
  11 O11           14.7685    14.0807     9.4347 O.3     
  12 O12           16.6683    12.5979    10.3454 O.co2   
  13 O13           14.5891    12.9333    11.7344 O.co2   
  14 O14           13.3139    13.7390     6.4042 O.3     
  15 O15           12.4109    15.0657     8.9234 O.3     
  16 O16           15.2872    11.8844     5.3651 O.3     
  17 N17           26.7494    10.8561    10.9705 N.pl3   
  18 N18           25.3775    12.0293     9.1313 N.2     
  19 N19           29.0598    12.0911    10.3247 N.2     
  20 N20           24.4138     5.9467     9.1009 N.am    
  21 N21           27.2868    14.0260     8.9521 N.2     
  22 N22           20.4336     9.1699    10.4596 N.am    
  23 N23           19.0702    14.2169    11.5175 N.am    
  24 N24           29.2872     6.6170    15.3460 N.am    
  25 N25           34.0133     9.7367     8.9097 N.am    
  26 N26           32.8507    16.9483    12.3295 N.am    
  27 N27           25.3943    20.7320     7.5387 N.am    
  28 N28           11.0093    14.2909     6.7277 N.pl3   
  29 N29            9.9465    16.0282     5.9454 N.2     
  30 C30           25.3379    10.4594    10.9939 C.3     
  31 C31           25.3022     8.9345    11.1831 C.3     
  32 C32           24.6944    10.8453     9.6610 C.3     
  33 C33           26.7435     8.5900    11.6080 C.3     
  34 C34           23.2243    11.2463     9.8764 C.3     
  35 C35           23.1360    12.6170     9.1760 C.3     
  36 C36           27.5620     9.8132    11.2684 C.2     
  37 C37           24.9471     8.2370     9.8685 C.3     
  38 C38           24.6188    11.1516    12.1498 C.3     
  39 C39           24.3103     8.5515    12.2832 C.3     
  40 C40           24.5664    12.9997     8.8761 C.2     
  41 C41           26.8013     8.3142    13.1118 C.3     
  42 C42           22.2845    10.2373     9.2133 C.3     
  43 C43           22.4941    13.6484    10.1062 C.3     
  44 C44           22.3343    12.4996     7.8782 C.3     
  45 C45           28.9168     9.8518    11.2417 C.2     
  46 C46           24.9530    14.2650     8.3989 C.2     
  47 C47           28.2081     7.8472    13.4910 C.3     
  48 C48           24.7375     6.7661    10.1209 C.2     
  49 C49           29.5955    10.9930    10.8037 C.2     
  50 C50           31.1055    11.1368    10.8123 C.3     
  51 C51           21.0496    13.2395    10.4016 C.3     
  52 C52           21.7608     9.2801    10.2528 C.2     
  53 C53           26.2489    14.6770     8.4409 C.2     
  54 C54           31.3103    12.6214    10.4502 C.3     
  55 C55           29.7055     8.6456    11.6916 C.3     
  56 C56           26.7278    16.0024     7.8773 C.3     
  57 C57           28.2202    16.0201     8.2549 C.3     
  58 C58           23.9048    15.1910     7.8266 C.3     
  59 C59           29.9164    13.0491    10.0076 C.2     
  60 C60           31.7427    10.2288     9.7585 C.3     
  61 C61           28.4285    14.6637     8.9126 C.2     
  62 C62           31.6711    10.8345    12.2014 C.3     
  63 C63           28.1576     7.1208    14.8104 C.2     
  64 C64           31.7617    13.4220    11.6734 C.3     
  65 C65           20.3820    14.3121    11.2230 C.2     
  66 C66           29.6691    14.2426     9.3778 C.2     
  67 C67           25.9886    17.1694     8.5350 C.3     
  68 C68           29.0926    16.1549     7.0053 C.3     
  69 C69           28.5146    17.1509     9.2427 C.3     
  70 C70           32.0753    14.8597    11.2546 C.3     
  71 C71           33.2236    10.4994     9.6914 C.2     
  72 C72           26.3605    18.4732     7.8260 C.3     
  73 C73           18.4459    15.1994    12.4070 C.3     
  74 C74           32.5199    15.6482    12.4595 C.2     
  75 C75           25.3289    19.5266     8.1379 C.2     
  76 C76           16.9930    14.7984    12.6701 C.3     
  77 C77           16.3841    15.7412    13.7100 C.3     
  78 C78           13.9720    13.1939     8.6464 C.3     
  79 C79           12.5008    13.6744     8.6100 C.3     
  80 C80           14.4190    13.2339     7.1722 C.3     
  81 C81           12.1106    13.4138     7.1328 C.3     
  82 C82           14.7798    11.8241     6.6996 C.3     
  83 C83            9.6610    14.0165     6.8400 C.ar    
  84 C84           11.1256    15.5292     6.1766 C.2     
  85 C85            8.9923    15.1433     6.3327 C.ar    
  86 C86            8.9306    12.9360     7.3161 C.ar    
  87 C87            7.5952    15.1626     6.3133 C.ar    
  88 C88            7.5530    12.9773     7.2874 C.ar    
  89 C89            6.8930    14.0902     6.7856 C.ar    
  90 C90            6.7582    11.8057     7.8038 C.3     
  91 C91            5.3864    14.1165     6.7627 C.3     
  92 H92           24.7636    10.0238     8.9530 H       
  93 H93           27.1056     7.7265    11.0500 H       
  94 H94           23.0011    11.3388    10.9393 H       
  95 H95           24.0327     8.6699     9.4629 H       
  96 H96           25.7601     8.3709     9.1549 H       
  97 H97           24.4465    12.1976    11.8963 H       
  98 H98           23.6632    10.6592    12.3302 H       
  99 H99           25.2335    11.0919    13.0480 H       
 100 H100          23.5064     9.2866    12.3196 H       
 101 H101          23.8933     7.5673    12.0699 H       
 102 H102          24.8247     8.5277    13.2440 H       
 103 H103          26.5618     9.2266    13.6580 H       
 104 H104          26.0797     7.5380    13.3669 H       
 105 H105          21.4499    10.7662     8.7530 H       
 106 H106          22.8285     9.6819     8.4492 H       
 107 H107          23.0562    13.6961    11.0388 H       
 108 H108          22.5037    14.6267     9.6257 H       
 109 H109          21.3912    11.9911     8.0784 H       
 110 H110          22.1333    13.4958     7.4839 H       
 111 H111          22.9072    11.9285     7.1476 H       
 112 H112          28.5879     7.1758    12.7209 H       
 113 H113          28.8669     8.7113    13.5769 H       
 114 H114          20.5093    13.1109     9.4637 H       
 115 H115          21.0438    12.3010    10.9559 H       
 116 H116          32.0249    12.7258     9.6337 H       
 117 H117          29.1588     7.7379    11.4357 H       
 118 H118          30.6748     8.6386    11.1930 H       
 119 H119          29.8523     8.6893    12.7708 H       
 120 H120          26.6033    16.0289     6.7948 H       
 121 H121          23.4083    15.7233     8.6380 H       
 122 H122          24.3801    15.9091     7.1583 H       
 123 H123          23.1699    14.6086     7.2708 H       
 124 H124          31.5757     9.1861    10.0285 H       
 125 H125          31.2923    10.4290     8.7862 H       
 126 H126          31.5697     9.7697    12.4111 H       
 127 H127          32.7247    11.1123    12.2331 H       
 128 H128          31.1220    11.4061    12.9496 H       
 129 H129          24.2789     5.0000     9.2634 H       
 130 H130          24.3158     6.3037     8.2044 H       
 131 H131          30.9664    13.4259    12.4188 H       
 132 H132          32.6552    12.9641    12.0979 H       
 133 H133          30.5174    14.9186     9.2290 H       
 134 H134          24.9134    17.0080     8.4583 H       
 135 H135          26.2724    17.2334     9.5855 H       
 136 H136          20.0965     8.5538    11.1287 H       
 137 H137          19.8155     9.7067     9.9393 H       
 138 H138          27.9232    17.0066    10.1469 H       
 139 H139          29.5745    17.1445     9.4968 H       
 140 H140          28.2557    18.1071     8.7879 H       
 141 H141          28.8484    17.0840     6.4902 H       
 142 H142          30.1433    16.1654     7.2951 H       
 143 H143          28.9075    15.3113     6.3403 H       
 144 H144          32.8706    14.8558    10.5093 H       
 145 H145          31.1819    15.3176    10.8302 H       
 146 H146          27.3383    18.8086     8.1716 H       
 147 H147          26.3938    18.3047     6.7496 H       
 148 H148          18.5395    13.4977    11.1406 H       
 149 H149          29.2547     6.1495    16.1952 H       
 150 H150          30.1326     6.7220    14.8821 H       
 151 H151          18.9903    15.2326    13.3508 H       
 152 H152          18.4722    16.1828    11.9376 H       
 153 H153          34.9666     9.9108     8.8665 H       
 154 H154          33.6284     9.0136     8.3902 H       
 155 H155          16.9605    13.7752    13.0442 H       
 156 H156          33.1369    17.4558    13.1050 H       
 157 H157          32.8027    17.3764    11.4604 H       
 158 H158          24.7749    21.4340     7.7926 H       
 159 H159          26.0607    20.8976     6.8536 H       
 160 H160          16.4166    16.7645    13.3359 H       
 161 H161          15.3491    15.4556    13.8975 H       
 162 H162          16.9529    15.6752    14.6375 H       
 163 H163          14.0322    12.1785     9.0380 H       
 164 H164          11.8821    13.0845     9.2862 H       
 165 H165          15.2788    13.8949     7.0634 H       
 166 H166          11.8435    12.3674     6.9853 H       
 167 H167          13.8903    11.1946     6.7220 H       
 168 H168          15.5395    11.4034     7.3584 H       
 169 H169          11.5087    15.4136     8.9134 H       
 170 H170          12.0605    16.0257     5.9623 H       
 171 H171          15.5369    11.0245     5.0000 H       
 172 H172           9.4393    12.0672     7.7068 H       
 173 H173           7.0714    16.0239     5.9258 H       
 174 H174           6.5596    11.9416     8.8669 H       
 175 H175           5.8140    11.7406     7.2632 H       
 176 H176           7.3263    10.8874     7.6547 H       
 177 H177           5.0301    13.7048     5.8184 H       
 178 H178           5.0000    13.5190     7.5884 H       
 179 H179           5.0394    15.1448     6.8647 H       
 180 N180          39.9666    26.4340    21.1952 N.1     
 181 C181          39.9666    27.5700    21.1952 C.1     
@<TRIPOS>BOND
   1    2   10 1
   2    2   11 1
   3    2   12 ar
   4    2   13 ar
   5    3   48 2
   6    4   52 2
   7    5   63 2
   8    6   65 2
   9    7   71 2
  10    8   74 2
  11    9   75 2
  12   10   76 1
  13   11   78 1
  14   14   80 1
  15   14   81 1
  16   15  169 1
  17   15   79 1
  18   16   82 1
  19   16  171 1
  20   17   30 1
  21   17   36 1
  22   18   32 1
  23   18   40 2
  24   19   49 2
  25   19   59 1
  26   20   48 am
  27   20  129 1
  28   20  130 1
  29   21   53 1
  30   21   61 2
  31   22   52 am
  32   22  136 1
  33   22  137 1
  34   23   65 am
  35   23   73 1
  36   23  148 1
  37   24   63 am
  38   24  149 1
  39   24  150 1
  40   25   71 am
  41   25  153 1
  42   25  154 1
  43   26   74 am
  44   26  156 1
  45   26  157 1
  46   27   75 am
  47   27  158 1
  48   27  159 1
  49   28   83 1
  50   28   84 1
  51   28   81 1
  52   29   84 2
  53   29   85 1
  54   30   31 1
  55   30   38 1
  56   30   32 1
  57   31   33 1
  58   31   37 1
  59   31   39 1
  60   32   92 1
  61   32   34 1
  62   33   36 1
  63   33   41 1
  64   33   93 1
  65   34   42 1
  66   34   94 1
  67   34   35 1
  68   35   40 1
  69   35   43 1
  70   35   44 1
  71   36   45 2
  72   37   48 1
  73   37   95 1
  74   37   96 1
  75   38   97 1
  76   38   98 1
  77   38   99 1
  78   39  100 1
  79   39  101 1
  80   39  102 1
  81   40   46 1
  82   41   47 1
  83   41  103 1
  84   41  104 1
  85   42   52 1
  86   42  105 1
  87   42  106 1
  88   43   51 1
  89   43  107 1
  90   43  108 1
  91   44  109 1
  92   44  110 1
  93   44  111 1
  94   45   49 1
  95   45   55 1
  96   46   53 2
  97   46   58 1
  98   47   63 1
  99   47  112 1
 100   47  113 1
 101   49   50 1
 102   50   54 1
 103   50   60 1
 104   50   62 1
 105   51   65 1
 106   51  114 1
 107   51  115 1
 108   53   56 1
 109   54   59 1
 110   54   64 1
 111   54  116 1
 112   55  117 1
 113   55  118 1
 114   55  119 1
 115   56   57 1
 116   56   67 1
 117   56  120 1
 118   57   61 1
 119   57   68 1
 120   57   69 1
 121   58  121 1
 122   58  122 1
 123   58  123 1
 124   59   66 2
 125   60   71 1
 126   60  124 1
 127   60  125 1
 128   61   66 1
 129   62  126 1
 130   62  127 1
 131   62  128 1
 132   64   70 1
 133   64  131 1
 134   64  132 1
 135   66  133 1
 136   67   72 1
 137   67  134 1
 138   67  135 1
 139   68  141 1
 140   68  142 1
 141   68  143 1
 142   69  138 1
 143   69  139 1
 144   69  140 1
 145   70   74 1
 146   70  144 1
 147   70  145 1
 148   72   75 1
 149   72  146 1
 150   72  147 1
 151   73   76 1
 152   73  151 1
 153   73  152 1
 154   76   77 1
 155   76  155 1
 156   77  160 1
 157   77  161 1
 158   77  162 1
 159   78   79 1
 160   78  163 1
 161   78   80 1
 162   79   81 1
 163   79  164 1
 164   80   82 1
 165   80  165 1
 166   81  166 1
 167   82  167 1
 168   82  168 1
 169   83   85 ar
 170   83   86 ar
 171   84  170 1
 172   85   87 ar
 173   86   88 ar
 174   86  172 1
 175   87   89 ar
 176   87  173 1
 177   88   89 ar
 178   88   90 1
 179   89   91 1
 180   90  174 1
 181   90  175 1
 182   90  176 1
 183   91  177 1
 184   91  178 1
 185   91  179 1
 186  180  181 3

#	End of record

