#	Name: ASD10610157
#	Creating user name:	WinNT
#	Creation time:	15. 06. 2019 21:28

#	Modifying user name:	WinNT
#	Modification time:	15. 06. 2019 21:28

#	Program:	/corina/corina34_cracker 3.40 0067  02.08.2006

@<TRIPOS>MOLECULE
ASD10610157
  13   13    0    0    0
SMALL
NO_CHARGES


@<TRIPOS>ATOM
   1 C1            -0.0167     1.3836     0.0096 C.ar    
   2 C2             0.0021    -0.0041     0.0020 C.ar    
   3 C3             1.2089    -0.6779    -0.0131 C.ar    
   4 C4             2.3978     0.0301    -0.0207 C.ar    
   5 C5             2.3816     1.4134    -0.0131 C.ar    
   6 C6             1.1767     2.0916     0.0021 C.ar    
   7 O7            -1.2027     2.0483     0.0189 O.3     
   8 Cl8            1.1570     3.8275     0.0110 Cl      
   9 Cl9            3.9119    -0.8189    -0.0391 Cl      
  10 Br10          -1.6221    -0.9724     0.0130 Br      
  11 H11            1.2239    -1.7577    -0.0187 H       
  12 H12            3.3107     1.9640    -0.0186 H       
  13 H13           -1.5416     2.2358     0.9049 H       
@<TRIPOS>BOND
   1    1    2 ar
   2    1    6 ar
   3    1    7 1
   4    2    3 ar
   5    2   10 1
   6    3    4 ar
   7    3   11 1
   8    4    5 ar
   9    4    9 1
  10    5    6 ar
  11    5   12 1
  12    6    8 1
  13    7   13 1

#	End of record

