#	Name: ASD10420157
#	Creating user name:	WinNT
#	Creation time:	15. 06. 2019 21:27

#	Modifying user name:	WinNT
#	Modification time:	15. 06. 2019 21:27

#	Program:	/corina/corina34_cracker 3.40 0067  02.08.2006

@<TRIPOS>MOLECULE
ASD10420157
  27   28    0    0    0
SMALL
NO_CHARGES


@<TRIPOS>ATOM
   1 C1            -0.0161     1.3387     0.0094 C.2     
   2 C2             0.0021    -0.0041     0.0020 C.2     
   3 C3            -3.6444    -2.1769     0.0258 C.ar    
   4 C4            -2.6674    -2.4825    -0.9051 C.ar    
   5 C5            -3.4393    -1.1668     0.9488 C.ar    
   6 C6             1.2332     3.4904     0.0090 C.ar    
   7 C7             2.4707     1.4125    -0.0135 C.ar    
   8 C8             3.6317     3.5115    -0.0128 C.ar    
   9 C9            -1.4789    -1.7804    -0.9195 C.ar    
  10 C10           -2.2562    -0.4554     0.9476 C.ar    
  11 C11            2.4203     4.1919     0.0019 C.ar    
  12 C12            3.6529     2.1223    -0.0205 C.ar    
  13 C13            1.2497     2.0927     0.0014 C.ar    
  14 C14           -1.2638    -0.7581     0.0101 C.ar    
  15 O15            4.7991     4.2069    -0.0203 O.3     
  16 Cl16          -0.2544    -2.1660    -2.0881 Cl      
  17 Cl17          -2.0015     0.8118     2.1064 Cl      
  18 Br18           2.3996     6.0827     0.0116 Br      
  19 Br19           5.3056     1.2035    -0.0406 Br      
  20 H20           -0.9587     1.8659     0.0167 H       
  21 H21            0.9446    -0.5313    -0.0098 H       
  22 H22           -4.5740    -2.7269     0.0290 H       
  23 H23           -2.8350    -3.2725    -1.6222 H       
  24 H24           -4.2068    -0.9343     1.6722 H       
  25 H25            0.2921     4.0200     0.0250 H       
  26 H26            2.4882     0.3327    -0.0198 H       
  27 H27            5.1453     4.4037     0.8609 H       
@<TRIPOS>BOND
   1    1    2 2
   2    1   13 1
   3    1   20 1
   4    2   14 1
   5    2   21 1
   6    3    4 ar
   7    3    5 ar
   8    3   22 1
   9    4    9 ar
  10    4   23 1
  11    5   10 ar
  12    5   24 1
  13    6   11 ar
  14    6   13 ar
  15    6   25 1
  16    7   12 ar
  17    7   13 ar
  18    7   26 1
  19    8   11 ar
  20    8   12 ar
  21    8   15 1
  22    9   14 ar
  23    9   16 1
  24   10   14 ar
  25   10   17 1
  26   11   18 1
  27   12   19 1
  28   15   27 1

#	End of record

