#	Name: ASD10160039
#	Creating user name:	WinNT
#	Creation time:	15. 06. 2019 21:25

#	Modifying user name:	WinNT
#	Modification time:	15. 06. 2019 21:25

#	Program:	/corina/corina34_cracker 3.40 0067  02.08.2006

@<TRIPOS>MOLECULE
ASD10160039
  42   43    0    0    0
SMALL
NO_CHARGES


@<TRIPOS>ATOM
   1 C1             0.0726     1.0320    -1.4410 C.ar    
   2 C2             0.0494    -0.1959    -0.7723 C.ar    
   3 C3             1.2894     1.6967    -1.6327 C.ar    
   4 C4             2.4601     1.1372    -1.1610 C.ar    
   5 C5             2.4307    -0.0824    -0.4982 C.ar    
   6 C6             1.2221    -0.7459    -0.3054 C.ar    
   7 C7            -1.1801     1.6218    -1.9479 C.2     
   8 N8            -2.3499     0.9773    -1.7670 N.am    
   9 O9            -1.1578     2.6897    -2.5292 O.2     
  10 S10           -3.7568     1.6397    -2.3364 S.o2    
  11 O11           -4.7624     0.7140    -1.9478 O.2     
  12 O12           -3.7487     2.9677    -1.8307 O.2     
  13 O13            3.5837    -0.6293    -0.0364 O.3     
  14 C14            4.7257     0.1002    -0.1481 C.ar    
  15 C15            5.1007     0.9817     0.8627 C.ar    
  16 C16            5.5335    -0.0285    -1.2661 C.ar    
  17 N17            6.6437     0.6756    -1.3818 N.ar    
  18 C18            7.0283     1.5256    -0.4455 C.ar    
  19 C19            6.2712     1.7039     0.7066 C.ar    
  20 Cl20           1.1937    -2.2708     0.5238 Cl      
  21 F21            1.3183     2.8830    -2.2784 F       
  22 O22            8.1788     2.2281    -0.6082 O.3     
  23 Cl23           6.7841     2.8224     1.9312 Cl      
  24 C24            8.9159     1.9965    -1.8103 C.3     
  25 C25           10.1716     2.8706    -1.8150 C.3     
  26 F26            9.8020     4.2182    -1.7469 F       
  27 C27           11.0423     2.5189    -0.6071 C.3     
  28 F28           10.8932     2.6439    -2.9919 F       
  29 F29           11.4119     1.1713    -0.6752 F       
  30 F30           12.1905     3.3182    -0.6114 F       
  31 C31           -3.5580     1.6440    -4.1394 C.3     
  32 H32           -0.8873    -0.7120    -0.6218 H       
  33 H33            3.3999     1.6486    -1.3081 H       
  34 H34           -2.3677     0.1255    -1.3034 H       
  35 H35            4.4924     1.0993     1.7474 H       
  36 H36            5.2516    -0.7135    -2.0521 H       
  37 H37            9.2039     0.9466    -1.8634 H       
  38 H38            8.2956     2.2470    -2.6708 H       
  39 H39           10.4801     2.6956     0.3099 H       
  40 H40           -3.4175     0.6221    -4.4919 H       
  41 H41           -4.4488     2.0687    -4.6022 H       
  42 H42           -2.6882     2.2436    -4.4076 H       
@<TRIPOS>BOND
   1    1    2 ar
   2    1    3 ar
   3    1    7 1
   4    2    6 ar
   5    2   32 1
   6    3    4 ar
   7    3   21 1
   8    4    5 ar
   9    4   33 1
  10    5    6 ar
  11    5   13 1
  12    6   20 1
  13    7    8 am
  14    7    9 2
  15    8   10 am
  16    8   34 1
  17   10   11 2
  18   10   12 2
  19   10   31 1
  20   13   14 1
  21   14   15 ar
  22   14   16 ar
  23   15   19 ar
  24   15   35 1
  25   16   17 ar
  26   16   36 1
  27   17   18 ar
  28   18   19 ar
  29   18   22 1
  30   19   23 1
  31   22   24 1
  32   24   25 1
  33   24   37 1
  34   24   38 1
  35   25   26 1
  36   25   27 1
  37   25   28 1
  38   27   29 1
  39   27   30 1
  40   27   39 1
  41   31   40 1
  42   31   41 1
  43   31   42 1

#	End of record

