#	Name: ASD10160381
#	Creating user name:	WinNT
#	Creation time:	15. 06. 2019 21:25

#	Modifying user name:	WinNT
#	Modification time:	15. 06. 2019 21:25

#	Program:	/corina/corina34_cracker 3.40 0067  02.08.2006

@<TRIPOS>MOLECULE
ASD10160381
  36   37    0    0    0
SMALL
NO_CHARGES


@<TRIPOS>ATOM
   1 C1            -0.0184     1.5028     0.0103 C.2     
   2 C2             0.0021    -0.0041     0.0020 C.3     
   3 C3             1.2508     2.2587     0.0022 C.ar    
   4 C4             1.2230     3.6547     0.0100 C.ar    
   5 C5             2.4212     4.3535     0.0028 C.ar    
   6 C6             3.6127     3.6270    -0.0120 C.ar    
   7 C7             3.5593     2.2321    -0.0191 C.ar    
   8 N8             2.4065     1.6026    -0.0068 N.ar    
   9 O9             6.3044     3.7806    -0.0365 O.3     
  10 B10            4.9961     4.3693    -0.0212 Du      
  11 O11            5.2290     5.7850    -0.0168 O.3     
  12 C12            6.3414     5.9750    -0.9162 C.3     
  13 C13            7.0705     4.6161    -0.9296 C.3     
  14 C14            8.5025     4.7743    -0.4145 C.3     
  15 C15            7.0726     4.0260    -2.3412 C.3     
  16 C16            5.8394     6.3245    -2.3186 C.3     
  17 C17            7.2693     7.0728    -0.3920 C.3     
  18 Cl18          -0.2908     4.5043     0.0279 Cl      
  19 O19           -1.0728     2.0926     0.0185 O.2     
  20 H20            0.5293    -0.3651     0.8851 H       
  21 H21           -1.0205    -0.3814     0.0098 H       
  22 H22            0.5123    -0.3556    -0.8948 H       
  23 H23            2.4319     5.4335     0.0081 H       
  24 H24            4.4773     1.6633    -0.0305 H       
  25 H25            8.9846     3.7975    -0.3755 H       
  26 H26            9.0598     5.4280    -1.0855 H       
  27 H27            8.4833     5.2102     0.5843 H       
  28 H28            6.0468     3.9352    -2.6985 H       
  29 H29            7.6329     4.6813    -3.0081 H       
  30 H30            7.5394     3.0412    -2.3227 H       
  31 H31            5.2772     7.2576    -2.2813 H       
  32 H32            6.6897     6.4392    -2.9908 H       
  33 H33            5.1935     5.5255    -2.6829 H       
  34 H34            7.6300     6.8005     0.6000 H       
  35 H35            8.1166     7.1859    -1.0683 H       
  36 H36            6.7224     8.0138    -0.3341 H       
@<TRIPOS>BOND
   1    1    2 1
   2    1    3 1
   3    1   19 2
   4    2   20 1
   5    2   21 1
   6    2   22 1
   7    3    4 ar
   8    3    8 ar
   9    4    5 ar
  10    4   18 1
  11    5    6 ar
  12    5   23 1
  13    6    7 ar
  14    6   10 1
  15    7    8 ar
  16    7   24 1
  17    9   10 1
  18    9   13 1
  19   10   11 1
  20   11   12 1
  21   12   13 1
  22   12   16 1
  23   12   17 1
  24   13   14 1
  25   13   15 1
  26   14   25 1
  27   14   26 1
  28   14   27 1
  29   15   28 1
  30   15   29 1
  31   15   30 1
  32   16   31 1
  33   16   32 1
  34   16   33 1
  35   17   34 1
  36   17   35 1
  37   17   36 1

#	End of record

