#	Name: ASD11810004
#	Creating user name:	WinNT
#	Creation time:	15. 06. 2019 21:29

#	Modifying user name:	WinNT
#	Modification time:	15. 06. 2019 21:29

#	Program:	/corina/corina34_cracker 3.40 0067  02.08.2006

@<TRIPOS>MOLECULE
ASD11810004
  49   51    0    0    0
SMALL
NO_CHARGES


@<TRIPOS>ATOM
   1 C1             4.4201     1.4410     1.1750 C.ar    
   2 C2             4.9644     0.3198     0.5625 C.ar    
   3 N3             3.3656     2.1303     0.5658 N.am    
   4 C4             3.2896     3.4720     0.6677 C.2     
   5 N5             2.3272     4.1446     0.0059 N.am    
   6 C6             2.1878     5.5252     0.1869 C.ar    
   7 C7             3.3112     6.3190     0.3769 C.ar    
   8 C8             3.1703     7.6814     0.5547 C.ar    
   9 C9             1.9121     8.2550     0.5442 C.ar    
  10 C10            0.7914     7.4673     0.3552 C.ar    
  11 C11            0.9261     6.1051     0.1711 C.ar    
  12 S12            1.7365     9.9933     0.7726 S.o2    
  13 N13            1.7996    10.6936    -0.7268 N.am    
  14 C14            0.7485    10.4171    -1.7091 C.3     
  15 C15            0.4898    11.6716    -2.5460 C.3     
  16 C16           -0.6079    11.3828    -3.5719 C.3     
  17 C17           -0.1622    10.2414    -4.4882 C.3     
  18 C18            0.0964     8.9870    -3.6513 C.3     
  19 C19            1.1942     9.2757    -2.6253 C.3     
  20 O20            0.4177    10.2030     1.2582 O.2     
  21 O21            2.8984    10.4262     1.4668 O.2     
  22 O22            4.0892     4.0757     1.3565 O.2     
  23 C23            6.0048    -0.3586     1.1666 C.ar    
  24 C24            6.5045     0.0775     2.3800 C.ar    
  25 C25            5.9643     1.1933     2.9926 C.ar    
  26 C26            4.9206     1.8733     2.3961 C.ar    
  27 H27            4.5743    -0.0215    -0.3850 H       
  28 H28            2.6893     1.6424     0.0703 H       
  29 H29            1.7312     3.6717    -0.5958 H       
  30 H30            4.2941     5.8715     0.3859 H       
  31 H31            4.0437     8.2993     0.7025 H       
  32 H32           -0.1899     7.9183     0.3478 H       
  33 H33            0.0504     5.4905     0.0235 H       
  34 H34            2.5324    11.2868    -0.9546 H       
  35 H35           -0.1668    10.1309    -1.1910 H       
  36 H36            0.1723    12.4847    -1.8933 H       
  37 H37            1.4051    11.9578    -3.0641 H       
  38 H38           -1.5232    11.0966    -3.0538 H       
  39 H39           -0.7922    12.2765    -4.1681 H       
  40 H40           -0.9443    10.0358    -5.2190 H       
  41 H41            0.7531    10.5277    -5.0062 H       
  42 H42           -0.8189     8.7008    -3.1332 H       
  43 H43            0.4139     8.1739    -4.3040 H       
  44 H44            2.1095     9.5620    -3.1434 H       
  45 H45            1.3784     8.3820    -2.0291 H       
  46 H46            6.4283    -1.2308     0.6909 H       
  47 H47            7.3181    -0.4547     2.8503 H       
  48 H48            6.3565     1.5312     3.9405 H       
  49 H49            4.4994     2.7449     2.8749 H       
@<TRIPOS>BOND
   1    1    2 ar
   2    1    3 1
   3    1   26 ar
   4    2   23 ar
   5    2   27 1
   6    3    4 am
   7    3   28 1
   8    4    5 am
   9    4   22 2
  10    5    6 1
  11    5   29 1
  12    6    7 ar
  13    6   11 ar
  14    7    8 ar
  15    7   30 1
  16    8    9 ar
  17    8   31 1
  18    9   10 ar
  19    9   12 1
  20   10   11 ar
  21   10   32 1
  22   11   33 1
  23   12   13 am
  24   12   20 2
  25   12   21 2
  26   13   14 1
  27   13   34 1
  28   14   15 1
  29   14   19 1
  30   14   35 1
  31   15   16 1
  32   15   36 1
  33   15   37 1
  34   16   17 1
  35   16   38 1
  36   16   39 1
  37   17   18 1
  38   17   40 1
  39   17   41 1
  40   18   19 1
  41   18   42 1
  42   18   43 1
  43   19   44 1
  44   19   45 1
  45   23   24 ar
  46   23   46 1
  47   24   25 ar
  48   24   47 1
  49   25   26 ar
  50   25   48 1
  51   26   49 1

#	End of record

