#	Name: ASD10420050
#	Creating user name:	WinNT
#	Creation time:	15. 06. 2019 21:27

#	Modifying user name:	WinNT
#	Modification time:	15. 06. 2019 21:27

#	Program:	/corina/corina34_cracker 3.40 0067  02.08.2006

@<TRIPOS>MOLECULE
ASD10420050
  27   29    0    0    0
SMALL
NO_CHARGES


@<TRIPOS>ATOM
   1 O1            -0.0162     1.3444     0.0094 O.3     
   2 C2             0.0021    -0.0041     0.0020 C.ar    
   3 C3             1.3362    -0.4321    -0.0130 C.ar    
   4 C4             2.1491     0.8001    -0.0141 C.ar    
   5 C5             1.2306     1.8582     0.0003 C.ar    
   6 C6             1.6395    -1.7885    -0.0232 C.ar    
   7 C7             0.6234    -2.7254    -0.0185 C.ar    
   8 C8            -0.6970    -2.3219    -0.0038 C.ar    
   9 C9            -1.0214    -0.9648     0.0066 C.ar    
  10 C10            1.7110     3.1771     0.0032 C.ar    
  11 C11            3.0863     3.4129    -0.0083 C.ar    
  12 C12            3.9768     2.3579    -0.0229 C.ar    
  13 C13            3.5155     1.0551    -0.0254 C.ar    
  14 C14           -2.4335    -0.5416     0.0233 C.2     
  15 O15           -2.7133     0.6408     0.0323 O.2     
  16 O16           -3.4139    -1.4660     0.0286 O.3     
  17 C17            0.7663     4.3088     0.0178 C.2     
  18 O18           -0.4308     4.1008     0.0277 O.2     
  19 O19            1.2303     5.5739     0.0201 O.3     
  20 H20            2.6703    -2.1107    -0.0351 H       
  21 H21            0.8634    -3.7784    -0.0268 H       
  22 H22           -1.4839    -3.0616    -0.0002 H       
  23 H23            3.4567     4.4275    -0.0061 H       
  24 H24            5.0393     2.5517    -0.0320 H       
  25 H25            4.2173     0.2343    -0.0365 H       
  26 H26           -4.3243    -1.1403     0.0396 H       
  27 H27            0.5726     6.2827     0.0298 H       
@<TRIPOS>BOND
   1    1    2 1
   2    1    5 1
   3    2    3 ar
   4    2    9 ar
   5    3    4 1
   6    3    6 ar
   7    4    5 ar
   8    4   13 ar
   9    5   10 ar
  10    6    7 ar
  11    6   20 1
  12    7    8 ar
  13    7   21 1
  14    8    9 ar
  15    8   22 1
  16    9   14 1
  17   10   11 ar
  18   10   17 1
  19   11   12 ar
  20   11   23 1
  21   12   13 ar
  22   12   24 1
  23   13   25 1
  24   14   15 2
  25   14   16 1
  26   16   26 1
  27   17   18 2
  28   17   19 1
  29   19   27 1

#	End of record

