#	Name: ASD13680038
#	Creating user name:	WinNT
#	Creation time:	15. 06. 2019 21:30

#	Modifying user name:	WinNT
#	Modification time:	15. 06. 2019 21:30

#	Program:	/corina/corina34_cracker 3.40 0067  02.08.2006

@<TRIPOS>MOLECULE
ASD13680038
  43   44    0    0    0
SMALL
NO_CHARGES


@<TRIPOS>ATOM
   1 N1            -1.5341    -0.2209     2.1077 N.am    
   2 N2            -3.6969     0.4729     1.5384 N.am    
   3 C3            -1.9888    -1.4559     2.4014 C.2     
   4 C4            -2.3842     0.7312     1.6805 C.2     
   5 C5            -4.5979     1.5295     1.0714 C.3     
   6 C6            -4.4990     2.7719     1.9910 C.3     
   7 C7            -4.9830     3.9188     1.0692 C.3     
   8 C8            -5.4617     6.2001     1.6273 C.3     
   9 C9            -4.9955     7.2496     2.6032 C.2     
  10 C10           -4.3974     3.5655    -0.3135 C.3     
  11 C11           -4.1525     2.0464    -0.3122 C.3     
  12 C12           -4.1965    -0.7706     1.8150 C.2     
  13 C13           -3.3669    -1.7428     2.2506 C.2     
  14 C14           -3.8987    -3.1185     2.5599 C.3     
  15 O15           -1.2210    -2.3165     2.7924 O.2     
  16 O16           -4.4726     5.1741     1.5227 O.3     
  17 O17           -4.6250     7.9181    -0.2861 O.2     
  18 O18           -5.7345     5.8173    -1.1388 O.3     
  19 O19           -7.1289     7.7442    -0.0184 O.3     
  20 O20           -4.2028     6.9608     3.4681 O.2     
  21 O21           -5.4609     8.5053     2.5115 O.3     
  22 O22           -1.9599     1.8403     1.4197 O.2     
  23 P23           -5.7210     6.9632    -0.0078 P.3     
  24 H24           -0.5912    -0.0167     2.2084 H       
  25 H25           -5.6239     1.1639     1.0299 H       
  26 H26           -5.1560     2.6668     2.8543 H       
  27 H27           -3.4688     2.9382     2.3060 H       
  28 H28           -6.0720     3.9412     1.0279 H       
  29 H29           -6.3982     5.7674     1.9790 H       
  30 H30           -5.1071     3.8286    -1.0979 H       
  31 H31           -3.4572     4.0951    -0.4672 H       
  32 H32           -3.0935     1.8387    -0.4652 H       
  33 H33           -4.7434     1.5722    -1.0958 H       
  34 H34           -5.2516    -0.9697     1.6983 H       
  35 H35           -3.8519    -3.7362     1.6630 H       
  36 H36           -3.2955    -3.5729     3.3459 H       
  37 H37           -4.9332    -3.0414     2.8944 H       
  38 H38           -4.8561     5.4935    -1.3810 H       
  39 H39           -7.1919     8.4503     0.6392 H       
  40 C40           -4.9684     9.4636     3.4849 C.3     
  41 H41           -5.2278     9.1277     4.4888 H       
  42 H42           -3.8850     9.5457     3.3978 H       
  43 H43           -5.4226    10.4368     3.2986 H       
@<TRIPOS>BOND
   1    1    3 am
   2    1   24 1
   3    1    4 am
   4    2    4 am
   5    2   12 1
   6    2    5 1
   7    3   15 2
   8    3   13 1
   9    4   22 2
  10    5   11 1
  11    5   25 1
  12    5    6 1
  13    6    7 1
  14    6   26 1
  15    6   27 1
  16    7   10 1
  17    7   28 1
  18    7   16 1
  19    8    9 1
  20    8   29 1
  21    8   16 1
  22    8   23 1
  23    9   21 1
  24    9   20 2
  25   10   11 1
  26   10   30 1
  27   10   31 1
  28   11   32 1
  29   11   33 1
  30   12   13 2
  31   12   34 1
  32   13   14 1
  33   14   35 1
  34   14   36 1
  35   14   37 1
  36   17   23 2
  37   18   23 1
  38   18   38 1
  39   19   39 1
  40   19   23 1
  41   21   40 1
  42   40   41 1
  43   40   42 1
  44   40   43 1

#	End of record

