#	Name: ASD10950024
#	Creating user name:	WinNT
#	Creation time:	15. 06. 2019 21:28

#	Modifying user name:	WinNT
#	Modification time:	15. 06. 2019 21:28

#	Program:	/corina/corina34_cracker 3.40 0067  02.08.2006

@<TRIPOS>MOLECULE
ASD10950024
  54   58    0    0    0
SMALL
NO_CHARGES


@<TRIPOS>ATOM
   1 N1            -0.0708    -1.1778    -0.1399 N.1     
   2 C2            -0.0717    -0.0422    -0.1120 C.1     
   3 C3            -0.0729     1.3894    -0.0769 C.ar    
   4 C4             1.1071     2.0853     0.1935 C.ar    
   5 C5             1.0989     3.4644     0.2253 C.ar    
   6 C6            -0.0751     4.1580    -0.0094 C.ar    
   7 C7            -1.2479     3.4748    -0.2779 C.ar    
   8 C8            -1.2528     2.0959    -0.3185 C.ar    
   9 C9            -0.0764     5.6645     0.0280 C.3     
  10 C10           -0.2509     6.2186    -1.3667 C.2     
  11 C11           -1.3929     6.9454    -1.3582 C.2     
  12 C12           -1.9890     6.8970    -0.0063 C.2     
  13 O13           -3.0194     7.4511     0.3217 O.2     
  14 N14           -1.2219     6.1489     0.8073 N.am    
  15 C15           -1.4839     5.8671     2.2208 C.3     
  16 C16           -2.3254     4.5948     2.3398 C.3     
  17 C17           -2.5950     4.3050     3.7939 C.2     
  18 C18           -1.8887     3.4859     4.5891 C.2     
  19 N19           -2.4298     3.4750     5.8458 N.pl3   
  20 C20           -3.5253     4.3078     5.8909 C.ar    
  21 C21           -3.6736     4.8684     4.6093 C.ar    
  22 C22           -4.7149     5.7637     4.3568 C.ar    
  23 C23           -5.5857     6.0910     5.3574 C.ar    
  24 C24           -5.4434     5.5408     6.6241 C.ar    
  25 C25           -4.4213     4.6582     6.8959 C.ar    
  26 O26           -1.9072     7.6098    -2.4184 O.3     
  27 C27            0.6442     6.0102    -2.5086 C.2     
  28 O28            0.2590     5.3824    -3.4769 O.2     
  29 C29            2.0154     6.5629    -2.4836 C.ar    
  30 C30            2.9185     6.2743    -3.5144 C.ar    
  31 C31            4.1894     6.8168    -3.4437 C.ar    
  32 C32            4.5244     7.6192    -2.3677 C.ar    
  33 N33            3.6528     7.8740    -1.4101 N.ar    
  34 C34            2.4302     7.3863    -1.4348 C.ar    
  35 H35            2.0240     1.5451     0.3776 H       
  36 H36            2.0108     4.0039     0.4343 H       
  37 H37           -2.1608     4.0224    -0.4598 H       
  38 H38           -2.1689     1.5638    -0.5285 H       
  39 H39            0.8545     6.0291     0.4623 H       
  40 H40           -0.5384     5.7276     2.7448 H       
  41 H41           -2.0249     6.7033     2.6638 H       
  42 H42           -3.2710     4.7343     1.8158 H       
  43 H43           -1.7844     3.7586     1.8968 H       
  44 H44           -1.0221     2.9192     4.2822 H       
  45 H45           -2.0922     2.9573     6.5934 H       
  46 H46           -4.8314     6.1962     3.3740 H       
  47 H47           -6.3909     6.7835     5.1615 H       
  48 H48           -6.1395     5.8095     7.4049 H       
  49 H49           -4.3190     4.2355     7.8845 H       
  50 H50           -2.7324     8.0764    -2.2276 H       
  51 H51            2.6305     5.6442    -4.3430 H       
  52 H52            4.9125     6.6157    -4.2203 H       
  53 H53            5.5157     8.0438    -2.3102 H       
  54 H54            1.7452     7.6173    -0.6324 H       
@<TRIPOS>BOND
   1    1    2 3
   2    2    3 1
   3    3    4 ar
   4    3    8 ar
   5    4    5 ar
   6    4   35 1
   7    5    6 ar
   8    5   36 1
   9    6    7 ar
  10    6    9 1
  11    7    8 ar
  12    7   37 1
  13    8   38 1
  14    9   10 1
  15    9   14 1
  16    9   39 1
  17   10   11 2
  18   10   27 1
  19   11   12 1
  20   11   26 1
  21   12   13 2
  22   12   14 am
  23   14   15 1
  24   15   16 1
  25   15   40 1
  26   15   41 1
  27   16   17 1
  28   16   42 1
  29   16   43 1
  30   17   18 2
  31   17   21 1
  32   18   19 1
  33   18   44 1
  34   19   20 1
  35   19   45 1
  36   20   21 ar
  37   20   25 ar
  38   21   22 ar
  39   22   23 ar
  40   22   46 1
  41   23   24 ar
  42   23   47 1
  43   24   25 ar
  44   24   48 1
  45   25   49 1
  46   26   50 1
  47   27   28 2
  48   27   29 1
  49   29   30 ar
  50   29   34 ar
  51   30   31 ar
  52   30   51 1
  53   31   32 ar
  54   31   52 1
  55   32   33 ar
  56   32   53 1
  57   33   34 ar
  58   34   54 1

#	End of record

