#	Name: ASD10220175
#	Creating user name:	WinNT
#	Creation time:	15. 06. 2019 21:26

#	Modifying user name:	WinNT
#	Modification time:	15. 06. 2019 21:26

#	Program:	/corina/corina34_cracker 3.40 0067  02.08.2006

@<TRIPOS>MOLECULE
ASD10220175
  32   34    0    0    0
SMALL
NO_CHARGES


@<TRIPOS>ATOM
   1 C1            -0.0034     1.4387    -0.1856 C.ar    
   2 C2             0.0268     0.0565    -0.3324 C.ar    
   3 C3            -1.1450    -0.6693    -0.3904 C.ar    
   4 C4            -2.3712    -0.0199    -0.3014 C.ar    
   5 C5            -2.4014     1.3740    -0.1528 C.ar    
   6 C6            -1.2160     2.0999    -0.0897 C.ar    
   7 O7            -3.6485    -0.4565    -0.3269 O.3     
   8 C8            -4.5126     0.5573    -0.2051 C.2     
   9 C9            -3.8327     1.7326    -0.0914 C.2     
  10 C10           -4.4049     3.0779     0.0604 C.2     
  11 O11           -3.6753     4.0298     0.2667 O.2     
  12 C12           -5.8648     3.2744    -0.0372 C.ar    
  13 C13           -6.4788     4.3218     0.6554 C.ar    
  14 C14           -7.8406     4.5019     0.5612 C.ar    
  15 C15           -8.6047     3.6435    -0.2210 C.ar    
  16 C16           -7.9980     2.6004    -0.9111 C.ar    
  17 C17           -6.6360     2.4171    -0.8272 C.ar    
  18 O18            1.1596     2.1414    -0.1304 O.3     
  19 Cl19          -1.2575     3.8256     0.0948 Cl      
  20 Cl20          -1.0886    -2.3945    -0.5751 Cl      
  21 O21           -9.9468     3.8242    -0.3108 O.3     
  22 C22          -10.6715     2.9061    -1.1318 C.3     
  23 H23            0.9762    -0.4536    -0.4021 H       
  24 H24           -5.5881     0.4590    -0.1985 H       
  25 H25           -5.8859     4.9886     1.2638 H       
  26 H26           -8.3158     5.3109     1.0961 H       
  27 H27           -8.5953     1.9353    -1.5171 H       
  28 H28           -6.1654     1.6064    -1.3636 H       
  29 H29            1.4814     2.4376    -0.9928 H       
  30 H30          -10.2994     2.9616    -2.1548 H       
  31 H31          -10.5371     1.8938    -0.7507 H       
  32 H32          -11.7307     3.1626    -1.1160 H       
@<TRIPOS>BOND
   1    1    2 ar
   2    1   18 1
   3    1    6 ar
   4    2    3 ar
   5    2   23 1
   6    3    4 ar
   7    3   20 1
   8    4    5 ar
   9    4    7 1
  10    5    6 ar
  11    5    9 1
  12    6   19 1
  13    7    8 1
  14    8    9 2
  15    8   24 1
  16    9   10 1
  17   10   11 2
  18   10   12 1
  19   12   13 ar
  20   12   17 ar
  21   13   14 ar
  22   13   25 1
  23   14   15 ar
  24   14   26 1
  25   15   16 ar
  26   15   21 1
  27   16   17 ar
  28   16   27 1
  29   17   28 1
  30   18   29 1
  31   21   22 1
  32   22   30 1
  33   22   31 1
  34   22   32 1

#	End of record

