#	Name: ASD10438003
#	Creating user name:	WinNT
#	Creation time:	15. 06. 2019 21:27

#	Modifying user name:	WinNT
#	Modification time:	15. 06. 2019 21:27

#	Program:	/corina/corina34_cracker 3.40 0067  02.08.2006

@<TRIPOS>MOLECULE
ASD10438003
  26   27    0    0    0
SMALL
NO_CHARGES


@<TRIPOS>ATOM
   1 N1            -0.0169     1.3925     0.0097 N.pl3   
   2 C2             0.0021    -0.0041     0.0020 C.ar    
   3 C3            -1.1904    -0.7165     0.0096 C.ar    
   4 C4            -1.1681    -2.0973     0.0015 C.ar    
   5 C5             0.0396    -2.7708    -0.0142 C.ar    
   6 C6             1.2286    -2.0647    -0.0217 C.ar    
   7 C7             1.2134    -0.6837    -0.0190 C.ar    
   8 C8             1.2418     2.1422     0.0017 C.3     
   9 C9             0.8205     4.2998     1.2094 C.ar    
  10 C10            0.9463     3.6199     0.0125 C.ar    
  11 C11            0.7978     4.3147    -1.1779 C.ar    
  12 C12            0.5270     5.6735    -1.1196 C.ar    
  13 C13            0.4150     6.2855     0.1142 C.ar    
  14 N14            0.5621     5.5927     1.2267 N.ar    
  15 H15           -0.8634     1.8661     0.0163 H       
  16 H16           -2.1339    -0.1911     0.0221 H       
  17 H17           -2.0949    -2.6518     0.0077 H       
  18 H18            0.0542    -3.8507    -0.0201 H       
  19 H19            2.1700    -2.5937    -0.0339 H       
  20 H20            2.1423    -0.1328    -0.0294 H       
  21 H21            1.8253     1.8819     0.8848 H       
  22 H22            1.8083     1.8915    -0.8951 H       
  23 H23            0.9304     3.7649     2.1412 H       
  24 H24            0.8911     3.8098    -2.1281 H       
  25 H25            0.4055     6.2463    -2.0272 H       
  26 H26            0.2043     7.3434     0.1681 H       
@<TRIPOS>BOND
   1    1    2 1
   2    1    8 1
   3    1   15 1
   4    2    3 ar
   5    2    7 ar
   6    3    4 ar
   7    3   16 1
   8    4    5 ar
   9    4   17 1
  10    5    6 ar
  11    5   18 1
  12    6    7 ar
  13    6   19 1
  14    7   20 1
  15    8   10 1
  16    8   21 1
  17    8   22 1
  18    9   10 ar
  19    9   14 ar
  20    9   23 1
  21   10   11 ar
  22   11   12 ar
  23   11   24 1
  24   12   13 ar
  25   12   25 1
  26   13   14 ar
  27   13   26 1

#	End of record

