#	Name: ASD10950001
#	Creating user name:	WinNT
#	Creation time:	15. 06. 2019 21:28

#	Modifying user name:	WinNT
#	Modification time:	15. 06. 2019 21:28

#	Program:	/corina/corina34_cracker 3.40 0067  02.08.2006

@<TRIPOS>MOLECULE
ASD10950001
  53   56    0    0    0
SMALL
NO_CHARGES


@<TRIPOS>ATOM
   1 C1             0.0024     1.2314    -1.6112 C.3     
   2 O2             0.0452    -0.1977    -1.3575 O.3     
   3 C3             0.5231    -0.5924    -0.1615 C.2     
   4 O4             0.8939     0.2345     0.6473 O.2     
   5 C5             0.5963    -2.0310     0.1664 C.ar    
   6 C6             1.0911    -2.4436     1.4051 C.ar    
   7 C7             1.1566    -3.7886     1.7048 C.ar    
   8 C8             0.7334    -4.7278     0.7811 C.ar    
   9 C9             0.2420    -4.3258    -0.4483 C.ar    
  10 C10            0.1655    -2.9839    -0.7588 C.ar    
  11 C11            0.8085    -6.1953     1.1154 C.3     
  12 N12           -0.4849    -6.8385     0.8564 N.am    
  13 C13           -1.7577    -6.5034     1.4997 C.3     
  14 C14           -2.4720    -5.4230     0.6852 C.3     
  15 C15           -3.7813    -5.0784     1.3469 C.2     
  16 C16           -4.9851    -5.5944     1.0525 C.2     
  17 N17           -5.9399    -5.0423     1.8623 N.pl3   
  18 C18           -5.3591    -4.1346     2.7192 C.ar    
  19 C19           -3.9809    -4.1213     2.4378 C.ar    
  20 C20           -3.1301    -3.2838     3.1620 C.ar    
  21 C21           -3.6416    -2.4803     4.1415 C.ar    
  22 C22           -5.0009    -2.4901     4.4233 C.ar    
  23 C23           -5.8576    -3.3110     3.7236 C.ar    
  24 C24           -0.2961    -7.7896    -0.0761 C.2     
  25 O25           -1.1653    -8.5123    -0.5208 O.2     
  26 C26            1.1268    -7.8245    -0.4805 C.2     
  27 C27            1.8094    -6.8822     0.2159 C.2     
  28 C28            3.1921    -6.5974     0.1189 C.2     
  29 O29            3.8688    -7.1534    -0.7214 O.2     
  30 C30            3.8244    -5.6036     1.0588 C.3     
  31 O31            1.6607    -8.6614    -1.3978 O.3     
  32 H32            1.0102     1.6418    -1.5485 H       
  33 H33           -0.4021     1.4116    -2.6072 H       
  34 H34           -0.6331     1.7134    -0.8683 H       
  35 H35            1.4221    -1.7116     2.1269 H       
  36 H36            1.5395    -4.1091     2.6624 H       
  37 H37           -0.0863    -5.0642    -1.1649 H       
  38 H38           -0.2183    -2.6715    -1.7187 H       
  39 H39            1.0900    -6.3273     2.1601 H       
  40 H40           -2.3844    -7.3937     1.5509 H       
  41 H41           -1.5691    -6.1334     2.5075 H       
  42 H42           -1.8453    -4.5327     0.6340 H       
  43 H43           -2.6606    -5.7931    -0.3226 H       
  44 H44           -5.1722    -6.3351     0.2891 H       
  45 H45           -6.8853    -5.2581     1.8362 H       
  46 H46           -2.0714    -3.2714     2.9487 H       
  47 H47           -2.9831    -1.8327     4.7013 H       
  48 H48           -5.3903    -1.8496     5.2009 H       
  49 H49           -6.9136    -3.3114     3.9503 H       
  50 H50            4.0971    -6.1046     1.9876 H       
  51 H51            4.7178    -5.1838     0.5965 H       
  52 H52            3.1156    -4.8034     1.2722 H       
  53 H53            1.0216    -9.2686    -1.7954 H       
@<TRIPOS>BOND
   1    1    2 1
   2    1   32 1
   3    1   33 1
   4    1   34 1
   5    2    3 1
   6    3    4 2
   7    3    5 1
   8    5    6 ar
   9    5   10 ar
  10    6    7 ar
  11    6   35 1
  12    7    8 ar
  13    7   36 1
  14    8    9 ar
  15    8   11 1
  16    9   10 ar
  17    9   37 1
  18   10   38 1
  19   11   12 1
  20   11   27 1
  21   11   39 1
  22   12   13 1
  23   12   24 am
  24   13   14 1
  25   13   40 1
  26   13   41 1
  27   14   15 1
  28   14   42 1
  29   14   43 1
  30   15   16 2
  31   15   19 1
  32   16   17 1
  33   16   44 1
  34   17   18 1
  35   17   45 1
  36   18   19 ar
  37   18   23 ar
  38   19   20 ar
  39   20   21 ar
  40   20   46 1
  41   21   22 ar
  42   21   47 1
  43   22   23 ar
  44   22   48 1
  45   23   49 1
  46   24   25 2
  47   24   26 1
  48   26   27 2
  49   26   31 1
  50   27   28 1
  51   28   29 2
  52   28   30 1
  53   30   50 1
  54   30   51 1
  55   30   52 1
  56   31   53 1

#	End of record

