#	Name: ASD10420113
#	Creating user name:	WinNT
#	Creation time:	15. 06. 2019 21:27

#	Modifying user name:	WinNT
#	Modification time:	15. 06. 2019 21:27

#	Program:	/corina/corina34_cracker 3.40 0067  02.08.2006

@<TRIPOS>MOLECULE
ASD10420113
  65   69    0    0    0
SMALL
NO_CHARGES


@<TRIPOS>ATOM
   1 N1             0.1429     0.3545    -0.5297 N.pl3   
   2 C2            -0.1831    -0.9442    -0.8149 C.2     
   3 C3            -1.5822    -1.0747    -0.7211 C.2     
   4 C4            -2.0927     0.1746    -0.3728 C.2     
   5 C5            -1.0223     1.0468    -0.2518 C.2     
   6 C6             1.4468     0.7581    -0.5488 C.2     
   7 C7             2.4372    -0.1074    -0.8476 C.2     
   8 C8             2.1382    -1.4504    -1.1465 C.2     
   9 C9             0.8227    -1.8678    -1.1282 C.2     
  10 C10           -1.1077     2.4172     0.0896 C.2     
  11 O11           -1.0774     2.7566     1.2593 O.2     
  12 C12           -3.5455     0.5144    -0.1608 C.3     
  13 C13           -3.9221     0.2379     1.2720 C.ar    
  14 C14           -4.1004     1.2869     2.1541 C.ar    
  15 C15           -4.0945    -1.0643     1.7020 C.ar    
  16 C16           -4.4400    -1.3195     3.0163 C.ar    
  17 C17           -4.6138    -0.2727     3.9012 C.ar    
  18 C18           -2.3656    -2.3100    -0.9500 C.ar    
  19 C19           -2.2113    -3.4050    -0.0993 C.ar    
  20 C20           -2.9443    -4.5533    -0.3180 C.ar    
  21 C21           -3.8304    -4.6205    -1.3784 C.ar    
  22 C22           -3.9879    -3.5379    -2.2255 C.ar    
  23 C23           -3.2654    -2.3818    -2.0138 C.ar    
  24 C24           -3.9189     2.7069     1.6833 C.3     
  25 C25           -4.4464     1.0327     3.4702 C.ar    
  26 F26           -4.6156     2.0570     4.3347 F       
  27 O27            3.1315    -2.3241    -1.4479 O.3     
  28 N28           -1.2226     3.3471    -0.8791 N.am    
  29 C29           -1.4113     4.7668    -0.5442 C.3     
  30 C30           -0.3719     5.5904    -1.3120 C.3     
  31 N31           -0.4604     5.2728    -2.7435 N.3     
  32 C32           -0.1329     3.8636    -2.9979 C.3     
  33 C33           -1.1564     2.9700    -2.2992 C.3     
  34 C34           -2.8188     5.2080    -0.9507 C.3     
  35 C35           -1.2191     4.9700     0.9600 C.3     
  36 H36            1.6890     1.7858    -0.3217 H       
  37 H37            3.4628     0.2309    -0.8580 H       
  38 H38            0.5716    -2.8937    -1.3541 H       
  39 H39           -3.7080     1.5692    -0.3821 H       
  40 H40           -4.1614    -0.0948    -0.8224 H       
  41 H41           -3.9596    -1.8832     1.0108 H       
  42 H42           -4.5745    -2.3374     3.3512 H       
  43 H43           -4.8843    -0.4722     4.9276 H       
  44 H44           -1.5194    -3.3541     0.7283 H       
  45 H45           -2.8257    -5.4017     0.3398 H       
  46 H46           -4.4013    -5.5218    -1.5458 H       
  47 H47           -4.6812    -3.5965    -3.0515 H       
  48 H48           -3.3892    -1.5374    -2.6758 H       
  49 H49           -4.8676     3.0888     1.3061 H       
  50 H50           -3.5833     3.3256     2.5156 H       
  51 H51           -3.1744     2.7335     0.8876 H       
  52 H52            4.0163    -1.9341    -1.4331 H       
  53 H53           -0.5666     6.6524    -1.1623 H       
  54 H54            0.6261     5.3482    -0.9466 H       
  55 H55           -1.3718     5.5041    -3.1095 H       
  56 H56           -0.1542     3.6732    -4.0709 H       
  57 H57            0.8618     3.6454    -2.6091 H       
  58 H58           -0.8509     1.9274    -2.3874 H       
  59 H59           -2.1341     3.1083    -2.7607 H       
  60 H60           -3.5560     4.6089    -0.4161 H       
  61 H61           -2.9560     6.2602    -0.7014 H       
  62 H62           -2.9473     5.0692    -2.0242 H       
  63 H63           -0.2547     4.5611     1.2615 H       
  64 H64           -1.2500     6.0351     1.1896 H       
  65 H65           -2.0155     4.4585     1.5004 H       
@<TRIPOS>BOND
   1    1    2 1
   2    1    6 1
   3    1    5 1
   4    2    3 2
   5    2    9 1
   6    3    4 1
   7    3   18 1
   8    4    5 2
   9    4   12 1
  10    5   10 1
  11    6    7 2
  12    6   36 1
  13    7    8 1
  14    7   37 1
  15    8    9 2
  16    8   27 1
  17    9   38 1
  18   10   11 2
  19   10   28 am
  20   12   13 1
  21   12   39 1
  22   12   40 1
  23   13   14 ar
  24   13   15 ar
  25   14   24 1
  26   14   25 ar
  27   15   16 ar
  28   15   41 1
  29   16   17 ar
  30   16   42 1
  31   17   25 ar
  32   17   43 1
  33   18   19 ar
  34   18   23 ar
  35   19   20 ar
  36   19   44 1
  37   20   21 ar
  38   20   45 1
  39   21   22 ar
  40   21   46 1
  41   22   23 ar
  42   22   47 1
  43   23   48 1
  44   24   49 1
  45   24   50 1
  46   24   51 1
  47   25   26 1
  48   27   52 1
  49   28   29 1
  50   28   33 1
  51   29   30 1
  52   29   34 1
  53   29   35 1
  54   30   31 1
  55   30   53 1
  56   30   54 1
  57   31   32 1
  58   31   55 1
  59   32   33 1
  60   32   56 1
  61   32   57 1
  62   33   58 1
  63   33   59 1
  64   34   60 1
  65   34   61 1
  66   34   62 1
  67   35   63 1
  68   35   64 1
  69   35   65 1

#	End of record

