#	Name: ASD11860001
#	Creating user name:	WinNT
#	Creation time:	15. 06. 2019 21:29

#	Modifying user name:	WinNT
#	Modification time:	15. 06. 2019 21:29

#	Program:	/corina/corina34_cracker 3.40 0067  02.08.2006

@<TRIPOS>MOLECULE
ASD11860001
  17   16    0    0    0
SMALL
NO_CHARGES


@<TRIPOS>ATOM
   1 O1            -0.0161     1.3381     0.0094 O.3     
   2 C2             0.0021    -0.0041     0.0020 C.2     
   3 C3            -1.2926    -0.7753     0.0102 C.3     
   4 O4             1.0565    -0.5939    -0.0112 O.2     
   5 C5            -0.9927    -2.2755    -0.0007 C.3     
   6 C6            -2.0117    -4.5362    -0.0031 C.2     
   7 F7            -3.0343    -2.7367     1.1587 F       
   8 O8            -0.9592    -4.9450     0.4269 O.2     
   9 O9            -2.9179    -5.3983    -0.4904 O.3     
  10 C10           -2.3072    -3.0585     0.0077 C.3     
  11 F11           -3.0561    -2.7244    -1.1257 F       
  12 H12            0.8394     1.7888     0.0037 H       
  13 H13           -1.8592    -0.5245     0.9070 H       
  14 H14           -1.8762    -0.5150    -0.8728 H       
  15 H15           -0.4261    -2.5263    -0.8975 H       
  16 H16           -0.4091    -2.5358     0.8824 H       
  17 H17           -2.6834    -6.3363    -0.4763 H       
@<TRIPOS>BOND
   1    1    2 1
   2    1   12 1
   3    2    3 1
   4    2    4 2
   5    3    5 1
   6    3   13 1
   7    3   14 1
   8    5   10 1
   9    5   15 1
  10    5   16 1
  11    6    8 2
  12    6    9 1
  13    6   10 1
  14    7   10 1
  15    9   17 1
  16   10   11 1

#	End of record

