#	Name: ASD13680013
#	Creating user name:	WinNT
#	Creation time:	15. 06. 2019 21:30

#	Modifying user name:	WinNT
#	Modification time:	15. 06. 2019 21:30

#	Program:	/corina/corina34_cracker 3.40 0067  02.08.2006

@<TRIPOS>MOLECULE
ASD13680013
  58   61    0    0    0
SMALL
NO_CHARGES


@<TRIPOS>ATOM
   1 C1            -0.0190     1.5123     0.0242 C.3     
   2 C2             0.0025    -0.0020     0.0099 C.2     
   3 C3             0.7557    -0.7678     0.8048 C.2     
   4 C4             1.7297    -0.2381     1.8431 C.3     
   5 C5             1.8877     2.2211     1.4594 C.3     
   6 C6             1.4089     2.0561     0.0198 C.3     
   7 C7             1.2759     1.1320     2.3377 C.3     
   8 C8             0.5453    -2.1871     0.5659 C.2     
   9 C9            -0.3624    -2.4431    -0.4217 C.2     
  10 S10           -0.9725    -0.9922    -1.0681 S.3     
  11 N11           -0.7352    -3.7112    -0.8406 N.am    
  12 C12            1.2402    -3.2401     1.3122 C.2     
  13 O13            0.7535    -3.6825     2.3363 O.2     
  14 N14            2.4180    -3.7183     0.8644 N.am    
  15 C15            3.1308    -4.6404     1.6276 C.ar    
  16 N16            2.6956    -4.9695     2.8338 N.ar    
  17 C17            3.3404    -5.8380     3.5889 C.ar    
  18 C18            4.5015    -6.4386     3.1436 C.ar    
  19 C19            4.9914    -6.1208     1.8844 C.ar    
  20 C20            4.2896    -5.2108     1.1133 C.ar    
  21 C21           -1.6426    -3.8555    -1.8266 C.2     
  22 O22           -2.1330    -2.8762    -2.3475 O.2     
  23 C23           -2.0478    -5.2337    -2.2819 C.3     
  24 C24           -3.0824    -5.1169    -3.4030 C.3     
  25 C25           -3.4012    -6.5097    -3.9501 C.3     
  26 C26           -4.4358    -6.3928    -5.0712 C.3     
  27 C27           -5.7137    -5.7561    -4.5214 C.3     
  28 C28           -5.3950    -4.3632    -3.9744 C.3     
  29 C29           -4.3604    -4.4801    -2.8532 C.3     
  30 H30           -0.5467     1.8749    -0.8579 H       
  31 H31           -0.5349     1.8582     0.9199 H       
  32 H32            1.7728    -0.9299     2.6843 H       
  33 H33            2.7208    -0.1515     1.3979 H       
  34 H34            2.9745     2.1437     1.4907 H       
  35 H35            1.5846     3.1995     1.8320 H       
  36 H36            2.0626     1.3584    -0.5036 H       
  37 H37            1.4289     3.0227    -0.4836 H       
  38 H38            0.1888     1.1940     2.2885 H       
  39 H39            1.6010     1.2718     3.3687 H       
  40 H40           -0.3430    -4.4944    -0.4239 H       
  41 H41            2.7693    -3.4205     0.0107 H       
  42 H42            2.9554    -6.0822     4.5679 H       
  43 H43            5.0232    -7.1481     3.7689 H       
  44 H44            5.8975    -6.5764     1.5132 H       
  45 H45            4.6400    -4.9438     0.1272 H       
  46 H46           -1.1715    -5.7670    -2.6503 H       
  47 H47           -2.4803    -5.7806    -1.4440 H       
  48 H48           -2.6819    -4.4949    -4.2036 H       
  49 H49           -2.4907    -6.9633    -4.3417 H       
  50 H50           -3.8017    -7.1316    -3.1495 H       
  51 H51           -4.0353    -5.7709    -5.8717 H       
  52 H52           -4.6628    -7.3851    -5.4609 H       
  53 H53           -6.4508    -5.6728    -5.3201 H       
  54 H54           -6.1142    -6.3780    -3.7208 H       
  55 H55           -4.9945    -3.7413    -4.7749 H       
  56 H56           -6.3054    -3.9096    -3.5827 H       
  57 H57           -4.7609    -5.1020    -2.0527 H       
  58 H58           -4.1333    -3.4878    -2.4635 H       
@<TRIPOS>BOND
   1    1    2 1
   2    1    6 1
   3    1   30 1
   4    1   31 1
   5    2   10 1
   6    2    3 2
   7    3    4 1
   8    3    8 1
   9    4    7 1
  10    4   32 1
  11    4   33 1
  12    5    6 1
  13    5    7 1
  14    5   34 1
  15    5   35 1
  16    6   36 1
  17    6   37 1
  18    7   38 1
  19    7   39 1
  20    8    9 2
  21    8   12 1
  22    9   10 1
  23    9   11 1
  24   11   21 am
  25   11   40 1
  26   12   13 2
  27   12   14 am
  28   14   15 1
  29   14   41 1
  30   15   16 ar
  31   15   20 ar
  32   16   17 ar
  33   17   18 ar
  34   17   42 1
  35   18   19 ar
  36   18   43 1
  37   19   20 ar
  38   19   44 1
  39   20   45 1
  40   21   22 2
  41   21   23 1
  42   23   24 1
  43   23   46 1
  44   23   47 1
  45   24   25 1
  46   24   29 1
  47   24   48 1
  48   25   26 1
  49   25   49 1
  50   25   50 1
  51   26   27 1
  52   26   51 1
  53   26   52 1
  54   27   28 1
  55   27   53 1
  56   27   54 1
  57   28   29 1
  58   28   55 1
  59   28   56 1
  60   29   57 1
  61   29   58 1

#	End of record

