#	Name: ASD13490090
#	Creating user name:	WinNT
#	Creation time:	15. 06. 2019 21:30

#	Modifying user name:	WinNT
#	Modification time:	15. 06. 2019 21:30

#	Program:	/corina/corina34_cracker 3.40 0067  02.08.2006

@<TRIPOS>MOLECULE
ASD13490090
 105  111    0    0    0
SMALL
NO_CHARGES


@<TRIPOS>ATOM
   1 C1            -6.2398     9.3951     1.6463 C.3     
   2 C2            -7.2228     8.2222     1.6880 C.3     
   3 C3            -7.2006     7.4993     0.3377 C.3     
   4 C4            -5.7684     7.0470     0.0367 C.3     
   5 C5            -4.8416     8.2653     0.0587 C.3     
   6 O6            -4.9334     8.9091     1.3312 O.3     
   7 O7            -3.4948     7.8437    -0.1659 O.3     
   8 C8            -2.5600     8.9188    -0.2771 C.3     
   9 C9            -1.0551    10.4530     1.0134 C.3     
  10 C10           -2.0204     9.2660     1.1100 C.3     
  11 C11           -1.4135     8.5004    -1.2019 C.3     
  12 C12           -0.4527     9.6781    -1.3658 C.3     
  13 C13            0.0546    10.0915     0.0201 C.3     
  14 C14            0.7689     9.2671    -2.1943 C.3     
  15 C15            1.6322    10.5159    -2.3658 C.3     
  16 C16            2.3238    10.9096    -1.0640 C.3     
  17 C17            1.4209    10.7478     0.1585 C.3     
  18 C18            2.2280    13.0261     1.0580 C.3     
  19 C19            1.6175    11.6636     1.3727 C.3     
  20 C20            3.4252    12.7725     0.1630 C.3     
  21 C21            4.2754    13.9396    -0.2136 C.2     
  22 C22            2.8301    12.3219    -1.1976 C.3     
  23 C23            4.0701    12.5343    -2.0796 C.3     
  24 C24            4.6603    13.8055    -1.4836 C.2     
  25 C25            5.2002    16.2232    -0.2718 C.3     
  26 C26            4.6761    15.1124     0.6497 C.3     
  27 O27            5.4626    14.6923    -2.1252 O.3     
  28 C28            6.1739    15.6107    -1.2850 C.3     
  29 C29            6.7845    16.7208    -2.1428 C.3     
  30 C30            7.8766    16.1315    -3.0378 C.3     
  31 O31            8.5086    17.1818    -3.7724 O.3     
  32 C32            8.9163    15.4181    -2.1711 C.3     
  33 C33            7.2524    15.1312    -4.0127 C.3     
  34 O34           -8.0605     6.3592     0.3917 O.3     
  35 C35            1.2194     9.2614     0.5730 C.3     
  36 H36            3.1911    10.2626    -0.9328 H       
  37 C37            4.2875    11.6539     0.7513 C.3     
  38 H38            6.9658    15.0813    -0.7551 H       
  39 C39            5.6952    17.3495    -3.0141 C.3     
  40 C40            6.2235    18.6116    -3.6459 C.2     
  41 C41            3.4614    15.6183     1.4303 C.3     
  42 O42            3.6985    12.7340    -3.4449 O.3     
  43 C43            1.6933    13.2554    -1.6186 C.3     
  44 H44           -0.9649    10.5112    -1.8472 H       
  45 H45           -5.1396     8.9630    -0.7239 H       
  46 O46           -5.7221     6.4351    -1.2539 O.3     
  47 O47           -8.5402     8.7122     1.9457 O.3     
  48 C48           -0.6684     7.3130    -0.5889 C.3     
  49 C49           -1.9762     8.1045    -2.5684 C.3     
  50 O50            7.2866    19.0646    -3.2931 O.2     
  51 O51            5.5129    19.2326    -4.6005 O.3     
  52 H52           -6.5561    10.1076     0.8844 H       
  53 H53           -6.2198     9.8874     2.6186 H       
  54 H54           -6.9300     7.5295     2.4769 H       
  55 H55           -7.5409     8.1776    -0.4447 H       
  56 H56           -5.4462     6.3305     0.7923 H       
  57 H57           -3.0615     9.7913    -0.6958 H       
  58 H58           -1.5908    11.3344     0.6609 H       
  59 H59           -0.6205    10.6538     1.9926 H       
  60 H60           -2.8506     9.5272     1.7663 H       
  61 H61           -1.4942     8.4040     1.5199 H       
  62 H62            1.3317     8.4951    -1.6695 H       
  63 H63            0.4501     8.8985    -3.1693 H       
  64 H64            2.3893    10.3227    -3.1258 H       
  65 H65            1.0015    11.3411    -2.6966 H       
  66 H66            1.5001    13.6497     0.5389 H       
  67 H67            2.5478    13.5129     1.9792 H       
  68 H68            0.6479    11.8219     1.8447 H       
  69 H69            2.2640    11.1537     2.0870 H       
  70 H70            4.7645    11.6996    -1.9839 H       
  71 H71            4.3651    16.6834    -0.7999 H       
  72 H72            5.7178    16.9762     0.3224 H       
  73 H73            5.4601    14.8087     1.3433 H       
  74 H74            7.2174    17.4836    -1.4956 H       
  75 H75            9.2132    16.8804    -4.3621 H       
  76 H76            8.4472    14.5788    -1.6578 H       
  77 H77            9.7256    15.0515    -2.8025 H       
  78 H78            9.3167    16.1159    -1.4357 H       
  79 H79            6.4263    15.6065    -4.5416 H       
  80 H80            8.0048    14.8063    -4.7313 H       
  81 H81            6.8813    14.2682    -3.4599 H       
  82 H82           -8.9837     6.5718     0.5856 H       
  83 H83            1.2140     9.0306     1.6383 H       
  84 H84            1.6449     8.4946    -0.0743 H       
  85 H85            3.7000    10.7382     0.8164 H       
  86 H86            5.1523    11.4860     0.1093 H       
  87 H87            4.6247    11.9408     1.7474 H       
  88 H88            5.4038    16.6469    -3.7948 H       
  89 H89            4.8286    17.5872    -2.3972 H       
  90 H90            2.5881    15.6268     0.7780 H       
  91 H91            3.2747    14.9599     2.2787 H       
  92 H92            3.6558    16.6286     1.7903 H       
  93 H93            4.4478    12.8725    -4.0402 H       
  94 H94            2.0271    14.2904    -1.5454 H       
  95 H95            1.4069    13.0380    -2.6476 H       
  96 H96            0.8361    13.1028    -0.9629 H       
  97 H97           -4.8432     6.1241    -1.5104 H       
  98 H98           -8.6266     9.1862     2.7841 H       
  99 H99           -1.3569     6.4773    -0.4640 H       
 100 H100           0.1473     7.0164    -1.2482 H       
 101 H101          -0.2648     7.5995     0.3823 H       
 102 H102          -2.5024     8.9537    -3.0046 H       
 103 H103          -1.1590     7.8070    -3.2255 H       
 104 H104          -2.6682     7.2708    -2.4488 H       
 105 H105           5.8926    20.0387    -4.9760 H       
@<TRIPOS>BOND
   1    1    2 1
   2    1    6 1
   3    1   52 1
   4    1   53 1
   5    2    3 1
   6    2   47 1
   7    2   54 1
   8    3    4 1
   9    3   34 1
  10    3   55 1
  11    4    5 1
  12    4   46 1
  13    4   56 1
  14    5    6 1
  15    5    7 1
  16    5   45 1
  17    7    8 1
  18    8   11 1
  19    8   10 1
  20    8   57 1
  21    9   10 1
  22    9   13 1
  23    9   58 1
  24    9   59 1
  25   10   60 1
  26   10   61 1
  27   11   12 1
  28   11   48 1
  29   11   49 1
  30   12   14 1
  31   12   13 1
  32   12   44 1
  33   13   17 1
  34   13   35 1
  35   14   15 1
  36   14   62 1
  37   14   63 1
  38   15   16 1
  39   15   64 1
  40   15   65 1
  41   16   17 1
  42   16   36 1
  43   16   22 1
  44   17   19 1
  45   17   35 1
  46   18   19 1
  47   18   20 1
  48   18   66 1
  49   18   67 1
  50   19   68 1
  51   19   69 1
  52   20   22 1
  53   20   37 1
  54   20   21 1
  55   21   24 2
  56   21   26 1
  57   22   43 1
  58   22   23 1
  59   23   24 1
  60   23   42 1
  61   23   70 1
  62   24   27 1
  63   25   26 1
  64   25   28 1
  65   25   71 1
  66   25   72 1
  67   26   41 1
  68   26   73 1
  69   27   28 1
  70   28   29 1
  71   28   38 1
  72   29   30 1
  73   29   39 1
  74   29   74 1
  75   30   31 1
  76   30   32 1
  77   30   33 1
  78   31   75 1
  79   32   76 1
  80   32   77 1
  81   32   78 1
  82   33   79 1
  83   33   80 1
  84   33   81 1
  85   34   82 1
  86   35   83 1
  87   35   84 1
  88   37   85 1
  89   37   86 1
  90   37   87 1
  91   39   40 1
  92   39   88 1
  93   39   89 1
  94   40   50 2
  95   40   51 1
  96   41   90 1
  97   41   91 1
  98   41   92 1
  99   42   93 1
 100   43   94 1
 101   43   95 1
 102   43   96 1
 103   46   97 1
 104   47   98 1
 105   48   99 1
 106   48  100 1
 107   48  101 1
 108   49  102 1
 109   49  103 1
 110   49  104 1
 111   51  105 1

#	End of record

