#	Name: ASD14170010
#	Creating user name:	WinNT
#	Creation time:	15. 06. 2019 21:30

#	Modifying user name:	WinNT
#	Modification time:	15. 06. 2019 21:30

#	Program:	/corina/corina34_cracker 3.40 0067  02.08.2006

@<TRIPOS>MOLECULE
ASD14170010
  45   47    0    0    0
SMALL
NO_CHARGES


@<TRIPOS>ATOM
   1 C1             0.0795     1.3367     0.0304 C.2     
   2 C2             0.1523    -0.0508     0.2593 C.2     
   3 C3             1.4093    -0.4674    -0.1391 C.2     
   4 N4             2.0688     0.6231    -0.5900 N.pl3   
   5 N5             1.2191     1.7291    -0.4731 N.2     
   6 N6             1.9035    -1.7675    -0.0857 N.am    
   7 C7            -1.1111     2.2167     0.3119 C.3     
   8 F8            -1.0254     2.7138     1.6168 F       
   9 F9            -1.1270     3.2833    -0.5933 F       
  10 F10           -2.2860     1.4700     0.1735 F       
  11 C11           -0.9201    -0.9066     0.8235 C.ar    
  12 C12           -2.1104    -1.0892     0.1219 C.ar    
  13 C13           -3.1052    -1.8861     0.6506 C.ar    
  14 C14           -2.9222    -2.5041     1.8769 C.ar    
  15 C15           -1.7409    -2.3250     2.5780 C.ar    
  16 C16           -0.7381    -1.5349     2.0542 C.ar    
  17 F17           -3.8988    -3.2834     2.3907 F       
  18 C18            1.1408    -2.7961    -0.5060 C.2     
  19 N19            1.6581    -4.0394    -0.5627 N.am    
  20 O20           -0.0139    -2.6025    -0.8341 O.2     
  21 C21            0.9027    -5.0882    -1.1019 C.ar    
  22 C22            0.3042    -7.4100    -1.1404 C.ar    
  23 C23           -0.5895    -7.1610    -2.1683 C.ar    
  24 C24           -0.7339    -5.8773    -2.6670 C.ar    
  25 C25            0.0098    -4.8415    -2.1362 C.ar    
  26 C26            1.0498    -6.3770    -0.6069 C.ar    
  27 F27           -1.3179    -8.1728    -2.6889 F       
  28 C28            3.4378     0.6438    -1.1112 C.3     
  29 C29            3.4220     0.3013    -2.5786 C.2     
  30 O30            2.3706     0.0633    -3.1345 O.2     
  31 N31            4.5761     0.2594    -3.2733 N.am    
  32 H32            2.7968    -1.9332     0.2540 H       
  33 H33           -2.2541    -0.6076    -0.8340 H       
  34 H34           -4.0280    -2.0280     0.1078 H       
  35 H35           -1.6027    -2.8084     3.5339 H       
  36 H36            0.1845    -1.3999     2.5991 H       
  37 H37            2.5535    -4.2078    -0.2299 H       
  38 H38            0.4154    -8.4119    -0.7529 H       
  39 H39           -1.4313    -5.6852    -3.4690 H       
  40 H40           -0.1034    -3.8404    -2.5252 H       
  41 H41            1.7471    -6.5717     0.1946 H       
  42 H42            3.8636     1.6379    -0.9747 H       
  43 H43            4.0421    -0.0872    -0.5739 H       
  44 H44            5.4170     0.4497    -2.8288 H       
  45 H45            4.5659     0.0389    -4.2179 H       
@<TRIPOS>BOND
   1    1    2 1
   2    1    5 2
   3    1    7 1
   4    2    3 2
   5    2   11 1
   6    3    4 1
   7    3    6 1
   8    4    5 1
   9    4   28 1
  10    6   18 am
  11    6   32 1
  12    7    8 1
  13    7    9 1
  14    7   10 1
  15   11   12 ar
  16   11   16 ar
  17   12   13 ar
  18   12   33 1
  19   13   14 ar
  20   13   34 1
  21   14   15 ar
  22   14   17 1
  23   15   16 ar
  24   15   35 1
  25   16   36 1
  26   18   19 am
  27   18   20 2
  28   19   21 1
  29   19   37 1
  30   21   26 ar
  31   21   25 ar
  32   22   23 ar
  33   22   26 ar
  34   22   38 1
  35   23   24 ar
  36   23   27 1
  37   24   25 ar
  38   24   39 1
  39   25   40 1
  40   26   41 1
  41   28   29 1
  42   28   42 1
  43   28   43 1
  44   29   30 2
  45   29   31 am
  46   31   44 1
  47   31   45 1

#	End of record

