#	Name: ASD10610055
#	Creating user name:	WinNT
#	Creation time:	15. 06. 2019 21:27

#	Modifying user name:	WinNT
#	Modification time:	15. 06. 2019 21:27

#	Program:	/corina/corina34_cracker 3.40 0067  02.08.2006

@<TRIPOS>MOLECULE
ASD10610055
  55   58    0    0    0
SMALL
NO_CHARGES


@<TRIPOS>ATOM
   1 O1             0.2198     1.6417     0.0450 O.3     
   2 C2             0.0469     0.2203    -0.0231 C.3     
   3 C3             1.3891     0.0642     0.7022 C.3     
   4 C4             1.6371     1.4270     0.0440 C.3     
   5 C5             1.2969     0.1022     2.2059 C.2     
   6 O6             0.3615     0.6576     2.7422 O.2     
   7 N7             2.2537    -0.4810     2.9548 N.am    
   8 C8             2.2236    -0.3499     4.4136 C.3     
   9 C9             2.9061     0.9570     4.8224 C.3     
  10 C10            4.2884    -3.6511     6.1840 C.ar    
  11 C11            3.3058    -2.9747     6.9050 C.ar    
  12 C12            2.6409    -1.9088     6.3288 C.ar    
  13 C13            2.9510    -1.5130     5.0375 C.ar    
  14 C14            3.9252    -2.1817     4.3194 C.ar    
  15 C15            4.5949    -3.2477     4.8854 C.ar    
  16 C16            5.0096    -4.7913     6.7985 C.ar    
  17 C17            5.1246    -6.0078     6.1078 C.ar    
  18 C18            5.8055    -7.0725     6.6957 C.ar    
  19 C19            6.3629    -6.9260     7.9528 C.ar    
  20 C20            6.2482    -5.7253     8.6330 C.ar    
  21 C21            5.5810    -4.6589     8.0606 C.ar    
  22 N22            4.5548    -7.2377     4.0014 N.2     
  23 N23            3.9237    -6.9694     2.9102 N.pl3   
  24 N24            3.4947    -5.7565     2.9533 N.2     
  25 N25            3.8454    -5.2275     4.0762 N.2     
  26 C26            4.5245    -6.1597     4.7603 C.2     
  27 C27            3.7257    -7.8991     1.7955 C.3     
  28 F28            5.9204    -8.2470     6.0380 F       
  29 F29            1.6881    -1.2516     7.0255 F       
  30 Cl30           6.9522    -5.5565    10.2109 Cl      
  31 N31            2.2334    -1.0201     0.1945 N.am    
  32 C32            1.8248    -2.2998     0.3037 C.2     
  33 O33            0.7208    -2.5488     0.7397 O.2     
  34 C34            2.7398    -3.4213    -0.1160 C.3     
  35 F35            2.0989    -4.6478     0.0896 F       
  36 F36            3.0566    -3.2822    -1.4715 F       
  37 F37            3.9132    -3.3751     0.6443 F       
  38 H38           -0.8028    -0.1406     0.5565 H       
  39 H39            0.0574    -0.1686    -1.0413 H       
  40 H40            2.0629     1.3532    -0.9567 H       
  41 H41            2.1808     2.1234     0.6823 H       
  42 H42            2.9623    -0.9875     2.5278 H       
  43 H43            1.1890    -0.3423     4.7565 H       
  44 H44            3.9407     0.9493     4.4795 H       
  45 H45            2.3800     1.7982     4.3711 H       
  46 H46            2.8837     1.0545     5.9078 H       
  47 H47            3.0641    -3.2832     7.9114 H       
  48 H48            4.1624    -1.8694     3.3131 H       
  49 H49            5.3552    -3.7689     4.3226 H       
  50 H50            6.8901    -7.7523     8.4064 H       
  51 H51            5.4995    -3.7237     8.5946 H       
  52 H52            2.8002    -8.4549     1.9460 H       
  53 H53            3.6658    -7.3396     0.8620 H       
  54 H54            4.5637    -8.5946     1.7492 H       
  55 H55            3.0864    -0.8171    -0.2203 H       
@<TRIPOS>BOND
   1    1    2 1
   2    1    4 1
   3    2    3 1
   4    2   38 1
   5    2   39 1
   6    3    4 1
   7    3    5 1
   8    3   31 1
   9    4   40 1
  10    4   41 1
  11    5    6 2
  12    5    7 am
  13    7    8 1
  14    7   42 1
  15    8    9 1
  16    8   13 1
  17    8   43 1
  18    9   44 1
  19    9   45 1
  20    9   46 1
  21   10   11 ar
  22   10   15 ar
  23   10   16 1
  24   11   12 ar
  25   11   47 1
  26   12   13 ar
  27   12   29 1
  28   13   14 ar
  29   14   15 ar
  30   14   48 1
  31   15   49 1
  32   16   17 ar
  33   16   21 ar
  34   17   18 ar
  35   17   26 1
  36   18   19 ar
  37   18   28 1
  38   19   20 ar
  39   19   50 1
  40   20   21 ar
  41   20   30 1
  42   21   51 1
  43   22   23 1
  44   22   26 2
  45   23   24 1
  46   23   27 1
  47   24   25 2
  48   25   26 1
  49   27   52 1
  50   27   53 1
  51   27   54 1
  52   31   32 am
  53   31   55 1
  54   32   33 2
  55   32   34 1
  56   34   35 1
  57   34   36 1
  58   34   37 1

#	End of record

