#	Name: ASD10800049
#	Creating user name:	WinNT
#	Creation time:	15. 06. 2019 21:28

#	Modifying user name:	WinNT
#	Modification time:	15. 06. 2019 21:28

#	Program:	/corina/corina34_cracker 3.40 0067  02.08.2006

@<TRIPOS>MOLECULE
ASD10800049
  58   61    0    0    0
SMALL
NO_CHARGES


@<TRIPOS>ATOM
   1 C1             0.0248     1.2342     0.2022 C.ar    
   2 C2             0.1049    -0.1172     0.4503 C.ar    
   3 C3             1.3430    -0.7292     0.5467 C.ar    
   4 C4             2.4945     0.0205     0.3931 C.ar    
   5 C5             2.4169     1.3756     0.1447 C.ar    
   6 C6             1.1745     1.9985     0.0460 C.ar    
   7 C7             3.6783     2.1834    -0.0200 C.3     
   8 C8             4.0790     2.7842     1.3288 C.3     
   9 N9             4.7537     1.3158    -0.5069 N.pl3   
  10 C10            5.2685     3.6903     1.1417 C.ar    
  11 C11            5.0790     5.0308     0.8623 C.ar    
  12 C12            6.5491     3.1822     1.2550 C.ar    
  13 C13            7.6402     4.0134     1.0833 C.ar    
  14 C14            7.4507     5.3527     0.7979 C.ar    
  15 C15            6.1701     5.8620     0.6905 C.ar    
  16 C16            9.0363     3.4597     1.2079 C.3     
  17 C17            5.9635     7.3220     0.3794 C.3     
  18 C18            4.9100     1.1060    -1.8575 C.2     
  19 N19            5.8704     0.4430    -2.3941 N.2     
  20 S20            3.8146     1.7026    -3.1100 S.3     
  21 C21            4.7416     0.9971    -4.5109 C.3     
  22 C22            5.9255     0.2915    -3.8310 C.3     
  23 N23            0.8387     3.3312    -0.1950 N.am    
  24 C24           -0.4907     3.5255    -0.2138 C.2     
  25 C25           -1.1412     2.1815     0.0368 C.3     
  26 C26            1.8227     4.3964    -0.4031 C.3     
  27 C27           -2.0069     1.7741    -1.1571 C.3     
  28 C28           -1.9766     2.2209     1.3179 C.3     
  29 O29           -1.0622     4.5789    -0.4000 O.2     
  30 H30           -0.7968    -0.6994     0.5701 H       
  31 H31            1.4092    -1.7894     0.7417 H       
  32 H32            3.4602    -0.4571     0.4683 H       
  33 H33            3.5052     2.9852    -0.7378 H       
  34 H34            3.2452     3.3580     1.7331 H       
  35 H35            4.3380     1.9829     2.0209 H       
  36 H36            5.3555     0.8892     0.1230 H       
  37 H37            4.0785     5.4286     0.7778 H       
  38 H38            6.6971     2.1359     1.4780 H       
  39 H39            8.3032     6.0021     0.6641 H       
  40 H40            9.3776     3.1123     0.2327 H       
  41 H41            9.7056     4.2399     1.5704 H       
  42 H42            9.0353     2.6265     1.9105 H       
  43 H43            5.9127     7.4597    -0.7007 H       
  44 H44            5.0327     7.6620     0.8332 H       
  45 H45            6.7958     7.9003     0.7806 H       
  46 H46            4.1291     0.2773    -5.0540 H       
  47 H47            5.0913     1.7859    -5.1769 H       
  48 H48            6.8570     0.7217    -4.1990 H       
  49 H49            5.9007    -0.7691    -4.0809 H       
  50 H50            2.0542     4.4747    -1.4654 H       
  51 H51            1.4137     5.3429    -0.0497 H       
  52 H52            2.7323     4.1641     0.1508 H       
  53 H53           -1.3905     1.7307    -2.0550 H       
  54 H54           -2.4458     0.7941    -0.9700 H       
  55 H55           -2.8013     2.5073    -1.2969 H       
  56 H56           -2.7706     2.9601     1.2114 H       
  57 H57           -2.4156     1.2392     1.4957 H       
  58 H58           -1.3388     2.4915     2.1594 H       
@<TRIPOS>BOND
   1    1    2 ar
   2    1    6 ar
   3    1   25 1
   4    2    3 ar
   5    2   30 1
   6    3    4 ar
   7    3   31 1
   8    4    5 ar
   9    4   32 1
  10    5    6 ar
  11    5    7 1
  12    6   23 1
  13    7    8 1
  14    7    9 1
  15    7   33 1
  16    8   10 1
  17    8   34 1
  18    8   35 1
  19    9   18 1
  20    9   36 1
  21   10   11 ar
  22   10   12 ar
  23   11   15 ar
  24   11   37 1
  25   12   13 ar
  26   12   38 1
  27   13   14 ar
  28   13   16 1
  29   14   15 ar
  30   14   39 1
  31   15   17 1
  32   16   40 1
  33   16   41 1
  34   16   42 1
  35   17   43 1
  36   17   44 1
  37   17   45 1
  38   18   19 2
  39   18   20 1
  40   19   22 1
  41   20   21 1
  42   21   22 1
  43   21   46 1
  44   21   47 1
  45   22   48 1
  46   22   49 1
  47   23   24 am
  48   23   26 1
  49   24   25 1
  50   24   29 2
  51   25   27 1
  52   25   28 1
  53   26   50 1
  54   26   51 1
  55   26   52 1
  56   27   53 1
  57   27   54 1
  58   27   55 1
  59   28   56 1
  60   28   57 1
  61   28   58 1

#	End of record

