#	Name: ASD14640018
#	Creating user name:	WinNT
#	Creation time:	15. 06. 2019 21:31

#	Modifying user name:	WinNT
#	Modification time:	15. 06. 2019 21:31

#	Program:	/corina/corina34_cracker 3.40 0067  02.08.2006

@<TRIPOS>MOLECULE
ASD14640018
  37   40    0    0    0
SMALL
NO_CHARGES


@<TRIPOS>ATOM
   1 N1            -0.0178     1.4601     0.0101 N.pl3   
   2 C2             0.0021    -0.0041     0.0020 C.3     
   3 C3             1.3919    -0.4730    -0.4435 C.3     
   4 C4             2.4668     0.2342     0.3863 C.3     
   5 C5             2.5200     1.7169    -0.0071 C.3     
   6 C6             0.7009     3.5243     0.0106 C.2     
   7 N7            -0.6460     3.5291     0.0202 N.2     
   8 C8            -1.0866     2.2902     0.0190 C.2     
   9 C9             1.1114     2.2533     0.0035 C.2     
  10 N10           -2.4160     1.9016     0.0253 N.pl3   
  11 C11            1.5072    -1.9854    -0.2430 C.3     
  12 C12            0.5368    -2.6887    -1.1566 C.ar    
  13 C13            0.8970    -2.9770    -2.4720 C.ar    
  14 C14           -0.6988    -3.0518    -0.6971 C.ar    
  15 C15           -1.5966    -3.7000    -1.5331 C.ar    
  16 C16           -1.2598    -3.9891    -2.8381 C.ar    
  17 C17            1.8398    -3.2581    -4.4916 C.2     
  18 C18            2.1008    -2.7483    -3.2802 C.2     
  19 C19           -0.0075    -3.6331    -3.3236 C.ar    
  20 O20            0.6004    -3.7786    -4.5179 O.3     
  21 H21           -0.2063    -0.3782     1.0044 H       
  22 H22           -0.7500    -0.3763    -0.6937 H       
  23 H23            1.5337    -0.2360    -1.4980 H       
  24 H24            2.2241     0.1474     1.4454 H       
  25 H25            3.4356    -0.2276     0.1958 H       
  26 H26            3.1290     2.2667     0.7105 H       
  27 H27            2.9451     1.8180    -1.0057 H       
  28 H28            1.3381     4.3963     0.0089 H       
  29 H29           -3.1172     2.5718     0.0315 H       
  30 H30           -2.6458     0.9592     0.0234 H       
  31 H31            2.5227    -2.3063    -0.4753 H       
  32 H32            1.2759    -2.2332     0.7929 H       
  33 H33           -0.9776    -2.8330     0.3232 H       
  34 H34           -2.5693    -3.9813    -1.1574 H       
  35 H35           -1.9658    -4.4947    -3.4803 H       
  36 H36            2.5254    -3.2512    -5.3261 H       
  37 H37            3.0132    -2.2657    -2.9625 H       
@<TRIPOS>BOND
   1    1    2 1
   2    1    9 1
   3    1    8 1
   4    2    3 1
   5    2   21 1
   6    2   22 1
   7    3    4 1
   8    3   11 1
   9    3   23 1
  10    4    5 1
  11    4   24 1
  12    4   25 1
  13    5    9 1
  14    5   26 1
  15    5   27 1
  16    6    7 1
  17    6    9 2
  18    6   28 1
  19    7    8 2
  20    8   10 1
  21   10   29 1
  22   10   30 1
  23   11   12 1
  24   11   31 1
  25   11   32 1
  26   12   14 ar
  27   12   13 ar
  28   13   19 ar
  29   13   18 1
  30   14   15 ar
  31   14   33 1
  32   15   16 ar
  33   15   34 1
  34   16   19 ar
  35   16   35 1
  36   17   18 2
  37   17   20 1
  38   17   36 1
  39   18   37 1
  40   19   20 1

#	End of record

