#	Name: ASD11920030
#	Creating user name:	WinNT
#	Creation time:	15. 06. 2019 21:29

#	Modifying user name:	WinNT
#	Modification time:	15. 06. 2019 21:29

#	Program:	/corina/corina34_cracker 3.40 0067  02.08.2006

@<TRIPOS>MOLECULE
ASD11920030
  35   36    0    0    0
SMALL
NO_CHARGES


@<TRIPOS>ATOM
   1 Cl1           -3.2771    -1.6022    -0.0260 Cl      
   2 Cl2            0.8839     1.8366     0.2047 Cl      
   3 C3            -1.0848    -0.0181     0.0901 C.ar    
   4 N4            -3.2925     2.5361     1.7327 N.am    
   5 C5            -1.5666    -1.3139     0.0415 C.ar    
   6 S6            -2.9735     1.9669     4.3074 S.2     
   7 C7            -0.6849    -2.3802     0.0472 C.ar    
   8 N8            -1.9262     0.8296     2.4808 N.2     
   9 C9             0.6771    -2.1508     0.1013 C.ar    
  10 C10            1.1591    -0.8563     0.1499 C.ar    
  11 N11           -4.4833     3.8700     3.2335 N.am    
  12 C12            0.2784     0.2108     0.1443 C.ar    
  13 N13           -6.6042     5.1026     9.5048 N.1     
  14 C14           -2.0444     1.1438     0.0776 C.3     
  15 C15           -2.4213     1.4991     1.4928 C.2     
  16 C16           -3.6296     2.8539     2.9984 C.2     
  17 C17           -4.9227     4.1253     4.5322 C.ar    
  18 C18           -5.0110     5.4362     4.9899 C.ar    
  19 C19           -5.4444     5.6919     6.2715 C.ar    
  20 C20           -5.7959     4.6326     7.1130 C.ar    
  21 C21           -5.7059     3.3168     6.6498 C.ar    
  22 C22           -5.2771     3.0688     5.3652 C.ar    
  23 C23           -6.2466     4.8947     8.4467 C.1     
  24 H24           -3.6643     3.0387     0.9910 H       
  25 H25           -1.0609    -3.3919     0.0096 H       
  26 H26           -1.3118     0.0983     2.3116 H       
  27 H27            1.3649    -2.9834     0.1061 H       
  28 H28            2.2234    -0.6776     0.1926 H       
  29 H29           -4.7920     4.4238     2.4993 H       
  30 H30           -1.5698     2.0019    -0.3983 H       
  31 H31           -2.9404     0.8691    -0.4790 H       
  32 H32           -4.7389     6.2541     4.3393 H       
  33 H33           -5.5123     6.7097     6.6262 H       
  34 H34           -5.9767     2.4959     7.2973 H       
  35 H35           -5.2116     2.0527     5.0051 H       
@<TRIPOS>BOND
   1    1    5 1
   2    2   12 1
   3    3    5 ar
   4    3   12 ar
   5    3   14 1
   6    4   15 1
   7    4   16 am
   8    4   24 1
   9    5    7 ar
  10    6   16 2
  11    7    9 ar
  12    7   25 1
  13    8   15 2
  14    8   26 1
  15    9   10 ar
  16    9   27 1
  17   10   12 ar
  18   10   28 1
  19   11   16 am
  20   11   17 1
  21   11   29 1
  22   13   23 3
  23   14   15 1
  24   14   30 1
  25   14   31 1
  26   17   18 ar
  27   17   22 ar
  28   18   19 ar
  29   18   32 1
  30   19   20 ar
  31   19   33 1
  32   20   21 ar
  33   20   23 1
  34   21   22 ar
  35   21   34 1
  36   22   35 1

#	End of record

