#	Name: ASD16020002
#	Creating user name:	WinNT
#	Creation time:	15. 06. 2019 21:31

#	Modifying user name:	WinNT
#	Modification time:	15. 06. 2019 21:31

#	Program:	/corina/corina34_cracker 3.40 0067  02.08.2006

@<TRIPOS>MOLECULE
ASD16020002
  66   70    0    0    0
SMALL
NO_CHARGES


@<TRIPOS>ATOM
   1 C1            -0.0187     1.5258     0.0104 C.3     
   2 C2             0.0021    -0.0041     0.0020 C.3     
   3 C3            -1.4319    -0.5376     0.0029 C.3     
   4 C4             0.7405    -0.5022    -1.2452 C.3     
   5 C5             2.1700    -0.0355    -1.1814 C.2     
   6 O6             2.7855     0.1472    -2.2125 O.2     
   7 C7             2.8050     0.1931     0.0542 C.2     
   8 C8             2.1678    -0.0200     1.2201 C.2     
   9 C9             0.7414    -0.5150     1.2403 C.3     
  10 O10            2.7863     0.1974     2.3934 O.3     
  11 C11            3.8189     1.0547     2.4627 C.2     
  12 C12            4.5555     1.3376     1.3726 C.2     
  13 C13            4.2292     0.6891     0.0508 C.3     
  14 C14            5.1621    -0.4718    -0.1800 C.ar    
  15 C15            5.1732    -1.5346     0.7044 C.ar    
  16 C16            6.0274    -2.5999     0.4951 C.ar    
  17 C17            6.8742    -2.6030    -0.6038 C.ar    
  18 O18            7.7151    -3.6501    -0.8121 O.3     
  19 C19            8.5586    -3.5856    -1.9638 C.3     
  20 C20            9.4145    -4.8242    -2.0296 C.ar    
  21 C21            9.2940    -5.7999    -1.0584 C.ar    
  22 C22           10.0792    -6.9363    -1.1187 C.ar    
  23 C23           10.9847    -7.0973    -2.1505 C.ar    
  24 C24           11.1058    -6.1218    -3.1225 C.ar    
  25 C25           10.3169    -4.9873    -3.0655 C.ar    
  26 Br26          10.4770    -3.6559    -4.3988 Br      
  27 C27            6.8608    -1.5357    -1.4899 C.ar    
  28 C28            6.0013    -0.4749    -1.2788 C.ar    
  29 C29            5.6350     2.2396     1.4304 C.2     
  30 O30            6.2883     2.4542     0.4292 O.2     
  31 C31            5.9926     2.9427     2.7122 C.3     
  32 C32            4.7303     3.0837     3.5695 C.3     
  33 C33            5.0916     3.7124     4.9168 C.3     
  34 C34            3.7135     3.9686     2.8456 C.3     
  35 C35            4.1377     1.6911     3.7945 C.3     
  36 H36            1.0039     1.9031     0.0027 H       
  37 H37           -0.5459     1.8868    -0.8726 H       
  38 H38           -0.5289     1.8773     0.9072 H       
  39 H39           -1.9539    -0.1779    -0.8838 H       
  40 H40           -1.4141    -1.6274    -0.0031 H       
  41 H41           -1.9492    -0.1876     0.8961 H       
  42 H42            0.7128    -1.5914    -1.2754 H       
  43 H43            0.2636    -0.0977    -2.1380 H       
  44 H44            0.2429    -0.1481     2.1375 H       
  45 H45            0.7353    -1.6049     1.2424 H       
  46 H46            4.3564     1.4172    -0.7503 H       
  47 H47            4.5138    -1.5317     1.5598 H       
  48 H48            6.0362    -3.4295     1.1866 H       
  49 H49            7.9435    -3.5208    -2.8614 H       
  50 H50            9.1979    -2.7053    -1.8971 H       
  51 H51            8.5867    -5.6745    -0.2519 H       
  52 H52            9.9853    -7.6983    -0.3591 H       
  53 H53           11.5978    -7.9851    -2.1972 H       
  54 H54           11.8135    -6.2476    -3.9286 H       
  55 H55            7.5193    -1.5356    -2.3459 H       
  56 H56            5.9875     0.3543    -1.9706 H       
  57 H57            6.7378     2.3594     3.2529 H       
  58 H58            6.3932     3.9311     2.4869 H       
  59 H59            5.5294     4.6970     4.7526 H       
  60 H60            4.1920     3.8115     5.5244 H       
  61 H61            5.8106     3.0765     5.4333 H       
  62 H62            3.4527     3.5150     1.8894 H       
  63 H63            2.8169     4.0672     3.4576 H       
  64 H64            4.1465     4.9541     2.6742 H       
  65 H65            3.2247     1.7762     4.3838 H       
  66 H66            4.8579     1.0720     4.3294 H       
@<TRIPOS>BOND
   1    1    2 1
   2    1   36 1
   3    1   37 1
   4    1   38 1
   5    2    9 1
   6    2    3 1
   7    2    4 1
   8    3   39 1
   9    3   40 1
  10    3   41 1
  11    4    5 1
  12    4   42 1
  13    4   43 1
  14    5    6 2
  15    5    7 1
  16    7   13 1
  17    7    8 2
  18    8    9 1
  19    8   10 1
  20    9   44 1
  21    9   45 1
  22   10   11 1
  23   11   35 1
  24   11   12 2
  25   12   13 1
  26   12   29 1
  27   13   14 1
  28   13   46 1
  29   14   28 ar
  30   14   15 ar
  31   15   16 ar
  32   15   47 1
  33   16   17 ar
  34   16   48 1
  35   17   18 1
  36   17   27 ar
  37   18   19 1
  38   19   20 1
  39   19   49 1
  40   19   50 1
  41   20   25 ar
  42   20   21 ar
  43   21   22 ar
  44   21   51 1
  45   22   23 ar
  46   22   52 1
  47   23   24 ar
  48   23   53 1
  49   24   25 ar
  50   24   54 1
  51   25   26 1
  52   27   28 ar
  53   27   55 1
  54   28   56 1
  55   29   30 2
  56   29   31 1
  57   31   32 1
  58   31   57 1
  59   31   58 1
  60   32   33 1
  61   32   34 1
  62   32   35 1
  63   33   59 1
  64   33   60 1
  65   33   61 1
  66   34   62 1
  67   34   63 1
  68   34   64 1
  69   35   65 1
  70   35   66 1

#	End of record

