#	Name: ASD14310001
#	Creating user name:	WinNT
#	Creation time:	15. 06. 2019 21:31

#	Modifying user name:	WinNT
#	Modification time:	15. 06. 2019 21:31

#	Program:	/corina/corina34_cracker 3.40 0067  02.08.2006

@<TRIPOS>MOLECULE
ASD14310001
  60   59    0    0    0
SMALL
NO_CHARGES


@<TRIPOS>ATOM
   1 N1            -0.0178     1.4648     0.0101 N.3     
   2 C2             0.0021    -0.0041     0.0020 C.3     
   3 C3             0.8260    -0.5095     1.1880 C.3     
   4 C4             0.8467    -2.0393     1.1796 C.3     
   5 C5             1.6706    -2.5447     2.3657 C.3     
   6 C6             1.6914    -4.0745     2.3572 C.3     
   7 C7             2.6019    -4.5706     3.4508 C.2     
   8 N8             3.9052    -4.2273     3.4501 N.am    
   9 C9             4.7903    -4.7095     4.5132 C.3     
  10 C10            6.2105    -4.7382     4.0100 C.2     
  11 O11            7.2006    -5.1490     4.8179 O.3     
  12 O12            6.4579    -4.3914     2.8794 O.2     
  13 O13            2.1618    -5.2788     4.3316 O.2     
  14 N14            0.3359    -4.5826     2.5824 N.am    
  15 C15           -0.0078    -5.8069     2.1359 C.2     
  16 C16           -1.4022    -6.3294     2.3675 C.3     
  17 O17            0.8051    -6.4880     1.5476 O.2     
  18 C18           -1.5282    -7.7306     1.7660 C.3     
  19 C19           -2.9439    -8.2611     2.0012 C.3     
  20 C20           -3.0329    -9.6860     1.5187 C.2     
  21 N21           -3.9036    -7.4352     1.2643 N.am    
  22 C22           -5.1841    -7.3590     1.6777 C.2     
  23 C23           -6.1714    -6.5094     0.9196 C.3     
  24 O24           -5.5419    -7.9742     2.6597 O.2     
  25 N25           -7.5379    -6.9434     1.2395 N.3     
  26 C26           -5.9951    -5.0432     1.3195 C.3     
  27 O27           -2.2406   -10.6271     2.0557 O.3     
  28 O28           -3.8175    -9.9814     0.6487 O.2     
  29 C29            4.6955    -3.7733     5.7196 C.3     
  30 H30            0.9191     1.8392     0.0032 H       
  31 H31           -0.5563     1.8234    -0.7642 H       
  32 H32           -1.0174    -0.3817     0.0806 H       
  33 H33            0.4494    -0.3563    -0.9275 H       
  34 H34            1.8454    -0.1318     1.1095 H       
  35 H35            0.3787    -0.1573     2.1176 H       
  36 H36           -0.1727    -2.4169     1.2582 H       
  37 H37            1.2940    -2.3915     0.2501 H       
  38 H38            2.6901    -2.1671     2.2871 H       
  39 H39            1.2233    -2.1925     3.2952 H       
  40 H40            2.0561    -4.4277     1.3927 H       
  41 H41            4.2571    -3.6609     2.7457 H       
  42 H42            4.4892    -5.7146     4.8087 H       
  43 H43            8.0951    -5.1500     4.4505 H       
  44 H44           -0.3143    -4.0378     3.0530 H       
  45 H45           -1.6000    -6.3747     3.4385 H       
  46 H46           -2.1232    -5.6640     1.8927 H       
  47 H47           -1.3304    -7.6853     0.6950 H       
  48 H48           -0.8073    -8.3960     2.2408 H       
  49 H49           -3.1740    -8.2229     3.0659 H       
  50 H50           -3.6174    -6.9432     0.4788 H       
  51 H51           -5.9971    -6.6175    -0.1509 H       
  52 H52           -7.6997    -7.8888     0.9263 H       
  53 H53           -7.7242    -6.8527     2.2270 H       
  54 H54           -4.9812    -4.7212     1.0822 H       
  55 H55           -6.7092    -4.4287     0.7712 H       
  56 H56           -6.1694    -4.9351     2.3900 H       
  57 H57           -2.3338   -11.5269     1.7138 H       
  58 H58            3.6682    -3.7526     6.0836 H       
  59 H59            5.3540    -4.1321     6.5106 H       
  60 H60            4.9966    -2.7683     5.4241 H       
@<TRIPOS>BOND
   1    1    2 1
   2    1   30 1
   3    1   31 1
   4    2    3 1
   5    2   32 1
   6    2   33 1
   7    3    4 1
   8    3   34 1
   9    3   35 1
  10    4    5 1
  11    4   36 1
  12    4   37 1
  13    5    6 1
  14    5   38 1
  15    5   39 1
  16    6    7 1
  17    6   14 1
  18    6   40 1
  19    7    8 am
  20    7   13 2
  21    8    9 1
  22    8   41 1
  23    9   10 1
  24    9   29 1
  25    9   42 1
  26   10   11 1
  27   10   12 2
  28   11   43 1
  29   14   15 am
  30   14   44 1
  31   15   16 1
  32   15   17 2
  33   16   18 1
  34   16   45 1
  35   16   46 1
  36   18   19 1
  37   18   47 1
  38   18   48 1
  39   19   20 1
  40   19   21 1
  41   19   49 1
  42   20   27 1
  43   20   28 2
  44   21   22 am
  45   21   50 1
  46   22   23 1
  47   22   24 2
  48   23   25 1
  49   23   26 1
  50   23   51 1
  51   25   52 1
  52   25   53 1
  53   26   54 1
  54   26   55 1
  55   26   56 1
  56   27   57 1
  57   29   58 1
  58   29   59 1
  59   29   60 1

#	End of record

