#	Name: ASD10160538
#	Creating user name:	WinNT
#	Creation time:	15. 06. 2019 21:26

#	Modifying user name:	WinNT
#	Modification time:	15. 06. 2019 21:26

#	Program:	/corina/corina34_cracker 3.40 0067  02.08.2006

@<TRIPOS>MOLECULE
ASD10160538
  47   49    0    0    0
SMALL
NO_CHARGES


@<TRIPOS>ATOM
   1 C1            -0.3991     1.1079    -1.9462 C.2     
   2 C2            -0.2790    -0.2703    -1.4400 C.ar    
   3 C3             0.9052    -0.9913    -1.6390 C.ar    
   4 C4             1.0122    -2.2820    -1.1622 C.ar    
   5 C5            -0.0520    -2.8649    -0.4865 C.ar    
   6 C6            -1.2305    -2.1515    -0.2873 C.ar    
   7 C7            -1.3451    -0.8612    -0.7541 C.ar    
   8 O8             0.5303     1.6211    -2.5375 O.2     
   9 O9            -1.5415     1.7976    -1.7583 O.3     
  10 F10            1.9404    -0.4246    -2.2967 F       
  11 O11            0.0574    -4.1342    -0.0193 O.3     
  12 C12            1.5466    -5.5241    -1.2587 C.ar    
  13 C13            1.2595    -4.7566    -0.1387 C.ar    
  14 C14            2.2203    -4.6333     0.8599 C.ar    
  15 C15            3.4312    -5.2861     0.6930 C.ar    
  16 C16            3.6434    -6.0325    -0.4508 C.ar    
  17 N17            2.7114    -6.1292    -1.3788 N.ar    
  18 C18            4.5043    -5.1830     1.7460 C.3     
  19 F19            4.0510    -4.3779     2.7965 F       
  20 F20            4.8040    -6.4599     2.2329 F       
  21 F21            5.6540    -4.6157     1.1862 F       
  22 C22            4.9577    -6.7451    -0.6401 C.3     
  23 C23            4.9209    -8.2675    -0.7878 C.3     
  24 C24            5.2227    -7.3881    -2.0029 C.3     
  25 Cl25          -2.5562    -2.8877     0.5579 Cl      
  26 C26           -1.5889     3.1503    -2.2838 C.3     
  27 C27           -1.3730     3.1170    -3.7982 C.3     
  28 C28           -2.9539     3.7693    -1.9767 C.3     
  29 C29           -0.4895     3.9901    -1.6304 C.3     
  30 H30            1.9244    -2.8396    -1.3150 H       
  31 H31           -2.2586    -0.3076    -0.5947 H       
  32 H32            0.8063    -5.6303    -2.0379 H       
  33 H33            2.0273    -4.0428     1.7434 H       
  34 H34            5.8079    -6.3108    -0.1143 H       
  35 H35            5.7473    -8.8348    -0.3594 H       
  36 H36            3.9462    -8.7537    -0.7480 H       
  37 H37            4.4464    -7.2957    -2.7625 H       
  38 H38            6.2475    -7.3768    -2.3740 H       
  39 H39           -2.1563     2.5187    -4.2637 H       
  40 H40           -1.4086     4.1325    -4.1927 H       
  41 H41           -0.4005     2.6760    -4.0170 H       
  42 H42           -3.1077     3.7930    -0.8979 H       
  43 H43           -2.9895     4.7848    -2.3712 H       
  44 H44           -3.7372     3.1710    -2.4423 H       
  45 H45            0.4831     3.5491    -1.8492 H       
  46 H46           -0.5250     5.0056    -2.0249 H       
  47 H47           -0.6432     4.0139    -0.5515 H       
@<TRIPOS>BOND
   1    1    2 1
   2    1    8 2
   3    1    9 1
   4    2    3 ar
   5    2    7 ar
   6    3    4 ar
   7    3   10 1
   8    4    5 ar
   9    4   30 1
  10    5    6 ar
  11    5   11 1
  12    6    7 ar
  13    6   25 1
  14    7   31 1
  15    9   26 1
  16   11   13 1
  17   12   13 ar
  18   12   17 ar
  19   12   32 1
  20   13   14 ar
  21   14   15 ar
  22   14   33 1
  23   15   16 ar
  24   15   18 1
  25   16   17 ar
  26   16   22 1
  27   18   19 1
  28   18   20 1
  29   18   21 1
  30   22   23 1
  31   22   24 1
  32   22   34 1
  33   23   24 1
  34   23   35 1
  35   23   36 1
  36   24   37 1
  37   24   38 1
  38   26   27 1
  39   26   29 1
  40   26   28 1
  41   27   39 1
  42   27   40 1
  43   27   41 1
  44   28   42 1
  45   28   43 1
  46   28   44 1
  47   29   45 1
  48   29   46 1
  49   29   47 1

#	End of record

