#	Name: ASD11000334
#	Creating user name:	WinNT
#	Creation time:	15. 06. 2019 21:29

#	Modifying user name:	WinNT
#	Modification time:	15. 06. 2019 21:29

#	Program:	/corina/corina34_cracker 3.40 0067  02.08.2006

@<TRIPOS>MOLECULE
ASD11000334
  47   50    0    0    0
SMALL
NO_CHARGES


@<TRIPOS>ATOM
   1 C1            -0.0195     1.3880    -0.0257 C.ar    
   2 C2             0.0011    -0.0028    -0.0136 C.ar    
   3 N3             1.1510    -0.6599    -0.0238 N.ar    
   4 C4             2.3088    -0.0278    -0.0458 C.ar    
   5 C5             2.3622     1.3519    -0.0588 C.ar    
   6 C6             1.1791     2.0784    -0.0489 C.ar    
   7 C7             3.6913     2.0619    -0.0830 C.3     
   8 O8             4.0932     2.2744    -1.4378 O.3     
   9 C9             5.2795     2.9079    -1.6375 C.ar    
  10 C10            6.0395     3.3158    -0.5443 C.ar    
  11 C11            7.2450     3.9601    -0.7281 C.ar    
  12 C12            7.7114     4.2071    -2.0172 C.ar    
  13 C13            6.9454     3.7954    -3.1235 C.ar    
  14 C14            5.7269     3.1383    -2.9230 C.ar    
  15 N15            8.9154     4.8511    -2.2234 N.am    
  16 C16            9.3670     5.0913    -3.4667 C.2     
  17 C17            8.6364     4.6990    -4.6086 C.2     
  18 C18            7.4475     4.0614    -4.4730 C.2     
  19 O19           10.4341     5.6626    -3.6114 O.2     
  20 N20           -1.1963    -0.7095     0.0097 N.pl3   
  21 C21           -1.1878    -2.1049    -0.1036 C.ar    
  22 C22           -2.1301    -2.8631     0.5789 C.ar    
  23 C23           -0.2407    -2.7313    -0.9030 C.ar    
  24 C24           -0.2334    -4.1078    -1.0146 C.ar    
  25 C25           -1.1720    -4.8646    -0.3287 C.ar    
  26 C26           -2.1213    -4.2394     0.4663 C.ar    
  27 O27           -1.1643    -6.2199    -0.4394 O.3     
  28 C28           -2.1594    -6.9364     0.2944 C.3     
  29 F29           -3.4308    -6.5320    -0.1267 F       
  30 F30           -2.0079    -8.3087     0.0682 F       
  31 F31           -2.0138    -6.6700     1.6601 F       
  32 F32            7.9725     4.3516     0.3408 F       
  33 H33           -0.9585     1.9216    -0.0215 H       
  34 H34            3.2267    -0.5968    -0.0535 H       
  35 H35            1.1942     3.1583    -0.0590 H       
  36 H36            3.5992     3.0227     0.4236 H       
  37 H37            4.4380     1.4527     0.4262 H       
  38 H38            5.6815     3.1262     0.4569 H       
  39 H39            5.1357     2.8201    -3.7690 H       
  40 H40            9.4428     5.1345    -1.4602 H       
  41 H41            9.0259     4.9070    -5.5942 H       
  42 H42            6.8822     3.7575    -5.3417 H       
  43 H43           -2.0373    -0.2357     0.1044 H       
  44 H44           -2.8693    -2.3765     1.1979 H       
  45 H45            0.4897    -2.1422    -1.4377 H       
  46 H46            0.5031    -4.5951    -1.6363 H       
  47 H47           -2.8518    -4.8294     0.9999 H       
@<TRIPOS>BOND
   1    1    2 ar
   2    1    6 ar
   3    1   33 1
   4    2    3 ar
   5    2   20 1
   6    3    4 ar
   7    4    5 ar
   8    4   34 1
   9    5    6 ar
  10    5    7 1
  11    6   35 1
  12    7    8 1
  13    7   36 1
  14    7   37 1
  15    8    9 1
  16    9   10 ar
  17    9   14 ar
  18   10   11 ar
  19   10   38 1
  20   11   12 ar
  21   11   32 1
  22   12   13 ar
  23   12   15 1
  24   13   14 ar
  25   13   18 1
  26   14   39 1
  27   15   16 am
  28   15   40 1
  29   16   17 1
  30   16   19 2
  31   17   18 2
  32   17   41 1
  33   18   42 1
  34   20   21 1
  35   20   43 1
  36   21   22 ar
  37   21   23 ar
  38   22   26 ar
  39   22   44 1
  40   23   24 ar
  41   23   45 1
  42   24   25 ar
  43   24   46 1
  44   25   26 ar
  45   25   27 1
  46   26   47 1
  47   27   28 1
  48   28   29 1
  49   28   30 1
  50   28   31 1

#	End of record

