#	Name: ASD13680014
#	Creating user name:	WinNT
#	Creation time:	15. 06. 2019 21:30

#	Modifying user name:	WinNT
#	Modification time:	15. 06. 2019 21:30

#	Program:	/corina/corina34_cracker 3.40 0067  02.08.2006

@<TRIPOS>MOLECULE
ASD13680014
  37   39    0    0    0
SMALL
NO_CHARGES


@<TRIPOS>ATOM
   1 C1            -0.0190     1.5124     0.0242 C.3     
   2 C2             0.0025    -0.0020     0.0099 C.2     
   3 C3             0.7552    -0.7670     0.8044 C.2     
   4 C4             1.7291    -0.2373     1.8428 C.3     
   5 C5             1.8873     2.2218     1.4595 C.3     
   6 C6             1.4087     2.0564     0.0198 C.3     
   7 C7             1.2753     1.1326     2.3377 C.3     
   8 C8             0.5450    -2.1877     0.5656 C.2     
   9 C9            -0.3636    -2.4431    -0.4232 C.2     
  10 S10           -0.9728    -0.9914    -1.0685 S.3     
  11 N11           -0.7359    -3.7065    -0.8414 N.pl3   
  12 C12            1.2390    -3.2394     1.3109 C.2     
  13 O13            0.7522    -3.6820     2.3352 O.2     
  14 N14            2.4168    -3.7176     0.8631 N.am    
  15 C15            3.1296    -4.6397     1.6262 C.ar    
  16 N16            2.6944    -4.9689     2.8321 N.ar    
  17 C17            3.3393    -5.8377     3.5873 C.ar    
  18 C18            4.4998    -6.4385     3.1420 C.ar    
  19 C19            4.9900    -6.1205     1.8824 C.ar    
  20 C20            4.2888    -5.2104     1.1117 C.ar    
  21 H21           -0.5468     1.8750    -0.8579 H       
  22 H22           -0.5350     1.8583     0.9199 H       
  23 H23            1.7722    -0.9292     2.6838 H       
  24 H24            2.7202    -0.1506     1.3975 H       
  25 H25            2.9741     2.1445     1.4910 H       
  26 H26            1.5840     3.2002     1.8319 H       
  27 H27            2.0626     1.3587    -0.5034 H       
  28 H28            1.4286     3.0229    -0.4838 H       
  29 H29            0.1882     1.1948     2.2884 H       
  30 H30            1.6004     1.2722     3.3687 H       
  31 H31           -0.3441    -4.4902    -0.4252 H       
  32 H32           -1.3890    -3.8096    -1.5512 H       
  33 H33            2.7682    -3.4197     0.0095 H       
  34 H34            2.9545    -6.0817     4.5664 H       
  35 H35            5.0213    -7.1483     3.7671 H       
  36 H36            5.8957    -6.5766     1.5109 H       
  37 H37            4.6390    -4.9436     0.1255 H       
@<TRIPOS>BOND
   1    1    2 1
   2    1    6 1
   3    1   21 1
   4    1   22 1
   5    2   10 1
   6    2    3 2
   7    3    4 1
   8    3    8 1
   9    4    7 1
  10    4   23 1
  11    4   24 1
  12    5    6 1
  13    5    7 1
  14    5   25 1
  15    5   26 1
  16    6   27 1
  17    6   28 1
  18    7   29 1
  19    7   30 1
  20    8    9 2
  21    8   12 1
  22    9   10 1
  23    9   11 1
  24   11   31 1
  25   11   32 1
  26   12   13 2
  27   12   14 am
  28   14   15 1
  29   14   33 1
  30   15   16 ar
  31   15   20 ar
  32   16   17 ar
  33   17   18 ar
  34   17   34 1
  35   18   19 ar
  36   18   35 1
  37   19   20 ar
  38   19   36 1
  39   20   37 1

#	End of record

