#	Name: ASD13010036
#	Creating user name:	WinNT
#	Creation time:	15. 06. 2019 21:30

#	Modifying user name:	WinNT
#	Modification time:	15. 06. 2019 21:30

#	Program:	/corina/corina34_cracker 3.40 0067  02.08.2006

@<TRIPOS>MOLECULE
ASD13010036
  49   52    0    0    0
SMALL
NO_CHARGES


@<TRIPOS>ATOM
   1 C1            -0.0233     1.3882    -0.0110 C.ar    
   2 C2             0.0008    -0.0029    -0.0019 C.ar    
   3 C3             1.2234    -0.6898    -0.0081 C.ar    
   4 C4             2.4003    -0.0045    -0.0234 C.ar    
   5 C5             1.1715     2.0951    -0.0267 C.ar    
   6 N6             1.4812     3.4349    -0.0385 N.pl3   
   7 C7             2.3948     1.3950    -0.0332 C.ar    
   8 C8             3.4479     2.4103    -0.0498 C.2     
   9 N9             2.8718     3.5828    -0.0523 N.2     
  10 C10            0.5570     4.4787    -0.0375 C.ar    
  11 O11            4.7861     2.1758    -0.0602 O.3     
  12 C12            5.6218     3.2477    -0.0752 C.ar    
  13 C13            6.0340     3.7913    -1.2842 C.ar    
  14 C14            6.0601     3.8046     1.1185 C.ar    
  15 C15            6.9101     4.8948     1.1000 C.ar    
  16 C16            7.3236     5.4305    -0.1057 C.ar    
  17 C17            6.8841     4.8815    -1.2962 C.ar    
  18 C18           -1.2807     6.5531    -0.0347 C.ar    
  19 C19           -1.5665     5.3647    -0.7137 C.ar    
  20 C20           -0.6516     4.3365    -0.7131 C.ar    
  21 C21            0.8425     5.6582     0.6439 C.ar    
  22 C22           -0.0679     6.6905     0.6474 C.ar    
  23 C23           -2.2585     7.6569    -0.0331 C.2     
  24 O24           -3.3140     7.5343    -0.6225 O.2     
  25 O25           -1.9815     8.8015     0.6218 O.3     
  26 Cl26           5.4832     3.1024    -2.7794 Cl      
  27 Cl27           5.5411     3.1330     2.6329 Cl      
  28 C28           -1.2675    -0.7598     0.0148 C.2     
  29 O29           -1.3535    -1.8151    -0.5826 O.2     
  30 N30           -2.3295    -0.2806     0.6923 N.am    
  31 C31           -3.6223    -0.9643     0.6067 C.3     
  32 C32           -2.1909     0.9241     1.5144 C.3     
  33 H33           -0.9660     1.9151    -0.0104 H       
  34 H34            1.2318    -1.7697    -0.0002 H       
  35 H35            3.3376    -0.5410    -0.0277 H       
  36 H36            7.2513     5.3287     2.0283 H       
  37 H37            7.9876     6.2821    -0.1177 H       
  38 H38            7.2055     5.3047    -2.2365 H       
  39 H39           -2.5025     5.2552    -1.2413 H       
  40 H40           -0.8715     3.4185    -1.2377 H       
  41 H41            1.7793     5.7635     1.1709 H       
  42 H42            0.1560     7.6070     1.1729 H       
  43 H43           -2.6532     9.4966     0.5944 H       
  44 H44           -3.6892    -1.7149     1.3942 H       
  45 H45           -4.4261    -0.2381     0.7277 H       
  46 H46           -3.7135    -1.4485    -0.3656 H       
  47 H47           -2.3281     1.8074     0.8907 H       
  48 H48           -2.9443     0.9150     2.3021 H       
  49 H49           -1.1974     0.9462     1.9621 H       
@<TRIPOS>BOND
   1    1    2 ar
   2    1    5 ar
   3    1   33 1
   4    2    3 ar
   5    2   28 1
   6    3    4 ar
   7    3   34 1
   8    4    7 ar
   9    4   35 1
  10    5    7 ar
  11    5    6 1
  12    6    9 1
  13    6   10 1
  14    7    8 1
  15    8    9 2
  16    8   11 1
  17   10   21 ar
  18   10   20 ar
  19   11   12 1
  20   12   14 ar
  21   12   13 ar
  22   13   17 ar
  23   13   26 1
  24   14   15 ar
  25   14   27 1
  26   15   16 ar
  27   15   36 1
  28   16   17 ar
  29   16   37 1
  30   17   38 1
  31   18   19 ar
  32   18   22 ar
  33   18   23 1
  34   19   20 ar
  35   19   39 1
  36   20   40 1
  37   21   22 ar
  38   21   41 1
  39   22   42 1
  40   23   24 2
  41   23   25 1
  42   25   43 1
  43   28   29 2
  44   28   30 am
  45   30   31 1
  46   30   32 1
  47   31   44 1
  48   31   45 1
  49   31   46 1
  50   32   47 1
  51   32   48 1
  52   32   49 1

#	End of record

