#	Name: ASD13390012
#	Creating user name:	WinNT
#	Creation time:	15. 06. 2019 21:30

#	Modifying user name:	WinNT
#	Modification time:	15. 06. 2019 21:30

#	Program:	/corina/corina34_cracker 3.40 0067  02.08.2006

@<TRIPOS>MOLECULE
ASD13390012
  25   24    0    0    0
SMALL
NO_CHARGES


@<TRIPOS>ATOM
   1 C1            -0.0166     1.3750     0.0096 C.ar    
   2 C2             0.0021    -0.0041     0.0020 C.ar    
   3 C3             1.2232    -0.6838    -0.0133 C.ar    
   4 C4             2.4221     0.0451    -0.0208 C.ar    
   5 C5             2.3840     1.4288    -0.0130 C.ar    
   6 C6             1.1690     2.0893     0.0021 C.ar    
   7 C7             1.2513    -2.1546    -0.0210 C.2     
   8 N8             2.3937    -2.7853    -0.0352 N.2     
   9 N9             2.4205    -4.1861    -0.0425 N.2     
  10 C10            3.5735    -4.8227    -0.0570 C.2     
  11 N11            4.7485    -4.1140    -0.0648 N.pl3   
  12 N12            3.5997    -6.1946    -0.0641 N.pl3   
  13 O13            3.6151    -0.6043    -0.0352 O.3     
  14 H14           -0.9605     1.8999     0.0169 H       
  15 H15           -0.9252    -0.5577     0.0082 H       
  16 H16            3.3046     1.9935    -0.0187 H       
  17 H17            1.1451     3.1690     0.0081 H       
  18 H18            0.3265    -2.7124    -0.0148 H       
  19 H19            4.7300    -3.1441    -0.0597 H       
  20 H20            5.5976    -4.5828    -0.0754 H       
  21 H21            2.7692    -6.6956    -0.0586 H       
  22 H22            4.4489    -6.6634    -0.0747 H       
  23 H23            3.9523    -0.7879    -0.9227 H       
  24 Cl24          10.5976     8.1690     5.0169 Cl      
  25 H25           10.5976     9.5390     5.0169 H       
@<TRIPOS>BOND
   1    1    2 ar
   2    1    6 ar
   3    1   14 1
   4    2    3 ar
   5    2   15 1
   6    3    4 ar
   7    3    7 1
   8    4    5 ar
   9    4   13 1
  10    5    6 ar
  11    5   16 1
  12    6   17 1
  13    7    8 2
  14    7   18 1
  15    8    9 1
  16    9   10 2
  17   10   11 1
  18   10   12 1
  19   11   19 1
  20   11   20 1
  21   12   21 1
  22   12   22 1
  23   13   23 1
  24   24   25 1

#	End of record

