#	Name: ASD11000338
#	Creating user name:	WinNT
#	Creation time:	15. 06. 2019 21:29

#	Modifying user name:	WinNT
#	Modification time:	15. 06. 2019 21:29

#	Program:	/corina/corina34_cracker 3.40 0067  02.08.2006

@<TRIPOS>MOLECULE
ASD11000338
  42   44    0    0    0
SMALL
NO_CHARGES


@<TRIPOS>ATOM
   1 C1            -0.0195     1.3880    -0.0257 C.ar    
   2 C2             0.0011    -0.0028    -0.0136 C.ar    
   3 N3             1.1510    -0.6599    -0.0238 N.ar    
   4 C4             2.3088    -0.0278    -0.0458 C.ar    
   5 C5             2.3622     1.3519    -0.0588 C.ar    
   6 C6             1.1791     2.0784    -0.0489 C.ar    
   7 C7             3.6913     2.0619    -0.0830 C.3     
   8 O8             4.0932     2.2744    -1.4378 O.3     
   9 C9             5.2797     2.9080    -1.6376 C.ar    
  10 C10            5.7300     3.1464    -2.9276 C.ar    
  11 C11            6.9352     3.7899    -3.1305 C.ar    
  12 C12            7.6950     4.1981    -2.0443 C.ar    
  13 C13            7.2443     3.9606    -0.7543 C.ar    
  14 C14            6.0369     3.3209    -0.5514 C.ar    
  15 O15            8.8819     4.8309    -2.2441 O.3     
  16 N16           -1.1963    -0.7095     0.0097 N.pl3   
  17 C17           -1.1878    -2.1049    -0.1036 C.ar    
  18 C18           -2.1301    -2.8631     0.5789 C.ar    
  19 C19           -0.2407    -2.7313    -0.9030 C.ar    
  20 C20           -0.2334    -4.1078    -1.0146 C.ar    
  21 C21           -1.1720    -4.8646    -0.3287 C.ar    
  22 C22           -2.1213    -4.2394     0.4663 C.ar    
  23 O23           -1.1643    -6.2199    -0.4394 O.3     
  24 C24           -2.1594    -6.9364     0.2944 C.3     
  25 F25           -2.0138    -6.6700     1.6601 F       
  26 F26           -3.4308    -6.5320    -0.1267 F       
  27 H27           -0.9585     1.9216    -0.0215 H       
  28 H28            3.2267    -0.5968    -0.0535 H       
  29 H29            1.1942     3.1583    -0.0590 H       
  30 H30            3.5992     3.0227     0.4236 H       
  31 H31            4.4380     1.4527     0.4262 H       
  32 H32            5.1384     2.8285    -3.7734 H       
  33 H33            7.2862     3.9749    -4.1350 H       
  34 H34            7.8358     4.2784     0.0915 H       
  35 H35            5.6860     3.1359     0.4531 H       
  36 H36            8.8094     5.7933    -2.3040 H       
  37 H37           -2.0373    -0.2357     0.1044 H       
  38 H38           -2.8693    -2.3765     1.1979 H       
  39 H39            0.4897    -2.1422    -1.4377 H       
  40 H40            0.5031    -4.5951    -1.6363 H       
  41 H41           -2.8518    -4.8294     0.9999 H       
  42 H42           -2.0413    -8.0056     0.1182 H       
@<TRIPOS>BOND
   1    1    2 ar
   2    1    6 ar
   3    1   27 1
   4    2    3 ar
   5    2   16 1
   6    3    4 ar
   7    4    5 ar
   8    4   28 1
   9    5    6 ar
  10    5    7 1
  11    6   29 1
  12    7    8 1
  13    7   30 1
  14    7   31 1
  15    8    9 1
  16    9   10 ar
  17    9   14 ar
  18   10   11 ar
  19   10   32 1
  20   11   12 ar
  21   11   33 1
  22   12   13 ar
  23   12   15 1
  24   13   14 ar
  25   13   34 1
  26   14   35 1
  27   15   36 1
  28   16   17 1
  29   16   37 1
  30   17   18 ar
  31   17   19 ar
  32   18   22 ar
  33   18   38 1
  34   19   20 ar
  35   19   39 1
  36   20   21 ar
  37   20   40 1
  38   21   22 ar
  39   21   23 1
  40   22   41 1
  41   23   24 1
  42   24   25 1
  43   24   26 1
  44   24   42 1

#	End of record

