#	Name: ASD11820004
#	Creating user name:	WinNT
#	Creation time:	15. 06. 2019 21:29

#	Modifying user name:	WinNT
#	Modification time:	15. 06. 2019 21:29

#	Program:	/corina/corina34_cracker 3.40 0067  02.08.2006

@<TRIPOS>MOLECULE
ASD11820004
  34   33    0    0    0
SMALL
NO_CHARGES


@<TRIPOS>ATOM
   1 C1            -0.0187     1.5258     0.0104 C.3     
   2 C2             0.0021    -0.0041     0.0020 C.3     
   3 C3             0.7182    -0.4975    -1.2568 C.3     
   4 C4             0.7390    -2.0273    -1.2652 C.3     
   5 C5             1.4551    -2.5207    -2.5240 C.3     
   6 C6             1.4758    -4.0506    -2.5324 C.3     
   7 C7             2.1920    -4.5440    -3.7912 C.3     
   8 C8             2.2127    -6.0738    -3.7996 C.3     
   9 C9             2.9289    -6.5673    -5.0584 C.3     
  10 C10            2.9496    -8.0971    -5.0668 C.3     
  11 N11            3.6372    -8.5708    -6.2755 N.3     
  12 H12            1.0039     1.9031     0.0027 H       
  13 H13           -0.5459     1.8868    -0.8726 H       
  14 H14           -0.5289     1.8773     0.9072 H       
  15 H15            0.5293    -0.3651     0.8851 H       
  16 H16           -1.0205    -0.3814     0.0098 H       
  17 H17            0.1910    -0.1364    -2.1398 H       
  18 H18            1.7408    -0.1202    -1.2645 H       
  19 H19            1.2661    -2.3884    -0.3821 H       
  20 H20           -0.2836    -2.4046    -1.2575 H       
  21 H21            0.9279    -2.1597    -3.4071 H       
  22 H22            2.4777    -2.1435    -2.5317 H       
  23 H23            2.0030    -4.4117    -1.6494 H       
  24 H24            0.4533    -4.4279    -2.5247 H       
  25 H25            1.6648    -4.1829    -4.6743 H       
  26 H26            3.2146    -4.1667    -3.7990 H       
  27 H27            2.7399    -6.4349    -2.9166 H       
  28 H28            1.1901    -6.4511    -3.7919 H       
  29 H29            2.4017    -6.2062    -5.9415 H       
  30 H30            3.9515    -6.1900    -5.0662 H       
  31 H31            3.4768    -8.4582    -4.1838 H       
  32 H32            1.9270    -8.4744    -5.0591 H       
  33 H33            4.5663    -8.1823    -6.3387 H       
  34 H34            3.6641    -9.5791    -6.3044 H       
@<TRIPOS>BOND
   1    1    2 1
   2    1   12 1
   3    1   13 1
   4    1   14 1
   5    2    3 1
   6    2   15 1
   7    2   16 1
   8    3    4 1
   9    3   17 1
  10    3   18 1
  11    4    5 1
  12    4   19 1
  13    4   20 1
  14    5    6 1
  15    5   21 1
  16    5   22 1
  17    6    7 1
  18    6   23 1
  19    6   24 1
  20    7    8 1
  21    7   25 1
  22    7   26 1
  23    8    9 1
  24    8   27 1
  25    8   28 1
  26    9   10 1
  27    9   29 1
  28    9   30 1
  29   10   11 1
  30   10   31 1
  31   10   32 1
  32   11   33 1
  33   11   34 1

#	End of record

