#	Name: ASD13010025
#	Creating user name:	WinNT
#	Creation time:	15. 06. 2019 21:30

#	Modifying user name:	WinNT
#	Modification time:	15. 06. 2019 21:30

#	Program:	/corina/corina34_cracker 3.40 0067  02.08.2006

@<TRIPOS>MOLECULE
ASD13010025
  56   60    0    0    0
SMALL
NO_CHARGES


@<TRIPOS>ATOM
   1 C1            -0.0164     1.3585     0.0095 C.ar    
   2 C2             0.0021    -0.0041     0.0020 C.ar    
   3 C3             1.2186    -0.7023    -0.0129 C.ar    
   4 C4             2.4230    -0.0063    -0.0206 C.ar    
   5 C5             1.1791     2.0759     0.0019 C.ar    
   6 N6             1.4761     3.4149     0.0058 N.pl3   
   7 C7             2.4085     1.3864    -0.0134 C.ar    
   8 C8             3.4552     2.4132    -0.0180 C.2     
   9 N9             2.8645     3.5798    -0.0068 N.2     
  10 C10            0.5411     4.4485     0.0197 C.ar    
  11 S11            5.1937     2.1271    -0.0354 S.3     
  12 C12            5.8636     3.7568    -0.0336 C.ar    
  13 C13            6.1123     4.4094    -1.2357 C.ar    
  14 C14            6.1397     4.3955     1.1700 C.ar    
  15 C15            6.6652     5.6737     1.1672 C.ar    
  16 C16            6.9164     6.3174    -0.0307 C.ar    
  17 C17            6.6378     5.6876    -1.2301 C.ar    
  18 C18           -1.3179     6.5036     0.0473 C.ar    
  19 C19           -1.5918     5.3202    -0.6454 C.ar    
  20 C20           -0.6664     4.3016    -0.6570 C.ar    
  21 C21            0.8146     5.6229     0.7150 C.ar    
  22 C22           -0.1063     6.6455     0.7308 C.ar    
  23 C23           -2.3070     7.5970     0.0620 C.2     
  24 O24           -3.3615     7.4703    -0.5284 O.2     
  25 O25           -2.0415     8.7368     0.7300 O.3     
  26 C26            1.2207    -2.1786    -0.0198 C.2     
  27 O27            2.2744    -2.7850    -0.0327 O.2     
  28 N28            0.0545    -2.8542    -0.0119 N.am    
  29 C29            0.0566    -4.3192    -0.0188 C.3     
  30 Cl30           5.7635     3.6197    -2.7418 Cl      
  31 Cl31           5.8242     3.5887     2.6744 Cl      
  32 C32           -1.3634    -4.8236    -0.0077 C.ar    
  33 C33           -2.0261    -5.0494    -1.1996 C.ar    
  34 C34           -3.3287    -5.5120    -1.1894 C.ar    
  35 C35           -3.9684    -5.7494     0.0128 C.ar    
  36 C36           -3.3054    -5.5245     1.2047 C.ar    
  37 C37           -2.0014    -5.0660     1.1945 C.ar    
  38 H38           -0.9598     1.8842     0.0168 H       
  39 H39           -0.9288    -0.5516     0.0079 H       
  40 H40            3.3611    -0.5413    -0.0317 H       
  41 H41            6.8795     6.1706     2.1018 H       
  42 H42            7.3271     7.3163    -0.0296 H       
  43 H43            6.8316     6.1951    -2.1635 H       
  44 H44           -2.5266     5.2073    -1.1744 H       
  45 H45           -0.8771     3.3875    -1.1922 H       
  46 H46            1.7505     5.7317     1.2430 H       
  47 H47            0.1083     7.5581     1.2668 H       
  48 H48           -2.7204     9.4251     0.7109 H       
  49 H49           -0.7862    -2.3705    -0.0016 H       
  50 H50            0.5625    -4.6776    -0.9154 H       
  51 H51            0.5794    -4.6860     0.8645 H       
  52 H52           -1.5263    -4.8639    -2.1389 H       
  53 H53           -3.8467    -5.6877    -2.1207 H       
  54 H54           -4.9863    -6.1102     0.0208 H       
  55 H55           -3.8054    -5.7097     2.1440 H       
  56 H56           -1.4821    -4.8939     2.1257 H       
@<TRIPOS>BOND
   1    1    2 ar
   2    1    5 ar
   3    1   38 1
   4    2    3 ar
   5    2   39 1
   6    3    4 ar
   7    3   26 1
   8    4    7 ar
   9    4   40 1
  10    5    7 ar
  11    5    6 1
  12    6    9 1
  13    6   10 1
  14    7    8 1
  15    8    9 2
  16    8   11 1
  17   10   21 ar
  18   10   20 ar
  19   11   12 1
  20   12   14 ar
  21   12   13 ar
  22   13   17 ar
  23   13   30 1
  24   14   15 ar
  25   14   31 1
  26   15   16 ar
  27   15   41 1
  28   16   17 ar
  29   16   42 1
  30   17   43 1
  31   18   19 ar
  32   18   22 ar
  33   18   23 1
  34   19   20 ar
  35   19   44 1
  36   20   45 1
  37   21   22 ar
  38   21   46 1
  39   22   47 1
  40   23   24 2
  41   23   25 1
  42   25   48 1
  43   26   27 2
  44   26   28 am
  45   28   29 1
  46   28   49 1
  47   29   32 1
  48   29   50 1
  49   29   51 1
  50   32   33 ar
  51   32   37 ar
  52   33   34 ar
  53   33   52 1
  54   34   35 ar
  55   34   53 1
  56   35   36 ar
  57   35   54 1
  58   36   37 ar
  59   36   55 1
  60   37   56 1

#	End of record

