#	Name: ASD10160315
#	Creating user name:	WinNT
#	Creation time:	15. 06. 2019 21:25

#	Modifying user name:	WinNT
#	Modification time:	15. 06. 2019 21:25

#	Program:	/corina/corina34_cracker 3.40 0067  02.08.2006

@<TRIPOS>MOLECULE
ASD10160315
  27   28    0    0    0
SMALL
NO_CHARGES


@<TRIPOS>ATOM
   1 C1            -0.1375     1.3985    -0.8586 C.2     
   2 C2            -0.0859    -0.0526    -0.6389 C.ar    
   3 C3             0.1231    -0.5612     0.6492 C.ar    
   4 C4             0.1700    -1.9168     0.8491 C.ar    
   5 C5             0.0104    -2.7866    -0.2246 C.ar    
   6 C6            -0.1975    -2.2865    -1.5060 C.ar    
   7 C7            -0.2513    -0.9326    -1.7157 C.ar    
   8 O8            -0.3186     1.8367    -1.9750 O.2     
   9 O9             0.0580    -4.1269    -0.0216 O.3     
  10 C10            1.3512    -6.1299    -0.0514 C.ar    
  11 C11            1.2607    -4.7480    -0.1415 C.ar    
  12 C12            2.4185    -4.0076    -0.3568 C.ar    
  13 C13            3.6223    -4.6863    -0.4730 C.ar    
  14 C14            3.6318    -6.0659    -0.3718 C.ar    
  15 N15            2.5152    -6.7372    -0.1674 N.ar    
  16 C16            4.9353    -6.8117    -0.4973 C.3     
  17 F17            5.5195    -6.9457     0.7668 F       
  18 F18            4.6968    -8.0800    -1.0376 F       
  19 F19            5.7997    -6.1019    -1.3376 F       
  20 Cl20           5.0994    -3.8150    -0.7427 Cl      
  21 H21           -0.0186     2.0754    -0.0255 H       
  22 H22            0.2475     0.1133     1.4834 H       
  23 H23            0.3315    -2.3100     1.8420 H       
  24 H24           -0.3209    -2.9660    -2.3363 H       
  25 H25           -0.4169    -0.5454    -2.7102 H       
  26 H26            0.4589    -6.7136     0.1201 H       
  27 H27            2.3808    -2.9309    -0.4319 H       
@<TRIPOS>BOND
   1    1    2 1
   2    1    8 2
   3    1   21 1
   4    2    3 ar
   5    2    7 ar
   6    3    4 ar
   7    3   22 1
   8    4    5 ar
   9    4   23 1
  10    5    6 ar
  11    5    9 1
  12    6    7 ar
  13    6   24 1
  14    7   25 1
  15    9   11 1
  16   10   11 ar
  17   10   15 ar
  18   10   26 1
  19   11   12 ar
  20   12   13 ar
  21   12   27 1
  22   13   14 ar
  23   13   20 1
  24   14   15 ar
  25   14   16 1
  26   16   17 1
  27   16   18 1
  28   16   19 1

#	End of record

