#	Name: ASD10610168
#	Creating user name:	WinNT
#	Creation time:	15. 06. 2019 21:28

#	Modifying user name:	WinNT
#	Modification time:	15. 06. 2019 21:28

#	Program:	/corina/corina34_cracker 3.40 0067  02.08.2006

@<TRIPOS>MOLECULE
ASD10610168
  37   38    0    0    0
SMALL
NO_CHARGES


@<TRIPOS>ATOM
   1 N1             0.3426     0.8495    -0.0131 N.3     
   2 C2             0.2272    -0.6133    -0.0824 C.3     
   3 C3             0.8679    -1.1146    -1.3781 C.3     
   4 C4            -3.9031    -1.7221    -0.0122 C.ar    
   5 C5            -2.9319    -2.6213     0.4239 C.ar    
   6 C6            -1.5984    -2.2586     0.3999 C.ar    
   7 C7            -1.2280    -1.0041    -0.0576 C.ar    
   8 C8            -2.1892    -0.1097    -0.4910 C.ar    
   9 C9            -3.5237    -0.4620    -0.4706 C.ar    
  10 C10           -5.3354    -2.1074     0.0053 C.ar    
  11 C11           -5.9325    -2.5353     1.1945 C.ar    
  12 C12           -7.2718    -2.8937     1.2025 C.ar    
  13 C13           -8.0133    -2.8282     0.0368 C.ar    
  14 C14           -7.4243    -2.4047    -1.1424 C.ar    
  15 C15           -6.0923    -2.0389    -1.1620 C.ar    
  16 F16           -0.6548    -3.1285     0.8221 F       
  17 O17           -5.2027    -2.6002     2.3389 O.3     
  18 C18           -5.1853    -1.4338     3.1643 C.3     
  19 C19           -4.4051    -1.7283     4.4470 C.3     
  20 F20           -5.0207    -2.7784     5.1366 F       
  21 F21           -3.0931    -2.0894     4.1223 F       
  22 Cl22          -8.3644    -2.3268    -2.5997 Cl      
  23 Cl23          -8.0184    -3.4259     2.6766 Cl      
  24 H24            1.3096     1.1371    -0.0282 H       
  25 H25           -0.1770     1.2889    -0.7582 H       
  26 H26            0.7377    -1.0588     0.7715 H       
  27 H27            1.9205    -0.8319    -1.3961 H       
  28 H28            0.7823    -2.2001    -1.4295 H       
  29 H29            0.3575    -0.6691    -2.2319 H       
  30 H30           -3.2206    -3.5990     0.7804 H       
  31 H31           -1.8952     0.8669    -0.8462 H       
  32 H32           -4.2730     0.2382    -0.8092 H       
  33 H33           -9.0562    -3.1088     0.0464 H       
  34 H34           -5.6371    -1.7048    -2.0825 H       
  35 H35           -4.7057    -0.6156     2.6270 H       
  36 H36           -6.2075    -1.1524     3.4173 H       
  37 H37           -4.3918    -0.8386     5.0766 H       
@<TRIPOS>BOND
   1    1    2 1
   2    1   24 1
   3    1   25 1
   4    2    3 1
   5    2    7 1
   6    2   26 1
   7    3   27 1
   8    3   28 1
   9    3   29 1
  10    4    5 ar
  11    4    9 ar
  12    4   10 1
  13    5    6 ar
  14    5   30 1
  15    6    7 ar
  16    6   16 1
  17    7    8 ar
  18    8    9 ar
  19    8   31 1
  20    9   32 1
  21   10   11 ar
  22   10   15 ar
  23   11   12 ar
  24   11   17 1
  25   12   13 ar
  26   12   23 1
  27   13   14 ar
  28   13   33 1
  29   14   15 ar
  30   14   22 1
  31   15   34 1
  32   17   18 1
  33   18   19 1
  34   18   35 1
  35   18   36 1
  36   19   20 1
  37   19   21 1
  38   19   37 1

#	End of record

