#	Name: ASD10410069
#	Creating user name:	WinNT
#	Creation time:	15. 06. 2019 21:26

#	Modifying user name:	WinNT
#	Modification time:	15. 06. 2019 21:26

#	Program:	/corina/corina34_cracker 3.40 0067  02.08.2006

@<TRIPOS>MOLECULE
ASD10410069
  73   78    0    0    0
SMALL
NO_CHARGES


@<TRIPOS>ATOM
   1 C1            -0.0280     1.3383     0.4046 C.ar    
   2 C2            -0.0281     0.0177    -0.0196 C.ar    
   3 C3             1.1620    -0.5948    -0.3835 C.ar    
   4 C4             2.3482     0.1098    -0.3237 C.ar    
   5 C5             2.3491     1.4322     0.1004 C.ar    
   6 C6             1.1571     2.0447     0.4645 C.ar    
   7 O7            -1.1957    -0.6771    -0.0782 O.3     
   8 N8             3.5511     2.1472     0.1617 N.pl3   
   9 C9             3.5518     3.5275    -0.0340 C.2     
  10 N10            4.5935     4.3131     0.0976 N.2     
  11 N11            2.4908     4.2607    -0.3917 N.2     
  12 C12            2.8379     5.5260    -0.4888 C.2     
  13 N13            4.1622     5.6184    -0.1889 N.pl3   
  14 C14            4.9330     6.7732    -0.1699 C.ar    
  15 N15            2.0073     6.5731    -0.8361 N.pl3   
  16 C16            6.1973     6.8115    -0.7993 C.ar    
  17 C17           -1.1221    -2.0328    -0.5240 C.3     
  18 C18           -2.5236    -2.6466    -0.5237 C.3     
  19 N19           -3.3606    -1.9566    -1.5144 N.3     
  20 C20           -4.6371    -2.6669    -1.7143 C.3     
  21 C21           -5.7705    -1.6621    -1.4188 C.3     
  22 C22           -5.0804    -0.2874    -1.6210 C.3     
  23 C23           -3.6542    -0.5718    -1.0876 C.3     
  24 N24            4.4998     7.8705     0.4345 N.ar    
  25 C25            5.2236     8.9781     0.4601 C.ar    
  26 N26            6.4054     9.0710    -0.1022 N.ar    
  27 C27            6.9361     8.0205    -0.7451 C.ar    
  28 C28            8.1949     8.0857    -1.3560 C.ar    
  29 C29            8.6915     6.9867    -1.9993 C.ar    
  30 C30            7.9573     5.7930    -2.0563 C.ar    
  31 C31            6.7294     5.6998    -1.4657 C.ar    
  32 O32            9.9123     7.0516    -2.5916 O.3     
  33 C33           10.6124     8.2940    -2.5005 C.3     
  34 C34           11.9368     8.1774    -3.2100 C.ar    
  35 C35           12.0308     8.4880    -4.5538 C.ar    
  36 C36           13.0589     7.7654    -2.5157 C.ar    
  37 C37           14.2738     7.6585    -3.1665 C.ar    
  38 C38           14.3665     7.9632    -4.5117 C.ar    
  39 C39           13.2457     8.3810    -5.2046 C.ar    
  40 O40            8.4757     4.7152    -2.7030 O.3     
  41 C41            7.6802     3.5284    -2.7267 C.3     
  42 H42           -0.9557     1.8157     0.6839 H       
  43 H43            1.1611    -1.6233    -0.7133 H       
  44 H44            3.2748    -0.3675    -0.6064 H       
  45 H45            1.1569     3.0732     0.7941 H       
  46 H46            4.3834     1.6822     0.3403 H       
  47 H47            1.0729     6.4055    -1.0350 H       
  48 H48            2.3584     7.4763    -0.8811 H       
  49 H49           -0.7132    -2.0615    -1.5340 H       
  50 H50           -0.4765    -2.6010     0.1456 H       
  51 H51           -2.4571    -3.7044    -0.7780 H       
  52 H52           -2.9676    -2.5379     0.4658 H       
  53 H53           -4.7100    -3.0158    -2.7443 H       
  54 H54           -4.7025    -3.5118    -1.0288 H       
  55 H55           -6.5914    -1.7888    -2.1246 H       
  56 H56           -6.1229    -1.7693    -0.3930 H       
  57 H57           -5.0555    -0.0144    -2.6760 H       
  58 H58           -5.5710     0.4863    -1.0305 H       
  59 H59           -3.6339    -0.4975    -0.0003 H       
  60 H60           -2.9385     0.1213    -1.5296 H       
  61 H61            4.8234     9.8443     0.9660 H       
  62 H62            8.7697     8.9993    -1.3193 H       
  63 H63            6.1711     4.7766    -1.5147 H       
  64 H64           10.0187     9.0806    -2.9663 H       
  65 H65           10.7822     8.5393    -1.4522 H       
  66 H66           11.1550     8.8138    -5.0952 H       
  67 H67           12.9865     7.5273    -1.4648 H       
  68 H68           15.1506     7.3372    -2.6239 H       
  69 H69           15.3158     7.8800    -5.0200 H       
  70 H70           13.3181     8.6191    -6.2555 H       
  71 H71            7.4937     3.1955    -1.7056 H       
  72 H72            6.7308     3.7371    -3.2199 H       
  73 H73            8.2092     2.7472    -3.2726 H       
@<TRIPOS>BOND
   1    1    2 ar
   2    1    6 ar
   3    1   42 1
   4    2    3 ar
   5    2    7 1
   6    3    4 ar
   7    3   43 1
   8    4    5 ar
   9    4   44 1
  10    5    6 ar
  11    5    8 1
  12    6   45 1
  13    7   17 1
  14    8    9 1
  15    8   46 1
  16    9   10 2
  17    9   11 1
  18   10   13 1
  19   11   12 2
  20   12   13 1
  21   12   15 1
  22   13   14 1
  23   14   16 ar
  24   14   24 ar
  25   15   47 1
  26   15   48 1
  27   16   27 ar
  28   16   31 ar
  29   17   18 1
  30   17   49 1
  31   17   50 1
  32   18   19 1
  33   18   51 1
  34   18   52 1
  35   19   20 1
  36   19   23 1
  37   20   21 1
  38   20   53 1
  39   20   54 1
  40   21   22 1
  41   21   55 1
  42   21   56 1
  43   22   23 1
  44   22   57 1
  45   22   58 1
  46   23   59 1
  47   23   60 1
  48   24   25 ar
  49   25   26 ar
  50   25   61 1
  51   26   27 ar
  52   27   28 ar
  53   28   29 ar
  54   28   62 1
  55   29   30 ar
  56   29   32 1
  57   30   31 ar
  58   30   40 1
  59   31   63 1
  60   32   33 1
  61   33   34 1
  62   33   64 1
  63   33   65 1
  64   34   35 ar
  65   34   36 ar
  66   35   39 ar
  67   35   66 1
  68   36   37 ar
  69   36   67 1
  70   37   38 ar
  71   37   68 1
  72   38   39 ar
  73   38   69 1
  74   39   70 1
  75   40   41 1
  76   41   71 1
  77   41   72 1
  78   41   73 1

#	End of record

