#	Name: ASD10610153
#	Creating user name:	WinNT
#	Creation time:	15. 06. 2019 21:28

#	Modifying user name:	WinNT
#	Modification time:	15. 06. 2019 21:28

#	Program:	/corina/corina34_cracker 3.40 0067  02.08.2006

@<TRIPOS>MOLECULE
ASD10610153
  78   85    0    0    0
SMALL
NO_CHARGES


@<TRIPOS>ATOM
   1 C1            -0.7567    -0.1979     1.2289 C.2     
   2 N2            -0.0297    -0.0780     0.1003 N.am    
   3 O3            -0.3259    -0.8443     2.1633 O.2     
   4 O4            -1.9578     0.4031     1.3229 O.3     
   5 O5             1.2013    -2.2266    -1.2771 O.3     
   6 C6             1.3929    -2.1615     0.1421 C.3     
   7 C7             1.3248    -0.6328     0.0392 C.3     
   8 C8             1.8247    -0.9397    -1.3779 C.3     
   9 C9             2.3145     0.0984     0.9092 C.2     
  10 N10            2.2203     1.4343     1.0607 N.am    
  11 O11            3.1956    -0.5152     1.4730 O.2     
  12 C12            3.2447     2.1598     1.8160 C.3     
  13 C13            3.3054     3.6323     1.3579 C.3     
  14 C14            2.3411     4.3261     2.3431 C.3     
  15 C15            2.3548     3.4618     3.5860 C.ar    
  16 C16            1.9450     3.7446     4.8760 C.ar    
  17 C17            2.0538     2.7769     5.8716 C.ar    
  18 C18            2.5783     1.5231     5.5608 C.ar    
  19 C19            2.9846     1.2506     4.2721 C.ar    
  20 C20            2.8745     2.2159     3.2831 C.ar    
  21 C21            1.6147     3.0788     7.2550 C.ar    
  22 C22            0.7566     2.1967     7.9313 C.ar    
  23 C23            0.3506     2.4917     9.2322 C.ar    
  24 C24            0.7935     3.6478     9.8483 C.ar    
  25 C25            1.6398     4.5165     9.1798 C.ar    
  26 C26            2.0554     4.2347     7.8920 C.ar    
  27 O27            0.0385    -0.4897     5.8124 O.3     
  28 N28            0.5870     0.5644     6.0556 N.2     
  29 C29            0.2847     0.9595     7.2659 C.2     
  30 N30           -0.5390     0.0264     7.7959 N.2     
  31 C31           -0.6852    -0.8832     6.8652 C.2     
  32 C32           -1.5141    -2.1379     6.9626 C.3     
  33 F33           -0.4752     1.6489     9.8901 F       
  34 Cl34           2.1870     5.9642     9.9660 Cl      
  35 C35           -2.6854     0.2310     2.5677 C.3     
  36 C36           -4.0169     0.9803     2.4879 C.3     
  37 C37           -4.8391     0.7119     3.7245 C.ar    
  38 C38           -5.3548    -0.4498     4.2594 C.ar    
  39 C39           -6.0885    -0.4066     5.4315 C.ar    
  40 C40           -6.3068     0.8016     6.0690 C.ar    
  41 C41           -5.7952     1.9685     5.5409 C.ar    
  42 C42           -5.0534     1.9324     4.3586 C.ar    
  43 C43           -4.3982     3.0142     3.5826 C.ar    
  44 C44           -4.3282     4.3911     3.8029 C.ar    
  45 C45           -3.6456     5.1969     2.9157 C.ar    
  46 C46           -3.0285     4.6462     1.8067 C.ar    
  47 C47           -3.0941     3.2827     1.5818 C.ar    
  48 C48           -3.7744     2.4696     2.4636 C.ar    
  49 H49           -0.4033     0.3756    -0.6714 H       
  50 H50            0.5695    -2.5941     0.7102 H       
  51 H51            2.3665    -2.5306     0.4647 H       
  52 H52            2.9110    -0.9897    -1.4521 H       
  53 H53            1.3796    -0.3018    -2.1414 H       
  54 H54            1.4744     1.9154     0.6696 H       
  55 H55            4.2171     1.6840     1.6893 H       
  56 H56            4.3156     4.0287     1.4606 H       
  57 H57            2.9507     3.7339     0.3323 H       
  58 H58            2.6964     5.3298     2.5765 H       
  59 H59            1.3363     4.3680     1.9226 H       
  60 H60            1.5394     4.7174     5.1117 H       
  61 H61            2.6662     0.7676     6.3276 H       
  62 H62            3.3913     0.2795     4.0314 H       
  63 H63            0.4776     3.8746    10.8559 H       
  64 H64            2.7191     4.9144     7.3782 H       
  65 H65           -1.4394    -2.6961     6.0293 H       
  66 H66           -1.1472    -2.7530     7.7842 H       
  67 H67           -2.5555    -1.8722     7.1446 H       
  68 H68           -2.8746    -0.8294     2.7343 H       
  69 H69           -2.0937     0.6285     3.3923 H       
  70 H70           -4.5667     0.6741     1.5979 H       
  71 H71           -5.1855    -1.3940     3.7632 H       
  72 H72           -6.4917    -1.3173     5.8492 H       
  73 H73           -6.8804     0.8313     6.9837 H       
  74 H74           -5.9683     2.9096     6.0416 H       
  75 H75           -4.8085     4.8251     4.6674 H       
  76 H76           -3.5924     6.2618     3.0876 H       
  77 H77           -2.4950     5.2817     1.1154 H       
  78 H78           -2.6120     2.8549     0.7153 H       
@<TRIPOS>BOND
   1    1    2 am
   2    1    3 2
   3    1    4 1
   4    2    7 1
   5    2   49 1
   6    4   35 1
   7    5    6 1
   8    5    8 1
   9    6    7 1
  10    6   50 1
  11    6   51 1
  12    7    8 1
  13    7    9 1
  14    8   52 1
  15    8   53 1
  16    9   10 am
  17    9   11 2
  18   10   12 1
  19   10   54 1
  20   12   13 1
  21   12   20 1
  22   12   55 1
  23   13   14 1
  24   13   56 1
  25   13   57 1
  26   14   15 1
  27   14   58 1
  28   14   59 1
  29   15   16 ar
  30   15   20 ar
  31   16   17 ar
  32   16   60 1
  33   17   18 ar
  34   17   21 1
  35   18   19 ar
  36   18   61 1
  37   19   20 ar
  38   19   62 1
  39   21   22 ar
  40   21   26 ar
  41   22   23 ar
  42   22   29 1
  43   23   24 ar
  44   23   33 1
  45   24   25 ar
  46   24   63 1
  47   25   26 ar
  48   25   34 1
  49   26   64 1
  50   27   28 1
  51   27   31 1
  52   28   29 2
  53   29   30 1
  54   30   31 2
  55   31   32 1
  56   32   65 1
  57   32   66 1
  58   32   67 1
  59   35   36 1
  60   35   68 1
  61   35   69 1
  62   36   37 1
  63   36   48 1
  64   36   70 1
  65   37   38 ar
  66   37   42 ar
  67   38   39 ar
  68   38   71 1
  69   39   40 ar
  70   39   72 1
  71   40   41 ar
  72   40   73 1
  73   41   42 ar
  74   41   74 1
  75   42   43 1
  76   43   44 ar
  77   43   48 ar
  78   44   45 ar
  79   44   75 1
  80   45   46 ar
  81   45   76 1
  82   46   47 ar
  83   46   77 1
  84   47   48 ar
  85   47   78 1

#	End of record

