#	Name: ASD10420167
#	Creating user name:	WinNT
#	Creation time:	15. 06. 2019 21:27

#	Modifying user name:	WinNT
#	Modification time:	15. 06. 2019 21:27

#	Program:	/corina/corina34_cracker 3.40 0067  02.08.2006

@<TRIPOS>MOLECULE
ASD10420167
  48   49    0    0    0
SMALL
NO_CHARGES


@<TRIPOS>ATOM
   1 C1            -0.0167     1.3831     0.0096 C.ar    
   2 O2             3.4074     3.3798    -0.0123 O.2     
   3 C3             0.0021    -0.0041     0.0020 C.ar    
   4 O4             2.5951     5.4348     0.0065 O.3     
   5 C5            -1.1854    -0.7098     0.0096 C.ar    
   6 O6             1.1501     2.0797     0.0022 O.3     
   7 C7            -2.3921    -0.0349     0.0243 C.ar    
   8 O8            -5.2498    -1.7998     5.3508 O.3     
   9 C9            -2.4135     1.3476     0.0320 C.ar    
  10 C10           -1.2288     2.0580     0.0191 C.ar    
  11 C11           -3.6860    -0.8073     0.0316 C.3     
  12 C12           -4.1045    -1.0729     1.4548 C.ar    
  13 C13           -4.9101    -0.1660     2.1178 C.ar    
  14 C14           -5.2952    -0.4072     3.4226 C.ar    
  15 C15           -4.8728    -1.5605     4.0673 C.ar    
  16 C16           -4.0643    -2.4692     3.3995 C.ar    
  17 C17           -3.6867    -2.2262     2.0933 C.ar    
  18 C18           -3.6032    -3.7229     4.0971 C.3     
  19 C19           -4.1043    -4.9476     3.3290 C.3     
  20 C20           -2.0742    -3.7444     4.1496 C.3     
  21 C21           -1.1657    -2.2167     0.0013 C.3     
  22 C22           -3.7304     2.0800     0.0480 C.3     
  23 C23            1.0546     3.5055     0.0108 C.3     
  24 C24            2.4386     4.1017     0.0008 C.2     
  25 H25            0.9443    -0.5317    -0.0102 H       
  26 H26            3.5020     5.7704    -0.0004 H       
  27 H27           -6.0769    -2.2942     5.4321 H       
  28 H28           -1.2461     3.1379     0.0254 H       
  29 H29           -4.4588    -0.2265    -0.4720 H       
  30 H30           -3.5465    -1.7548    -0.4889 H       
  31 H31           -5.2384     0.7320     1.6156 H       
  32 H32           -5.9242     0.3018     3.9403 H       
  33 H33           -3.0611    -2.9353     1.5717 H       
  34 H34           -4.0019    -3.7420     5.1113 H       
  35 H35           -5.1935    -4.9323     3.2915 H       
  36 H36           -3.7056    -4.9285     2.3147 H       
  37 H37           -3.7708    -5.8544     3.8335 H       
  38 H38           -1.7172    -2.8719     4.6968 H       
  39 H39           -1.7407    -4.6512     4.6541 H       
  40 H40           -1.6755    -3.7253     3.1353 H       
  41 H41           -1.1511    -2.5855     1.0269 H       
  42 H42           -2.0558    -2.5889    -0.5060 H       
  43 H43           -0.2761    -2.5655    -0.5229 H       
  44 H44           -4.0385     2.2511     1.0795 H       
  45 H45           -3.6201     3.0372    -0.4617 H       
  46 H46           -4.4853     1.4816    -0.4621 H       
  47 H47            0.5092     3.8384    -0.8722 H       
  48 H48            0.5262     3.8288     0.9076 H       
@<TRIPOS>BOND
   1    1    3 ar
   2    1    6 1
   3    1   10 ar
   4    2   24 2
   5    3    5 ar
   6    3   25 1
   7    4   24 1
   8    4   26 1
   9    5    7 ar
  10    5   21 1
  11    6   23 1
  12    7    9 ar
  13    7   11 1
  14    8   15 1
  15    8   27 1
  16    9   10 ar
  17    9   22 1
  18   10   28 1
  19   11   12 1
  20   11   29 1
  21   11   30 1
  22   12   13 ar
  23   12   17 ar
  24   13   14 ar
  25   13   31 1
  26   14   15 ar
  27   14   32 1
  28   15   16 ar
  29   16   17 ar
  30   16   18 1
  31   17   33 1
  32   18   19 1
  33   18   20 1
  34   18   34 1
  35   19   35 1
  36   19   36 1
  37   19   37 1
  38   20   38 1
  39   20   39 1
  40   20   40 1
  41   21   41 1
  42   21   42 1
  43   21   43 1
  44   22   44 1
  45   22   45 1
  46   22   46 1
  47   23   24 1
  48   23   47 1
  49   23   48 1

#	End of record

