#	Name: ASD11000312
#	Creating user name:	WinNT
#	Creation time:	15. 06. 2019 21:29

#	Modifying user name:	WinNT
#	Modification time:	15. 06. 2019 21:29

#	Program:	/corina/corina34_cracker 3.40 0067  02.08.2006

@<TRIPOS>MOLECULE
ASD11000312
  26   27    0    0    0
SMALL
NO_CHARGES


@<TRIPOS>ATOM
   1 C1            -0.1755     1.3190    -0.5824 C.ar    
   2 N2            -0.1493    -0.0056    -0.5693 N.ar    
   3 C3             0.8439    -0.6681    -1.1386 C.ar    
   4 C4             1.8648     0.0409    -1.7538 C.ar    
   5 C5             1.8056     1.4265    -1.7489 C.ar    
   6 N6             0.7837     2.0264    -1.1612 N.ar    
   7 N7            -1.2342     1.9802     0.0186 N.pl3   
   8 C8            -1.2212     3.3769     0.1188 C.ar    
   9 C9            -2.4078     4.0916     0.0191 C.ar    
  10 C10           -2.3940     5.4696     0.1180 C.ar    
  11 C11           -1.1941     6.1392     0.3171 C.ar    
  12 C12           -0.0095     5.4257     0.4163 C.ar    
  13 C13           -0.0229     4.0474     0.3237 C.ar    
  14 O14           -1.1808     7.4958     0.4145 O.3     
  15 C15            0.0888     8.1190     0.6192 C.3     
  16 F16            0.6512     7.6510     1.8116 F       
  17 F17            0.9374     7.8105    -0.4494 F       
  18 Cl18          -3.8767     6.3638    -0.0071 Cl      
  19 Br19           3.3062    -0.8618    -2.5806 Br      
  20 H20            0.8598    -1.7479    -1.1243 H       
  21 H21            2.5846     2.0086    -2.2187 H       
  22 H22           -1.9845     1.4757     0.3700 H       
  23 H23           -3.3410     3.5705    -0.1362 H       
  24 H24            0.9235     5.9473     0.5704 H       
  25 H25            0.8995     3.4917     0.4061 H       
  26 H26           -0.0423     9.1995     0.6788 H       
@<TRIPOS>BOND
   1    1    2 ar
   2    1    6 ar
   3    1    7 1
   4    2    3 ar
   5    3    4 ar
   6    3   20 1
   7    4    5 ar
   8    4   19 1
   9    5    6 ar
  10    5   21 1
  11    7    8 1
  12    7   22 1
  13    8    9 ar
  14    8   13 ar
  15    9   10 ar
  16    9   23 1
  17   10   11 ar
  18   10   18 1
  19   11   12 ar
  20   11   14 1
  21   12   13 ar
  22   12   24 1
  23   13   25 1
  24   14   15 1
  25   15   16 1
  26   15   17 1
  27   15   26 1

#	End of record

