#	Name: ASD11710034
#	Creating user name:	WinNT
#	Creation time:	15. 06. 2019 21:29

#	Modifying user name:	WinNT
#	Modification time:	15. 06. 2019 21:29

#	Program:	/corina/corina34_cracker 3.40 0067  02.08.2006

@<TRIPOS>MOLECULE
ASD11710034
  49   52    0    0    0
SMALL
NO_CHARGES


@<TRIPOS>ATOM
   1 C1            -0.5769     0.7688    -0.2595 C.ar    
   2 C2            -0.3168    -0.6863    -0.1351 C.ar    
   3 C3             0.6640    -1.2910    -0.9190 C.ar    
   4 C4            -1.0484    -1.4527     0.7702 C.ar    
   5 C5            -0.8019    -2.8060     0.8820 C.ar    
   6 C6             0.1692    -3.4019     0.0977 C.ar    
   7 C7             0.9021    -2.6451    -0.7988 C.ar    
   8 S8             0.4786    -5.1302     0.2459 S.o2    
   9 N9            -0.6027    -5.9079    -0.7382 N.am    
  10 C10           -1.9725    -5.8154    -0.4813 C.ar    
  11 C11           -2.8598    -5.5607    -1.5194 C.ar    
  12 C12           -2.4512    -5.9836     0.8118 C.ar    
  13 C13           -3.8062    -5.8914     1.0623 C.ar    
  14 C14           -4.6862    -5.6326     0.0274 C.ar    
  15 C15           -4.2135    -5.4698    -1.2619 C.ar    
  16 O16            1.7651    -5.3569    -0.3133 O.2     
  17 O17            0.1365    -5.4862     1.5784 O.2     
  18 N18            0.4419     1.6153    -0.3324 N.ar    
  19 C19            0.2537     2.9146    -0.4435 C.ar    
  20 C20           -1.0218     3.4459    -0.4880 C.ar    
  21 C21           -2.1162     2.5956    -0.4147 C.ar    
  22 C22           -1.8893     1.2348    -0.3046 C.ar    
  23 C23           -3.0453     0.2715    -0.2219 C.3     
  24 C24           -4.1864     0.7829    -1.0631 C.ar    
  25 C25           -4.2167     0.5202    -2.4199 C.ar    
  26 C26           -5.2634     0.9893    -3.1915 C.ar    
  27 C27           -6.2799     1.7207    -2.6062 C.ar    
  28 C28           -6.2501     1.9826    -1.2492 C.ar    
  29 C29           -5.2056     1.5098    -0.4768 C.ar    
  30 H30            1.2365    -0.7012    -1.6195 H       
  31 H31           -1.8066    -0.9884     1.3833 H       
  32 H32           -1.3680    -3.4008     1.5836 H       
  33 H33            1.6588    -3.1156    -1.4090 H       
  34 H34           -0.2848    -6.4276    -1.4929 H       
  35 H35           -2.4913    -5.4335    -2.5266 H       
  36 H36           -1.7646    -6.1865     1.6204 H       
  37 H37           -4.1791    -6.0221     2.0674 H       
  38 H38           -5.7454    -5.5617     0.2259 H       
  39 H39           -4.9035    -5.2678    -2.0678 H       
  40 H40            1.1075     3.5736    -0.5003 H       
  41 H41           -1.1653     4.5125    -0.5785 H       
  42 H42           -3.1224     2.9867    -0.4473 H       
  43 H43           -2.7315    -0.7051    -0.5904 H       
  44 H44           -3.3699     0.1817     0.8147 H       
  45 H45           -3.4225    -0.0512    -2.8772 H       
  46 H46           -5.2867     0.7847    -4.2517 H       
  47 H47           -7.0973     2.0878    -3.2091 H       
  48 H48           -7.0441     2.5543    -0.7919 H       
  49 H49           -5.1823     1.7144     0.5834 H       
@<TRIPOS>BOND
   1    1    2 1
   2    1   18 ar
   3    1   22 ar
   4    2    3 ar
   5    2    4 ar
   6    3    7 ar
   7    3   30 1
   8    4    5 ar
   9    4   31 1
  10    5    6 ar
  11    5   32 1
  12    6    7 ar
  13    6    8 1
  14    7   33 1
  15    8    9 am
  16    8   16 2
  17    8   17 2
  18    9   10 1
  19    9   34 1
  20   10   11 ar
  21   10   12 ar
  22   11   15 ar
  23   11   35 1
  24   12   13 ar
  25   12   36 1
  26   13   14 ar
  27   13   37 1
  28   14   15 ar
  29   14   38 1
  30   15   39 1
  31   18   19 ar
  32   19   20 ar
  33   19   40 1
  34   20   21 ar
  35   20   41 1
  36   21   22 ar
  37   21   42 1
  38   22   23 1
  39   23   24 1
  40   23   43 1
  41   23   44 1
  42   24   25 ar
  43   24   29 ar
  44   25   26 ar
  45   25   45 1
  46   26   27 ar
  47   26   46 1
  48   27   28 ar
  49   27   47 1
  50   28   29 ar
  51   28   48 1
  52   29   49 1

#	End of record

