#	Name: ASD11000197
#	Creating user name:	WinNT
#	Creation time:	15. 06. 2019 21:28

#	Modifying user name:	WinNT
#	Modification time:	15. 06. 2019 21:28

#	Program:	/corina/corina34_cracker 3.40 0067  02.08.2006

@<TRIPOS>MOLECULE
ASD11000197
  42   44    0    0    0
SMALL
NO_CHARGES


@<TRIPOS>ATOM
   1 C1             0.1985     1.5911     0.7576 C.ar    
   2 C2             0.0650     0.2198     0.5965 C.ar    
   3 C3             1.1866    -0.5678     0.4258 C.ar    
   4 C4             2.4466     0.0124     0.4155 C.ar    
   5 C5             2.5800     1.3836     0.5766 C.ar    
   6 C6             1.4584     2.1713     0.7473 C.ar    
   7 O7             3.5507    -0.7631     0.2479 O.3     
   8 C8             4.8160    -0.0989     0.2476 C.3     
   9 C9             7.8672    -2.9094    -0.2980 C.ar    
  10 N10            7.3208    -2.3337    -1.3590 N.ar    
  11 C11            6.3543    -1.4414    -1.2215 C.ar    
  12 C12            5.9147    -1.1114     0.0510 C.ar    
  13 C13            6.5082    -1.7325     1.1389 C.ar    
  14 N14            7.4702    -2.6163     0.9316 N.ar    
  15 N15            8.8735    -3.8440    -0.4789 N.pl3   
  16 C16            9.5462    -4.3706     0.6286 C.ar    
  17 C17            9.9792    -5.6902     0.6167 C.ar    
  18 C18           10.6431    -6.2076     1.7116 C.ar    
  19 C19           10.8770    -5.4126     2.8199 C.ar    
  20 C20           10.4463    -4.0976     2.8345 C.ar    
  21 C21            9.7874    -3.5732     1.7399 C.ar    
  22 Cl22          11.7119    -6.0662     4.1945 Cl      
  23 C23           -1.6170     2.1880     2.0446 C.2     
  24 C24           -2.9161     2.9263     2.2406 C.3     
  25 O25           -1.2154     1.4346     2.8996 O.2     
  26 O26           -0.9062     2.3673     0.9201 O.3     
  27 F27           -3.4682     2.5783     3.4781 F       
  28 F28           -2.6788     4.3046     2.2070 F       
  29 F29           -3.8073     2.5815     1.2188 F       
  30 H30           -0.9159    -0.2319     0.6049 H       
  31 H31            1.0827    -1.6355     0.3007 H       
  32 H32            3.5610     1.8353     0.5689 H       
  33 H33            1.5624     3.2389     0.8728 H       
  34 H34            4.8438     0.6294    -0.5629 H       
  35 H35            4.9585     0.4117     1.1999 H       
  36 H36            5.9130    -0.9754    -2.0901 H       
  37 H37            6.1886    -1.4980     2.1435 H       
  38 H38            9.1117    -4.1332    -1.3736 H       
  39 H39            9.7965    -6.3112    -0.2478 H       
  40 H40           10.9797    -7.2338     1.7031 H       
  41 H41           10.6299    -3.4793     3.7008 H       
  42 H42            9.4560    -2.5453     1.7498 H       
@<TRIPOS>BOND
   1    1    2 ar
   2    1    6 ar
   3    1   26 1
   4    2    3 ar
   5    2   30 1
   6    3    4 ar
   7    3   31 1
   8    4    5 ar
   9    4    7 1
  10    5    6 ar
  11    5   32 1
  12    6   33 1
  13    7    8 1
  14    8   12 1
  15    8   34 1
  16    8   35 1
  17    9   10 ar
  18    9   14 ar
  19    9   15 1
  20   10   11 ar
  21   11   12 ar
  22   11   36 1
  23   12   13 ar
  24   13   14 ar
  25   13   37 1
  26   15   16 1
  27   15   38 1
  28   16   17 ar
  29   16   21 ar
  30   17   18 ar
  31   17   39 1
  32   18   19 ar
  33   18   40 1
  34   19   20 ar
  35   19   22 1
  36   20   21 ar
  37   20   41 1
  38   21   42 1
  39   23   24 1
  40   23   25 2
  41   23   26 1
  42   24   27 1
  43   24   28 1
  44   24   29 1

#	End of record

