#	Name: ASD11320005
#	Creating user name:	WinNT
#	Creation time:	15. 06. 2019 21:29

#	Modifying user name:	WinNT
#	Modification time:	15. 06. 2019 21:29

#	Program:	/corina/corina34_cracker 3.40 0067  02.08.2006

@<TRIPOS>MOLECULE
ASD11320005
  53   56    0    0    0
SMALL
NO_CHARGES


@<TRIPOS>ATOM
   1 C1            -0.0187     1.5258     0.0104 C.3     
   2 C2             0.0021    -0.0041     0.0020 C.3     
   3 C3             0.7182    -0.4975    -1.2568 C.3     
   4 N4             0.7381    -1.9623    -1.2648 N.am    
   5 C5            -0.2753    -2.6372    -1.8459 C.2     
   6 O6            -1.2008    -2.0350    -2.3611 O.2     
   7 C7            -0.2515    -4.0460    -1.8510 C.2     
   8 N8            -1.0966    -5.0266    -2.3406 N.pl3   
   9 C9            -0.5267    -6.2250    -2.0343 C.2     
  10 N10            0.6066    -6.0173    -1.3920 N.2     
  11 C11            0.8175    -4.7085    -1.2561 C.2     
  12 N12            1.8286    -3.9580    -0.6762 N.am    
  13 C13            1.7684    -2.6133    -0.6980 C.2     
  14 O14            2.6644    -1.9715    -0.1843 O.2     
  15 C15            2.9663    -4.6292    -0.0426 C.3     
  16 C16            4.0712    -4.8471    -1.0783 C.3     
  17 C17           -1.0892    -7.5490    -2.3683 C.2     
  18 C18           -2.2983    -7.7963    -3.0539 C.2     
  19 N19           -2.4490    -9.0887    -3.1560 N.2     
  20 N20           -1.3581    -9.7207    -2.5485 N.pl3   
  21 C21           -0.5286    -8.7737    -2.0739 C.2     
  22 C22           -1.1515   -11.1677    -2.4509 C.3     
  23 C23           -2.3533   -11.8040    -1.8014 C.ar    
  24 C24           -3.4092   -12.2404    -2.5792 C.ar    
  25 C25           -4.5118   -12.8241    -1.9833 C.ar    
  26 C26           -4.5580   -12.9716    -0.6099 C.ar    
  27 C27           -3.5014   -12.5359     0.1681 C.ar    
  28 C28           -2.3972   -11.9564    -0.4279 C.ar    
  29 C29           -3.5519   -12.6964     1.6657 C.3     
  30 F30           -4.7571   -13.3071     2.0289 F       
  31 F31           -2.4808   -13.4921     2.0859 F       
  32 F32           -3.4649   -11.4389     2.2726 F       
  33 H33            1.0039     1.9031     0.0027 H       
  34 H34           -0.5459     1.8868    -0.8726 H       
  35 H35           -0.5289     1.8773     0.9072 H       
  36 H36            0.5293    -0.3651     0.8851 H       
  37 H37           -1.0205    -0.3814     0.0098 H       
  38 H38            0.1910    -0.1364    -2.1398 H       
  39 H39            1.7408    -0.1202    -1.2645 H       
  40 H40           -1.9334    -4.8872    -2.8109 H       
  41 H41            3.3469    -4.0102     0.7698 H       
  42 H42            2.6451    -5.5923     0.3541 H       
  43 H43            4.9177    -5.3465    -0.6069 H       
  44 H44            3.6907    -5.4661    -1.8908 H       
  45 H45            4.3924    -3.8841    -1.4750 H       
  46 H46           -2.9799    -7.0468    -3.4282 H       
  47 H47            0.4021    -8.9419    -1.5524 H       
  48 H48           -1.0153   -11.5835    -3.4492 H       
  49 H49           -0.2647   -11.3685    -1.8497 H       
  50 H50           -3.3731   -12.1251    -3.6524 H       
  51 H51           -5.3372   -13.1644    -2.5911 H       
  52 H52           -5.4196   -13.4269    -0.1443 H       
  53 H53           -1.5719   -11.6160     0.1798 H       
@<TRIPOS>BOND
   1    1    2 1
   2    1   33 1
   3    1   34 1
   4    1   35 1
   5    2    3 1
   6    2   36 1
   7    2   37 1
   8    3    4 1
   9    3   38 1
  10    3   39 1
  11    4    5 am
  12    4   13 am
  13    5    6 2
  14    5    7 1
  15    7    8 1
  16    7   11 2
  17    8    9 1
  18    8   40 1
  19    9   10 2
  20    9   17 1
  21   10   11 1
  22   11   12 1
  23   12   13 am
  24   12   15 1
  25   13   14 2
  26   15   16 1
  27   15   41 1
  28   15   42 1
  29   16   43 1
  30   16   44 1
  31   16   45 1
  32   17   18 1
  33   17   21 2
  34   18   19 2
  35   18   46 1
  36   19   20 1
  37   20   21 1
  38   20   22 1
  39   21   47 1
  40   22   23 1
  41   22   48 1
  42   22   49 1
  43   23   24 ar
  44   23   28 ar
  45   24   25 ar
  46   24   50 1
  47   25   26 ar
  48   25   51 1
  49   26   27 ar
  50   26   52 1
  51   27   28 ar
  52   27   29 1
  53   28   53 1
  54   29   30 1
  55   29   31 1
  56   29   32 1

#	End of record

