#	Name: ASD11740009
#	Creating user name:	WinNT
#	Creation time:	15. 06. 2019 21:29

#	Modifying user name:	WinNT
#	Modification time:	15. 06. 2019 21:29

#	Program:	/corina/corina34_cracker 3.40 0067  02.08.2006

@<TRIPOS>MOLECULE
ASD11740009
  41   42    0    0    0
SMALL
NO_CHARGES


@<TRIPOS>ATOM
   1 C1             0.4066     1.8020    -0.1826 C.ar    
   2 C2             0.2516     0.4331    -0.1081 C.ar    
   3 C3             1.3571    -0.3922     0.0262 C.ar    
   4 C4             2.6239     0.1454     0.0865 C.ar    
   5 C5             2.7979     1.5300     0.0120 C.ar    
   6 C6             1.6764     2.3630    -0.1236 C.ar    
   7 N7             1.8352     3.7406    -0.1992 N.am    
   8 S8             0.7166     4.7426     0.4986 S.o2    
   9 O9             1.2500     6.0465     0.3131 O.2     
  10 O10           -0.5153     4.3631    -0.0995 O.2     
  11 C11            4.1507     2.1120     0.0763 C.2     
  12 N12            5.2246     1.3082     0.2074 N.am    
  13 O13            4.2978     3.3175     0.0111 O.2     
  14 C14            6.5152     1.8495     0.1540 C.ar    
  15 C15            7.5811     1.1743     0.7455 C.ar    
  16 C16            8.8552     1.7145     0.6896 C.ar    
  17 C17            9.0675     2.9211     0.0481 C.ar    
  18 C18            8.0106     3.5915    -0.5388 C.ar    
  19 C19            6.7368     3.0564    -0.4925 C.ar    
  20 O20            7.3708    -0.0118     1.3763 O.3     
  21 C21            8.5100    -0.6474     1.9596 C.3     
  22 C22           10.4547     3.5069    -0.0108 C.3     
  23 C23            0.7373     4.2903     2.2552 C.3     
  24 H24           -0.4596     2.4379    -0.2913 H       
  25 H25           -0.7375     0.0019    -0.1544 H       
  26 H26            1.2244    -1.4624     0.0843 H       
  27 H27            3.4816    -0.5024     0.1915 H       
  28 H28            2.6014     4.1159    -0.6608 H       
  29 H29            5.1036     0.3547     0.3387 H       
  30 H30            9.6830     1.1935     1.1474 H       
  31 H31            8.1812     4.5337    -1.0384 H       
  32 H32            5.9130     3.5822    -0.9522 H       
  33 H33            8.2038    -1.5822     2.4292 H       
  34 H34            9.2471    -0.8549     1.1839 H       
  35 H35            8.9480     0.0101     2.7106 H       
  36 H36           10.9625     3.1491    -0.9065 H       
  37 H37           10.3888     4.5945    -0.0406 H       
  38 H38           11.0161     3.2009     0.8719 H       
  39 H39            1.7364     4.4513     2.6601 H       
  40 H40            0.0215     4.9079     2.7979 H       
  41 H41            0.4663     3.2401     2.3632 H       
@<TRIPOS>BOND
   1    1    2 ar
   2    1    6 ar
   3    1   24 1
   4    2    3 ar
   5    2   25 1
   6    3    4 ar
   7    3   26 1
   8    4    5 ar
   9    4   27 1
  10    5    6 ar
  11    5   11 1
  12    6    7 1
  13    7    8 am
  14    7   28 1
  15    8    9 2
  16    8   10 2
  17    8   23 1
  18   11   12 am
  19   11   13 2
  20   12   14 1
  21   12   29 1
  22   14   15 ar
  23   14   19 ar
  24   15   16 ar
  25   15   20 1
  26   16   17 ar
  27   16   30 1
  28   17   18 ar
  29   17   22 1
  30   18   19 ar
  31   18   31 1
  32   19   32 1
  33   20   21 1
  34   21   33 1
  35   21   34 1
  36   21   35 1
  37   22   36 1
  38   22   37 1
  39   22   38 1
  40   23   39 1
  41   23   40 1
  42   23   41 1

#	End of record

