#	Name: ASD13490067
#	Creating user name:	WinNT
#	Creation time:	15. 06. 2019 21:30

#	Modifying user name:	WinNT
#	Modification time:	15. 06. 2019 21:30

#	Program:	/corina/corina34_cracker 3.40 0067  02.08.2006

@<TRIPOS>MOLECULE
ASD13490067
  46   48    0    0    0
SMALL
NO_CHARGES


@<TRIPOS>ATOM
   1 C1            -0.0169     1.3925     0.0097 C.ar    
   2 C2             0.0021    -0.0041     0.0020 C.ar    
   3 C3             1.2098    -0.6758    -0.0131 C.ar    
   4 C4             2.4059     0.0413    -0.0207 C.ar    
   5 C5             2.3860     1.4303    -0.0130 C.ar    
   6 C6             1.1848     2.1049     0.0021 C.ar    
   7 N7             3.6288    -0.6399    -0.0356 N.pl3   
   8 C8             4.6780    -0.4131    -0.8889 C.2     
   9 C9             5.6474    -1.2861    -0.5556 C.2     
  10 N10            5.2081    -2.0279     0.4721 N.2     
  11 C11            4.0028    -1.6467     0.7966 C.2     
  12 C12            6.9932    -1.4091    -1.2225 C.3     
  13 O13            1.2319    -2.0352    -0.0202 O.3     
  14 C14           -0.0306    -2.7045    -0.0113 C.3     
  15 C15           -1.3049     2.1147     0.0197 C.2     
  16 N16           -1.3217     3.4624     0.0271 N.am    
  17 O17           -2.3500     1.4937     0.0213 O.2     
  18 C18           -2.5995     4.1788     0.0371 C.3     
  19 C19           -3.0991     4.3108     1.4772 C.3     
  20 C20           -2.4107     5.5509    -0.5569 C.ar    
  21 C21           -1.2698     6.2769    -0.2696 C.ar    
  22 C22           -3.3759     6.0804    -1.3931 C.ar    
  23 C23           -3.2036     7.3384    -1.9386 C.ar    
  24 C24           -2.0640     8.0687    -1.6471 C.ar    
  25 C25           -1.0955     7.5352    -0.8136 C.ar    
  26 F26           -1.8943     9.2984    -2.1803 F       
  27 H27           -0.9251    -0.5579     0.0083 H       
  28 H28            3.3141     1.9825    -0.0189 H       
  29 H29            1.1722     3.1848     0.0080 H       
  30 H30            4.7189     0.3241    -1.6771 H       
  31 H31            3.4022    -2.0637     1.5915 H       
  32 H32            7.7073    -0.7542    -0.7233 H       
  33 H33            7.3385    -2.4409    -1.1562 H       
  34 H34            6.9071    -1.1214    -2.2703 H       
  35 H35            0.1297    -3.7826    -0.0183 H       
  36 H36           -0.5836    -2.4252     0.8856 H       
  37 H37           -0.6009    -2.4163    -0.8943 H       
  38 H38           -0.4879     3.9579     0.0259 H       
  39 H39           -3.3310     3.6255    -0.5520 H       
  40 H40           -4.0498     4.8439     1.4846 H       
  41 H41           -3.2356     3.3184     1.9067 H       
  42 H42           -2.3676     4.8642     2.0662 H       
  43 H43           -0.5146     5.8606     0.3806 H       
  44 H44           -4.2648     5.5106    -1.6203 H       
  45 H45           -3.9574     7.7516    -2.5924 H       
  46 H46           -0.2043     8.1023    -0.5888 H       
@<TRIPOS>BOND
   1    1    2 ar
   2    1    6 ar
   3    1   15 1
   4    2    3 ar
   5    2   27 1
   6    3    4 ar
   7    3   13 1
   8    4    5 ar
   9    4    7 1
  10    5    6 ar
  11    5   28 1
  12    6   29 1
  13    7    8 1
  14    7   11 1
  15    8    9 2
  16    8   30 1
  17    9   10 1
  18    9   12 1
  19   10   11 2
  20   11   31 1
  21   12   32 1
  22   12   33 1
  23   12   34 1
  24   13   14 1
  25   14   35 1
  26   14   36 1
  27   14   37 1
  28   15   16 am
  29   15   17 2
  30   16   18 1
  31   16   38 1
  32   18   19 1
  33   18   20 1
  34   18   39 1
  35   19   40 1
  36   19   41 1
  37   19   42 1
  38   20   22 ar
  39   20   21 ar
  40   21   25 ar
  41   21   43 1
  42   22   23 ar
  43   22   44 1
  44   23   24 ar
  45   23   45 1
  46   24   25 ar
  47   24   26 1
  48   25   46 1

#	End of record

