#	Name: ASD14640021
#	Creating user name:	WinNT
#	Creation time:	15. 06. 2019 21:31

#	Modifying user name:	WinNT
#	Modification time:	15. 06. 2019 21:31

#	Program:	/corina/corina34_cracker 3.40 0067  02.08.2006

@<TRIPOS>MOLECULE
ASD14640021
  43   45    0    0    0
SMALL
NO_CHARGES


@<TRIPOS>ATOM
   1 N1            -0.0178     1.4601     0.0101 N.pl3   
   2 C2             0.0021    -0.0041     0.0020 C.3     
   3 C3             1.3919    -0.4730    -0.4435 C.3     
   4 C4             2.4668     0.2342     0.3863 C.3     
   5 C5             2.5200     1.7169    -0.0071 C.3     
   6 C6             0.7009     3.5243     0.0106 C.2     
   7 N7            -0.6460     3.5291     0.0202 N.2     
   8 C8            -1.0866     2.2902     0.0190 C.2     
   9 C9             1.1114     2.2533     0.0035 C.2     
  10 N10           -2.4160     1.9016     0.0253 N.pl3   
  11 C11            1.5072    -1.9854    -0.2430 C.3     
  12 C12            0.5368    -2.6887    -1.1566 C.ar    
  13 C13           -0.7137    -3.0495    -0.6910 C.ar    
  14 C14            0.8952    -2.9686    -2.4641 C.ar    
  15 C15            0.0022    -3.6145    -3.3026 C.ar    
  16 C16           -1.2454    -3.9789    -2.8334 C.ar    
  17 C17           -1.6040    -3.6945    -1.5287 C.ar    
  18 C18            1.5900     4.7411     0.0082 C.3     
  19 C19            1.2992     5.5827    -1.2360 C.3     
  20 C20            1.3178     5.5740     1.2624 C.3     
  21 F21            2.1150    -2.6115    -2.9219 F       
  22 H22           -0.2063    -0.3782     1.0044 H       
  23 H23           -0.7500    -0.3763    -0.6937 H       
  24 H24            1.5337    -0.2360    -1.4980 H       
  25 H25            2.2241     0.1474     1.4454 H       
  26 H26            3.4356    -0.2276     0.1958 H       
  27 H27            3.1290     2.2667     0.7105 H       
  28 H28            2.9451     1.8180    -1.0057 H       
  29 H29           -3.1172     2.5718     0.0315 H       
  30 H30           -2.6458     0.9592     0.0234 H       
  31 H31            2.5227    -2.3063    -0.4753 H       
  32 H32            1.2759    -2.2332     0.7929 H       
  33 H33           -0.9950    -2.8275     0.3279 H       
  34 H34            0.2806    -3.8331    -4.3229 H       
  35 H35           -1.9421    -4.4823    -3.4872 H       
  36 H36           -2.5806    -3.9767    -1.1638 H       
  37 H37            2.6341     4.4282    -0.0007 H       
  38 H38            0.2551     5.8956    -1.2271 H       
  39 H39            1.9422     6.4628    -1.2377 H       
  40 H40            1.4930     4.9893    -2.1295 H       
  41 H41            1.5250     4.9744     2.1488 H       
  42 H42            1.9609     6.4541     1.2606 H       
  43 H43            0.2738     5.8869     1.2713 H       
@<TRIPOS>BOND
   1    1    2 1
   2    1    9 1
   3    1    8 1
   4    2    3 1
   5    2   22 1
   6    2   23 1
   7    3    4 1
   8    3   11 1
   9    3   24 1
  10    4    5 1
  11    4   25 1
  12    4   26 1
  13    5    9 1
  14    5   27 1
  15    5   28 1
  16    6    7 1
  17    6    9 2
  18    6   18 1
  19    7    8 2
  20    8   10 1
  21   10   29 1
  22   10   30 1
  23   11   12 1
  24   11   31 1
  25   11   32 1
  26   12   14 ar
  27   12   13 ar
  28   13   17 ar
  29   13   33 1
  30   14   15 ar
  31   14   21 1
  32   15   16 ar
  33   15   34 1
  34   16   17 ar
  35   16   35 1
  36   17   36 1
  37   18   19 1
  38   18   20 1
  39   18   37 1
  40   19   38 1
  41   19   39 1
  42   19   40 1
  43   20   41 1
  44   20   42 1
  45   20   43 1

#	End of record

