#	Name: ASD14640002
#	Creating user name:	WinNT
#	Creation time:	15. 06. 2019 21:31

#	Modifying user name:	WinNT
#	Modification time:	15. 06. 2019 21:31

#	Program:	/corina/corina34_cracker 3.40 0067  02.08.2006

@<TRIPOS>MOLECULE
ASD14640002
  49   53    0    0    0
SMALL
NO_CHARGES


@<TRIPOS>ATOM
   1 C1            -0.0167     1.3781     0.0096 C.ar    
   2 C2             0.0021    -0.0041     0.0020 C.ar    
   3 C3             1.2084    -0.6789    -0.0132 C.ar    
   4 C4             2.3960     0.0285    -0.0212 C.ar    
   5 C5             2.3773     1.4107    -0.0145 C.ar    
   6 C6             1.1710     2.0855     0.0021 C.ar    
   7 C7             3.6720     2.1819    -0.0228 C.3     
   8 N8             4.0799     2.4390    -1.4104 N.3     
   9 C9             4.0791     1.6098    -3.6982 C.3     
  10 C10            3.9828     1.2161    -2.2240 C.3     
  11 C11            5.4434     2.9750    -1.4665 C.3     
  12 C12            5.8934     3.1328    -2.8950 C.2     
  13 C13            5.2715     2.5041    -3.9177 C.2     
  14 C14            5.7458     2.6840    -5.2447 C.2     
  15 N15            7.4555     4.1382    -4.4474 N.pl3   
  16 C16            6.8395     3.5053    -5.4874 C.2     
  17 C17            7.0043     3.9676    -3.1628 C.2     
  18 N18            7.7880     4.6936    -2.3829 N.2     
  19 N19            8.6761     5.2891    -3.0983 N.2     
  20 C20            8.5203     4.9875    -4.3602 C.2     
  21 N21            7.2993     3.6792    -6.7690 N.pl3   
  22 C22            6.6363     2.9980    -7.8837 C.3     
  23 C23            7.3298     3.3537    -9.1736 C.2     
  24 C24            5.0961     2.0178    -6.3331 C.1     
  25 N25            4.5807     1.4893    -7.1965 N.1     
  26 C26            7.8505     4.4025   -11.0281 C.2     
  27 O27            7.0276     4.3945    -9.9667 O.3     
  28 C28            8.3601     2.6858    -9.7229 C.2     
  29 C29            8.6942     3.3605   -10.9196 C.2     
  30 H30           -0.9592     1.9054     0.0170 H       
  31 H31           -0.9258    -0.5567     0.0083 H       
  32 H32            1.2231    -1.7588    -0.0184 H       
  33 H33            3.3386    -0.4987    -0.0324 H       
  34 H34            1.1563     3.1654     0.0077 H       
  35 H35            3.5335     3.1300     0.4968 H       
  36 H36            4.4443     1.6008     0.4812 H       
  37 H37            4.1844     0.7112    -4.3062 H       
  38 H38            3.1720     2.1382    -3.9913 H       
  39 H39            4.7996     0.5404    -1.9703 H       
  40 H40            3.0278     0.7253    -2.0367 H       
  41 H41            5.4682     3.9464    -0.9726 H       
  42 H42            6.1191     2.2930    -0.9503 H       
  43 H43            9.1229     5.3444    -5.1823 H       
  44 H44            8.0632     4.2530    -6.9365 H       
  45 H45            6.6841     1.9198    -7.7308 H       
  46 H46            5.5937     3.3121    -7.9331 H       
  47 H47            7.8386     5.1246   -11.8311 H       
  48 H48            8.8405     1.8038    -9.3256 H       
  49 H49            9.4764     3.0907   -11.6137 H       
@<TRIPOS>BOND
   1    1    2 ar
   2    1    6 ar
   3    1   30 1
   4    2    3 ar
   5    2   31 1
   6    3    4 ar
   7    3   32 1
   8    4    5 ar
   9    4   33 1
  10    5    6 ar
  11    5    7 1
  12    6   34 1
  13    7    8 1
  14    7   35 1
  15    7   36 1
  16    8   11 1
  17    8   10 1
  18    9   10 1
  19    9   13 1
  20    9   37 1
  21    9   38 1
  22   10   39 1
  23   10   40 1
  24   11   12 1
  25   11   41 1
  26   11   42 1
  27   12   17 1
  28   12   13 2
  29   13   14 1
  30   14   16 2
  31   14   24 1
  32   15   16 1
  33   15   20 1
  34   15   17 1
  35   16   21 1
  36   17   18 2
  37   18   19 1
  38   19   20 2
  39   20   43 1
  40   21   22 1
  41   21   44 1
  42   22   23 1
  43   22   45 1
  44   22   46 1
  45   23   28 2
  46   23   27 1
  47   24   25 3
  48   26   27 1
  49   26   29 2
  50   26   47 1
  51   28   29 1
  52   28   48 1
  53   29   49 1

#	End of record

