#	Name: ASD10610126
#	Creating user name:	WinNT
#	Creation time:	15. 06. 2019 21:28

#	Modifying user name:	WinNT
#	Modification time:	15. 06. 2019 21:28

#	Program:	/corina/corina34_cracker 3.40 0067  02.08.2006

@<TRIPOS>MOLECULE
ASD10610126
  60   63    0    0    0
SMALL
NO_CHARGES


@<TRIPOS>ATOM
   1 C1            -0.0149     1.5280     0.0100 C.3     
   2 C2             0.1130     0.0036    -0.0176 C.3     
   3 C3             1.3690     0.8758     0.0327 C.3     
   4 C4            -0.4402     2.2137    -1.2628 C.2     
   5 O5            -0.2289     1.6875    -2.3349 O.2     
   6 N6            -1.0553     3.4117    -1.2097 N.am    
   7 C7            -1.3671     4.1305    -2.4475 C.3     
   8 C8            -2.5445     5.0714    -2.2006 C.3     
   9 C9            -2.7161     5.9649    -3.4347 C.3     
  10 C10           -1.5387     6.9359    -3.4933 C.3     
  11 C11           -0.2331     6.1934    -3.3754 C.ar    
  12 C12            0.9200     6.8522    -3.7744 C.ar    
  13 C13            2.1575     6.2236    -3.6860 C.ar    
  14 C14            2.2329     4.9220    -3.1921 C.ar    
  15 C15            1.0830     4.2748    -2.8003 C.ar    
  16 C16           -0.1534     4.9053    -2.8912 C.ar    
  17 O17            4.8067     6.4803    -4.1159 O.3     
  18 B18            3.4600     6.9743    -4.1387 Du      
  19 O19            3.5641     8.3045    -4.6661 O.3     
  20 C20            4.5534     8.2063    -5.7122 C.3     
  21 C21            5.3959     6.9695    -5.3391 C.3     
  22 C22            6.8544     7.3686    -5.1060 C.3     
  23 C23            5.3013     5.9089    -6.4378 C.3     
  24 C24            3.8763     8.0007    -7.0687 C.3     
  25 C25            5.4294     9.4604    -5.7369 C.3     
  26 N26           -0.4926     2.1444     1.2502 N.am    
  27 C27           -1.7477     1.9074     1.6805 C.2     
  28 O28           -2.4509     1.1137     1.0919 O.2     
  29 C29           -2.2772     2.6287     2.8931 C.3     
  30 F30           -3.5918     2.2197     3.1419 F       
  31 F31           -1.4776     2.3278     4.0009 F       
  32 F32           -2.2539     4.0084     2.6621 F       
  33 H33           -0.1583    -0.5407     0.8870 H       
  34 H34           -0.1104    -0.5033    -0.9563 H       
  35 H35            1.9718     0.9428    -0.8729 H       
  36 H36            1.9240     0.9054     0.9704 H       
  37 H37           -1.2916     3.7979    -0.3518 H       
  38 H38           -1.6372     3.4124    -3.2218 H       
  39 H39           -3.4520     4.4895    -2.0395 H       
  40 H40           -2.3435     5.6890    -1.3252 H       
  41 H41           -2.7299     5.3497    -4.3344 H       
  42 H42           -3.6490     6.5233    -3.3568 H       
  43 H43           -1.5624     7.4727    -4.4416 H       
  44 H44           -1.6210     7.6504    -2.6743 H       
  45 H45            0.8568     7.8605    -4.1561 H       
  46 H46            3.1884     4.4241    -3.1175 H       
  47 H47            1.1414     3.2664    -2.4182 H       
  48 H48            7.4236     6.4953    -4.7873 H       
  49 H49            7.2766     7.7595    -6.0318 H       
  50 H50            6.9021     8.1354    -4.3327 H       
  51 H51            4.2558     5.6481    -6.6020 H       
  52 H52            5.7268     6.3028    -7.3607 H       
  53 H53            5.8540     5.0200    -6.1333 H       
  54 H54            3.2399     8.8573    -7.2907 H       
  55 H55            4.6369     7.9027    -7.8433 H       
  56 H56            3.2698     7.0955    -7.0386 H       
  57 H57            5.9161     9.5827    -4.7693 H       
  58 H58            6.1867     9.3593    -6.5143 H       
  59 H59            4.8096    10.3326    -5.9447 H       
  60 H60            0.0943     2.7230     1.7616 H       
@<TRIPOS>BOND
   1    1    2 1
   2    1    3 1
   3    1    4 1
   4    1   26 1
   5    2    3 1
   6    2   33 1
   7    2   34 1
   8    3   35 1
   9    3   36 1
  10    4    5 2
  11    4    6 am
  12    6    7 1
  13    6   37 1
  14    7    8 1
  15    7   16 1
  16    7   38 1
  17    8    9 1
  18    8   39 1
  19    8   40 1
  20    9   10 1
  21    9   41 1
  22    9   42 1
  23   10   11 1
  24   10   43 1
  25   10   44 1
  26   11   12 ar
  27   11   16 ar
  28   12   13 ar
  29   12   45 1
  30   13   14 ar
  31   13   18 1
  32   14   15 ar
  33   14   46 1
  34   15   16 ar
  35   15   47 1
  36   17   18 1
  37   17   21 1
  38   18   19 1
  39   19   20 1
  40   20   21 1
  41   20   24 1
  42   20   25 1
  43   21   22 1
  44   21   23 1
  45   22   48 1
  46   22   49 1
  47   22   50 1
  48   23   51 1
  49   23   52 1
  50   23   53 1
  51   24   54 1
  52   24   55 1
  53   24   56 1
  54   25   57 1
  55   25   58 1
  56   25   59 1
  57   26   27 am
  58   26   60 1
  59   27   28 2
  60   27   29 1
  61   29   30 1
  62   29   31 1
  63   29   32 1

#	End of record

