#	Name: ASD10420067
#	Creating user name:	WinNT
#	Creation time:	15. 06. 2019 21:27

#	Modifying user name:	WinNT
#	Modification time:	15. 06. 2019 21:27

#	Program:	/corina/corina34_cracker 3.40 0067  02.08.2006

@<TRIPOS>MOLECULE
ASD10420067
  51   54    0    0    0
SMALL
NO_CHARGES


@<TRIPOS>ATOM
   1 C1            -0.0178     1.4625     0.0101 C.2     
   2 C2             0.0021    -0.0041     0.0020 C.2     
   3 C3             1.3203    -0.6698    -0.0142 C.2     
   4 C4             2.4568     0.1140    -0.0208 C.2     
   5 N5             2.3890     1.4547    -0.0125 N.pl3   
   6 N6             1.1750     2.1503     0.0024 N.pl3   
   7 C7            -1.0463     2.3936     0.0194 C.2     
   8 C8            -0.4375     3.6655     0.0238 C.2     
   9 C9             0.9010     3.4826     0.0122 C.2     
  10 C10            1.4200    -2.1327    -0.0225 C.2     
  11 O11            2.5120    -2.6677    -0.0358 O.2     
  12 O12            0.3007    -2.8848    -0.0154 O.3     
  13 C13           -2.4999     2.1076     0.0237 C.ar    
  14 C14           -3.0841     1.4667     1.1161 C.ar    
  15 C15           -4.4386     1.2035     1.1145 C.ar    
  16 C16           -5.2168     1.5734     0.0321 C.ar    
  17 C17           -4.6430     2.2094    -1.0543 C.ar    
  18 C18           -3.2907     2.4832    -1.0619 C.ar    
  19 O19           -1.0316    -0.6498     0.0088 O.2     
  20 C20           -1.1523     4.9921     0.0339 C.3     
  21 C21           -1.4939     5.3678     1.4528 C.ar    
  22 C22           -0.5600     6.0149     2.2400 C.ar    
  23 C23           -0.8742     6.3604     3.5432 C.ar    
  24 C24           -2.1240     6.0571     4.0567 C.ar    
  25 C25           -3.0560     5.4102     3.2679 C.ar    
  26 C26           -2.7429     5.0703     1.9647 C.ar    
  27 C27            0.7998     6.3438     1.6799 C.3     
  28 F28            0.0380     6.9925     4.3137 F       
  29 C29            0.4751    -4.3263    -0.0244 C.3     
  30 C30           -0.8957    -5.0059    -0.0145 C.3     
  31 H31            3.4253    -0.3637    -0.0326 H       
  32 H32            3.2157     1.9622    -0.0173 H       
  33 H33            1.6386     4.2715     0.0094 H       
  34 H34           -2.4775     1.1768     1.9613 H       
  35 H35           -4.8921     0.7073     1.9598 H       
  36 H36           -6.2764     1.3646     0.0352 H       
  37 H37           -5.2557     2.4958    -1.8964 H       
  38 H38           -2.8446     2.9834    -1.9088 H       
  39 H39           -0.5066     5.7561    -0.3989 H       
  40 H40           -2.0682     4.9158    -0.5522 H       
  41 H41           -2.3701     6.3258     5.0734 H       
  42 H42           -4.0308     5.1736     3.6681 H       
  43 H43           -3.4735     4.5687     1.3475 H       
  44 H44            0.7737     7.3310     1.2185 H       
  45 H45            1.5352     6.3381     2.4845 H       
  46 H46            1.0742     5.6002     0.9317 H       
  47 H47            1.0201    -4.6208    -0.9212 H       
  48 H48            1.0374    -4.6298     0.8587 H       
  49 H49           -1.4580    -4.7025    -0.8975 H       
  50 H50           -0.7648    -6.0880    -0.0212 H       
  51 H51           -1.4407    -4.7114     0.8823 H       
@<TRIPOS>BOND
   1    1    2 1
   2    1    6 1
   3    1    7 2
   4    2    3 1
   5    2   19 2
   6    3    4 2
   7    3   10 1
   8    4    5 1
   9    4   31 1
  10    5    6 1
  11    5   32 1
  12    6    9 1
  13    7    8 1
  14    7   13 1
  15    8    9 2
  16    8   20 1
  17    9   33 1
  18   10   11 2
  19   10   12 1
  20   12   29 1
  21   13   14 ar
  22   13   18 ar
  23   14   15 ar
  24   14   34 1
  25   15   16 ar
  26   15   35 1
  27   16   17 ar
  28   16   36 1
  29   17   18 ar
  30   17   37 1
  31   18   38 1
  32   20   21 1
  33   20   39 1
  34   20   40 1
  35   21   22 ar
  36   21   26 ar
  37   22   23 ar
  38   22   27 1
  39   23   24 ar
  40   23   28 1
  41   24   25 ar
  42   24   41 1
  43   25   26 ar
  44   25   42 1
  45   26   43 1
  46   27   44 1
  47   27   45 1
  48   27   46 1
  49   29   30 1
  50   29   47 1
  51   29   48 1
  52   30   49 1
  53   30   50 1
  54   30   51 1

#	End of record

