#	Name: ASD13010037
#	Creating user name:	WinNT
#	Creation time:	15. 06. 2019 21:30

#	Modifying user name:	WinNT
#	Modification time:	15. 06. 2019 21:30

#	Program:	/corina/corina34_cracker 3.40 0067  02.08.2006

@<TRIPOS>MOLECULE
ASD13010037
  40   43    0    0    0
SMALL
NO_CHARGES


@<TRIPOS>ATOM
   1 C1            -0.0164     1.3586     0.0095 C.ar    
   2 C2             0.0021    -0.0041     0.0020 C.ar    
   3 C3             1.2188    -0.7025    -0.0129 C.ar    
   4 C4             2.4231    -0.0066    -0.0201 C.ar    
   5 C5             1.1786     2.0761     0.0020 C.ar    
   6 N6             1.4762     3.4157     0.0059 N.pl3   
   7 C7             2.4084     1.3873    -0.0130 C.ar    
   8 C8             3.4538     2.4135    -0.0176 C.2     
   9 N9             2.8649     3.5788    -0.0068 N.2     
  10 C10            0.5418     4.4503     0.0202 C.ar    
  11 O11            4.7939     2.1926    -0.0305 O.3     
  12 C12            5.6187     3.2730    -0.0330 C.ar    
  13 C13            6.0255     3.8347    -1.2355 C.ar    
  14 C14            6.0514     3.8204     1.1672 C.ar    
  15 C15            6.8899     4.9196     1.1615 C.ar    
  16 C16            7.2976     5.4737    -0.0379 C.ar    
  17 C17            6.8641     4.9339    -1.2348 C.ar    
  18 C18           -1.3161     6.5064     0.0497 C.ar    
  19 C19           -1.5906     5.3238    -0.6440 C.ar    
  20 C20           -0.6659     4.3045    -0.6560 C.ar    
  21 C21            0.8165     5.6244     0.7154 C.ar    
  22 C22           -0.1040     6.6474     0.7324 C.ar    
  23 C23           -2.3041     7.6008     0.0644 C.2     
  24 O24           -3.3583     7.4757    -0.5267 O.2     
  25 O25           -2.0380     8.7399     0.7335 O.3     
  26 Cl26           5.4822     3.1573    -2.7387 Cl      
  27 Cl27           5.5396     3.1258     2.6736 Cl      
  28 C28            1.2207    -2.1345    -0.0201 C.1     
  29 N29            1.2223    -3.2705    -0.0258 N.1     
  30 H30           -0.9599     1.8842     0.0168 H       
  31 H31           -0.9288    -0.5516     0.0079 H       
  32 H32            3.3613    -0.5415    -0.0309 H       
  33 H33            7.2266     5.3462     2.0948 H       
  34 H34            7.9524     6.3325    -0.0399 H       
  35 H35            7.1809     5.3713    -2.1700 H       
  36 H36           -2.5259     5.2116    -1.1723 H       
  37 H37           -0.8776     3.3905    -1.1911 H       
  38 H38            1.7530     5.7326     1.2424 H       
  39 H39            0.1112     7.5595     1.2692 H       
  40 H40           -2.7162     9.4289     0.7144 H       
@<TRIPOS>BOND
   1    1    2 ar
   2    1    5 ar
   3    1   30 1
   4    2    3 ar
   5    2   31 1
   6    3    4 ar
   7    3   28 1
   8    4    7 ar
   9    4   32 1
  10    5    7 ar
  11    5    6 1
  12    6    9 1
  13    6   10 1
  14    7    8 1
  15    8    9 2
  16    8   11 1
  17   10   21 ar
  18   10   20 ar
  19   11   12 1
  20   12   14 ar
  21   12   13 ar
  22   13   17 ar
  23   13   26 1
  24   14   15 ar
  25   14   27 1
  26   15   16 ar
  27   15   33 1
  28   16   17 ar
  29   16   34 1
  30   17   35 1
  31   18   19 ar
  32   18   22 ar
  33   18   23 1
  34   19   20 ar
  35   19   36 1
  36   20   37 1
  37   21   22 ar
  38   21   38 1
  39   22   39 1
  40   23   24 2
  41   23   25 1
  42   25   40 1
  43   28   29 3

#	End of record

