#	Name: ASD10220103
#	Creating user name:	WinNT
#	Creation time:	15. 06. 2019 21:26

#	Modifying user name:	WinNT
#	Modification time:	15. 06. 2019 21:26

#	Program:	/corina/corina34_cracker 3.40 0067  02.08.2006

@<TRIPOS>MOLECULE
ASD10220103
  38   40    0    0    0
SMALL
NO_CHARGES


@<TRIPOS>ATOM
   1 C1             0.0029     1.5133     0.4036 C.2     
   2 C2             0.0483     0.2219     0.9793 C.2     
   3 C3            -1.0801    -0.4294     1.3409 C.2     
   4 C4            -2.4070     0.1582     1.1599 C.2     
   5 C5            -2.5352     1.4208     0.6028 C.2     
   6 C6            -1.3331     2.1682     0.2006 C.2     
   7 O7            -3.6438    -0.2952     1.4392 O.3     
   8 C8            -4.5777     0.5952     1.0984 C.2     
   9 C9            -3.9740     1.7030     0.5653 C.2     
  10 C10           -4.6313     2.9215     0.0607 C.2     
  11 O11           -3.9606     3.8752    -0.2861 O.2     
  12 C12           -6.1031     2.9846    -0.0240 C.ar    
  13 C13           -6.7601     4.2131     0.0987 C.ar    
  14 C14           -8.1373     4.2668     0.0182 C.ar    
  15 C15           -8.8702     3.0974    -0.1845 C.ar    
  16 C16           -8.2180     1.8778    -0.3063 C.ar    
  17 C17           -6.8433     1.8177    -0.2328 C.ar    
  18 Cl18          -0.9497    -2.0125     2.0413 Cl      
  19 Cl19           1.5866    -0.5438     1.2263 Cl      
  20 O20            1.0267     2.0844     0.0840 O.2     
  21 O21           -1.4193     3.2748    -0.2887 O.2     
  22 O22          -10.2247     3.1519    -0.2625 O.3     
  23 C23          -10.9127     1.9169    -0.4713 C.3     
  24 O24           -8.7794     5.4597     0.1371 O.3     
  25 C25           -7.9661     6.6164     0.3438 C.3     
  26 C26          -12.4194     2.1763    -0.5314 C.3     
  27 H27           -5.6422     0.4631     1.2236 H       
  28 H28           -6.1914     5.1176     0.2564 H       
  29 H29           -8.7891     0.9747    -0.4629 H       
  30 H30           -6.3385     0.8677    -0.3278 H       
  31 H31          -10.5830     1.4715    -1.4099 H       
  32 H32          -10.6939     1.2356     0.3509 H       
  33 H33           -8.6019     7.4984     0.4215 H       
  34 H34           -7.3941     6.4987     1.2642 H       
  35 H35           -7.2821     6.7345    -0.4966 H       
  36 H36          -12.7491     2.6218     0.4072 H       
  37 H37          -12.6382     2.8577    -1.3536 H       
  38 H38          -12.9442     1.2344    -0.6906 H       
@<TRIPOS>BOND
   1    1    2 1
   2    1   20 2
   3    1    6 1
   4    2    3 2
   5    2   19 1
   6    3    4 1
   7    3   18 1
   8    4    5 2
   9    4    7 1
  10    5    6 1
  11    5    9 1
  12    6   21 2
  13    7    8 1
  14    8    9 2
  15    8   27 1
  16    9   10 1
  17   10   11 2
  18   10   12 1
  19   12   13 ar
  20   12   17 ar
  21   13   14 ar
  22   13   28 1
  23   14   15 ar
  24   14   24 1
  25   15   16 ar
  26   15   22 1
  27   16   17 ar
  28   16   29 1
  29   17   30 1
  30   22   23 1
  31   23   26 1
  32   23   31 1
  33   23   32 1
  34   24   25 1
  35   25   33 1
  36   25   34 1
  37   25   35 1
  38   26   36 1
  39   26   37 1
  40   26   38 1

#	End of record

