#	Name: ASD11000083
#	Creating user name:	WinNT
#	Creation time:	15. 06. 2019 21:28

#	Modifying user name:	WinNT
#	Modification time:	15. 06. 2019 21:28

#	Program:	/corina/corina34_cracker 3.40 0067  02.08.2006

@<TRIPOS>MOLECULE
ASD11000083
  58   61    0    0    0
SMALL
NO_CHARGES


@<TRIPOS>ATOM
   1 C1             0.5921     1.5408     0.6836 C.ar    
   2 C2             0.4873     0.1635     0.6911 C.ar    
   3 C3             1.5663    -0.6162     0.3017 C.ar    
   4 C4             2.7506    -0.0129    -0.0947 C.ar    
   5 C5             2.8554     1.3644    -0.1022 C.ar    
   6 C6             1.7762     2.1441     0.2867 C.ar    
   7 O7             1.8792     3.5000     0.2789 O.3     
   8 C8             0.7288     4.2404     0.6916 C.3     
   9 O9             1.4631    -1.9721     0.3091 O.3     
  10 C10            2.6134    -2.7124    -0.1041 C.3     
  11 C11            2.3095    -4.2101    -0.0303 C.3     
  12 N12            1.5097    -4.6038    -1.1950 N.am    
  13 C13            3.6037    -4.9848    -0.0172 C.ar    
  14 C14            3.8236    -6.0655    -0.8423 C.ar    
  15 C15            4.5921    -4.5755     0.8678 C.ar    
  16 C16            5.0318    -6.7489    -0.7725 C.ar    
  17 C17            6.0177    -6.3479     0.1098 C.ar    
  18 C18            5.7979    -5.2493     0.9353 C.ar    
  19 C19            1.4111    -6.0425    -1.4919 C.3     
  20 C20            2.8093    -6.5457    -1.8470 C.3     
  21 C21            0.8896    -3.6856    -1.9623 C.2     
  22 O22            0.8729    -2.5196    -1.6207 O.2     
  23 C23            0.2283    -4.0978    -3.2225 C.ar    
  24 C24           -0.5669    -3.1879    -3.9147 C.ar    
  25 N25            0.4032    -5.3298    -3.6851 N.ar    
  26 C26           -0.1655    -5.7355    -4.7991 C.ar    
  27 C27           -0.9739    -4.8848    -5.5365 C.ar    
  28 C28           -1.1792    -3.5882    -5.0924 C.ar    
  29 O29            6.7621    -4.8419     1.8036 O.3     
  30 C30            6.4636    -3.7066     2.6184 C.3     
  31 O31            7.1965    -7.0233     0.1704 O.3     
  32 C32            7.3501    -8.1403    -0.7076 C.3     
  33 H33           -0.2495     2.1480     0.9825 H       
  34 H34           -0.4346    -0.3062     1.0005 H       
  35 H35            3.5910    -0.6200    -0.3972 H       
  36 H36            3.7777     1.8341    -0.4106 H       
  37 H37            0.9452     5.3074     0.6387 H       
  38 H38           -0.1088     4.0065     0.0345 H       
  39 H39            0.4725     3.9720     1.7165 H       
  40 H40            2.8696    -2.4438    -1.1290 H       
  41 H41            3.4512    -2.4789     0.5530 H       
  42 H42            1.7513    -4.4224     0.8815 H       
  43 H43            4.4181    -3.7236     1.5085 H       
  44 H44            5.2020    -7.6014    -1.4134 H       
  45 H45            1.0388    -6.5750    -0.6167 H       
  46 H46            0.7376    -6.1999    -2.3343 H       
  47 H47            3.0823    -6.1775    -2.8359 H       
  48 H48            2.8055    -7.6356    -1.8597 H       
  49 H49           -0.7050    -2.1847    -3.5393 H       
  50 H50           -0.0000    -6.7454    -5.1444 H       
  51 H51           -1.4361    -5.2277    -6.4504 H       
  52 H52           -1.8051    -2.9063    -5.6489 H       
  53 H53            6.2602    -2.8457     1.9816 H       
  54 H54            5.5881    -3.9196     3.2318 H       
  55 H55            7.3147    -3.4884     3.2635 H       
  56 H56            7.2570    -7.8057    -1.7408 H       
  57 H57            8.3326    -8.5878    -0.5577 H       
  58 H58            6.5778    -8.8792    -0.4940 H       
@<TRIPOS>BOND
   1    1    2 ar
   2    1    6 ar
   3    1   33 1
   4    2    3 ar
   5    2   34 1
   6    3    4 ar
   7    3    9 1
   8    4    5 ar
   9    4   35 1
  10    5    6 ar
  11    5   36 1
  12    6    7 1
  13    7    8 1
  14    8   37 1
  15    8   38 1
  16    8   39 1
  17    9   10 1
  18   10   11 1
  19   10   40 1
  20   10   41 1
  21   11   12 1
  22   11   13 1
  23   11   42 1
  24   12   19 1
  25   12   21 am
  26   13   14 ar
  27   13   15 ar
  28   14   16 ar
  29   14   20 1
  30   15   18 ar
  31   15   43 1
  32   16   17 ar
  33   16   44 1
  34   17   18 ar
  35   17   31 1
  36   18   29 1
  37   19   20 1
  38   19   45 1
  39   19   46 1
  40   20   47 1
  41   20   48 1
  42   21   22 2
  43   21   23 1
  44   23   24 ar
  45   23   25 ar
  46   24   28 ar
  47   24   49 1
  48   25   26 ar
  49   26   27 ar
  50   26   50 1
  51   27   28 ar
  52   27   51 1
  53   28   52 1
  54   29   30 1
  55   30   53 1
  56   30   54 1
  57   30   55 1
  58   31   32 1
  59   32   56 1
  60   32   57 1
  61   32   58 1

#	End of record

