#	Name: ASD10610195
#	Creating user name:	WinNT
#	Creation time:	15. 06. 2019 21:28

#	Modifying user name:	WinNT
#	Modification time:	15. 06. 2019 21:28

#	Program:	/corina/corina34_cracker 3.40 0067  02.08.2006

@<TRIPOS>MOLECULE
ASD10610195
  58   61    0    0    0
SMALL
NO_CHARGES


@<TRIPOS>ATOM
   1 C1             0.0182     1.3906    -0.5241 C.ar    
   2 C2             0.0397    -0.0122    -0.6360 C.ar    
   3 C3             1.2630    -0.6743    -0.7627 C.ar    
   4 C4             2.4398     0.0490    -0.7775 C.ar    
   5 C5             2.4154     1.4285    -0.6668 C.ar    
   6 C6             1.2149     2.0999    -0.5411 C.ar    
   7 C7            -1.2718     2.1083    -0.3950 C.ar    
   8 C8            -1.4502     3.0501     0.6175 C.ar    
   9 C9            -2.6555     3.7164     0.7323 C.ar    
  10 C10           -3.6845     3.4488    -0.1566 C.ar    
  11 C11           -3.5111     2.5154    -1.1620 C.ar    
  12 C12           -2.3095     1.8484    -1.2892 C.ar    
  13 C13           -1.2201    -0.7775    -0.6190 C.2     
  14 O14           -1.8035    -1.0104    -1.6591 O.2     
  15 O15           -1.7247    -1.2188     0.5500 O.3     
  16 C16           -4.9973     4.1773    -0.0267 C.3     
  17 C17           -4.9105     5.5189    -0.7572 C.3     
  18 N18           -6.0656     3.3677    -0.6177 N.am    
  19 C19           -7.3388     3.5276    -0.2057 C.2     
  20 O20           -7.5886     4.2758     0.7156 O.2     
  21 O21           -9.5601     1.9317     0.6422 O.3     
  22 C22           -8.6939     1.3623    -0.3480 C.3     
  23 C23           -8.4521     2.7766    -0.8896 C.3     
  24 C24           -9.8404     2.9963    -0.2759 C.3     
  25 N25           -8.4094     2.8702    -2.3510 N.am    
  26 C26           -8.4452     4.0769    -2.9503 C.2     
  27 O27           -8.4192     5.0899    -2.2790 O.2     
  28 C28           -8.6437     4.3341    -7.0944 C.ar    
  29 N29           -8.6170     5.4463    -6.3863 N.ar    
  30 C30           -8.5542     5.4109    -5.0668 C.ar    
  31 C31           -8.5161     4.1684    -4.4241 C.ar    
  32 C32           -8.5466     3.0148    -5.2159 C.ar    
  33 N33           -8.6096     3.1430    -6.5297 N.ar    
  34 F34           -2.8310     4.6294     1.7125 F       
  35 Cl35           1.3045    -2.4043    -0.9011 Cl      
  36 C36           -2.9685    -1.9656     0.4911 C.3     
  37 H37            3.3845    -0.4650    -0.8756 H       
  38 H38            3.3416     1.9838    -0.6791 H       
  39 H39            1.2052     3.1764    -0.4557 H       
  40 H40           -0.6486     3.2581     1.3106 H       
  41 H41           -4.3165     2.3109    -1.8519 H       
  42 H42           -2.1748     1.1227    -2.0777 H       
  43 H43           -5.2137     4.3509     1.0274 H       
  44 H44           -4.1156     6.1213    -0.3174 H       
  45 H45           -4.6941     5.3453    -1.8113 H       
  46 H46           -5.8601     6.0458    -0.6632 H       
  47 H47           -5.8566     2.7165    -1.3056 H       
  48 H48           -7.8002     0.9012     0.0724 H       
  49 H49           -9.2114     0.7116    -1.0529 H       
  50 H50          -10.6572     2.7722    -0.9620 H       
  51 H51           -9.9512     3.9668     0.2076 H       
  52 H52           -8.3553     2.0637    -2.8872 H       
  53 H53           -8.6998     4.4009    -8.1709 H       
  54 H54           -8.5323     6.3261    -4.4938 H       
  55 H55           -8.5186     2.0359    -4.7608 H       
  56 H56           -3.7470    -1.3408     0.0533 H       
  57 H57           -2.8292    -2.8557    -0.1224 H       
  58 H58           -3.2631    -2.2609     1.4981 H       
@<TRIPOS>BOND
   1    1    2 ar
   2    1    6 ar
   3    1    7 1
   4    2    3 ar
   5    2   13 1
   6    3    4 ar
   7    3   35 1
   8    4    5 ar
   9    4   37 1
  10    5    6 ar
  11    5   38 1
  12    6   39 1
  13    7    8 ar
  14    7   12 ar
  15    8    9 ar
  16    8   40 1
  17    9   10 ar
  18    9   34 1
  19   10   11 ar
  20   10   16 1
  21   11   12 ar
  22   11   41 1
  23   12   42 1
  24   13   14 2
  25   13   15 1
  26   15   36 1
  27   16   17 1
  28   16   18 1
  29   16   43 1
  30   17   44 1
  31   17   45 1
  32   17   46 1
  33   18   19 am
  34   18   47 1
  35   19   20 2
  36   19   23 1
  37   21   22 1
  38   21   24 1
  39   22   23 1
  40   22   48 1
  41   22   49 1
  42   23   24 1
  43   23   25 1
  44   24   50 1
  45   24   51 1
  46   25   26 am
  47   25   52 1
  48   26   27 2
  49   26   31 1
  50   28   29 ar
  51   28   33 ar
  52   28   53 1
  53   29   30 ar
  54   30   31 ar
  55   30   54 1
  56   31   32 ar
  57   32   33 ar
  58   32   55 1
  59   36   56 1
  60   36   57 1
  61   36   58 1

#	End of record

