#	Name: ASD14740006
#	Creating user name:	WinNT
#	Creation time:	15. 06. 2019 21:31

#	Modifying user name:	WinNT
#	Modification time:	15. 06. 2019 21:31

#	Program:	/corina/corina34_cracker 3.40 0067  02.08.2006

@<TRIPOS>MOLECULE
ASD14740006
  75   80    0    0    0
SMALL
NO_CHARGES


@<TRIPOS>ATOM
   1 C1            -1.1201     0.8669     1.5280 C.ar    
   2 C2            -0.4662    -0.1383     0.8192 C.ar    
   3 C3             0.4449    -0.9576     1.4644 C.ar    
   4 C4             0.7048    -0.7755     2.8161 C.ar    
   5 C5             0.0513     0.2270     3.5207 C.ar    
   6 C6            -0.8577     1.0456     2.8781 C.ar    
   7 N7             1.6254    -1.6029     3.4689 N.3     
   8 C8             1.7476    -1.2386     4.8873 C.3     
   9 C9             2.7006    -2.2144     5.5816 C.3     
  10 N10            4.0100    -2.1737     4.9157 N.3     
  11 C11            3.8878    -2.5380     3.4972 C.3     
  12 C12            2.9348    -1.5622     2.8029 C.3     
  13 C13            4.9764    -3.0423     5.6009 C.3     
  14 N14           -2.0395     1.7021     0.8749 N.pl3   
  15 C15           -2.1984     3.0137     1.2886 C.ar    
  16 C16           -1.5174     4.7465     2.6528 C.ar    
  17 N17           -1.3902     3.5017     2.2183 N.ar    
  18 N18           -3.1531     3.7551     0.7409 N.ar    
  19 C19           -3.3227     5.0096     1.1203 C.ar    
  20 C20           -2.5129     5.5460     2.1213 C.ar    
  21 C21           -2.7260     6.9400     2.6397 C.3     
  22 C22           -4.2803     7.1816     0.7322 C.2     
  23 C23           -3.2095     7.8796     1.5326 C.3     
  24 N24           -4.2914     5.8300     0.5410 N.pl3   
  25 C25           -5.3520     5.4848    -0.2383 C.2     
  26 C26           -6.0394     6.5976    -0.5572 C.2     
  27 C27           -5.3368     7.7219     0.0777 C.2     
  28 C28           -5.6992     9.1474     0.0079 C.2     
  29 O29           -5.0164     9.9770     0.5780 O.2     
  30 N30           -6.7874     9.5328    -0.6875 N.am    
  31 O31           -0.7226    -0.3151    -0.5045 O.3     
  32 C32           -0.0157    -1.3651    -1.1676 C.3     
  33 C33           -7.1970    10.8699    -0.6607 C.ar    
  34 C34           -6.7102    13.1979    -0.9665 C.ar    
  35 C35           -6.3025    11.8786    -0.9941 C.ar    
  36 C36           -8.5008    11.1913    -0.3061 C.ar    
  37 C37           -8.9022    12.5125    -0.2806 C.ar    
  38 C38           -8.0074    13.5149    -0.6075 C.ar    
  39 C39           -4.8884    11.5341    -1.3849 C.3     
  40 C40           -9.4767    10.0995     0.0499 C.3     
  41 H41            0.9527    -1.7377     0.9167 H       
  42 H42            0.2539     0.3671     4.5722 H       
  43 H43           -1.3647     1.8249     3.4278 H       
  44 H44            2.1408    -0.2254     4.9699 H       
  45 H45            0.7673    -1.2884     5.3613 H       
  46 H46            2.8154    -1.9287     6.6272 H       
  47 H47            2.2939    -3.2240     5.5227 H       
  48 H48            4.8681    -2.4882     3.0232 H       
  49 H49            3.4946    -3.5512     3.4146 H       
  50 H50            2.8200    -1.8479     1.7573 H       
  51 H51            3.3415    -0.5527     2.8619 H       
  52 H52            4.6117    -4.0694     5.5922 H       
  53 H53            5.9367    -2.9934     5.0876 H       
  54 H54            5.0979    -2.7086     6.6315 H       
  55 H55           -2.5637     1.3604     0.1337 H       
  56 H56           -0.8530     5.1318     3.4121 H       
  57 H57           -3.4700     6.9145     3.4358 H       
  58 H58           -1.7866     7.3179     3.0431 H       
  59 H59           -3.6188     8.7869     1.9768 H       
  60 H60           -2.3744     8.1352     0.8803 H       
  61 H61           -5.6018     4.4815    -0.5502 H       
  62 H62           -6.9327     6.6533    -1.1615 H       
  63 H63           -7.2865     8.8830    -1.2066 H       
  64 H64           -0.3124    -1.3973    -2.2160 H       
  65 H65            1.0565    -1.1810    -1.0990 H       
  66 H66           -0.2518    -2.3179    -0.6937 H       
  67 H67           -6.0149    13.9828    -1.2253 H       
  68 H68           -9.9160    12.7631    -0.0053 H       
  69 H69           -8.3236    14.5474    -0.5864 H       
  70 H70           -4.2582    11.5228    -0.4957 H       
  71 H71           -4.8708    10.5509    -1.8552 H       
  72 H72           -4.5136    12.2792    -2.0866 H       
  73 H73           -9.4276     9.9033     1.1209 H       
  74 H74          -10.4861    10.4135    -0.2160 H       
  75 H75           -9.2224     9.1921    -0.4978 H       
@<TRIPOS>BOND
   1    1    2 ar
   2    1    6 ar
   3    1   14 1
   4    2    3 ar
   5    2   31 1
   6    3    4 ar
   7    3   41 1
   8    4    5 ar
   9    4    7 1
  10    5    6 ar
  11    5   42 1
  12    6   43 1
  13    7    8 1
  14    7   12 1
  15    8    9 1
  16    8   44 1
  17    8   45 1
  18    9   10 1
  19    9   46 1
  20    9   47 1
  21   10   11 1
  22   10   13 1
  23   11   12 1
  24   11   48 1
  25   11   49 1
  26   12   50 1
  27   12   51 1
  28   13   52 1
  29   13   53 1
  30   13   54 1
  31   14   15 1
  32   14   55 1
  33   15   18 ar
  34   15   17 ar
  35   16   17 ar
  36   16   20 ar
  37   16   56 1
  38   18   19 ar
  39   19   20 ar
  40   19   24 1
  41   20   21 1
  42   21   23 1
  43   21   57 1
  44   21   58 1
  45   22   23 1
  46   22   27 2
  47   22   24 1
  48   23   59 1
  49   23   60 1
  50   24   25 1
  51   25   26 2
  52   25   61 1
  53   26   27 1
  54   26   62 1
  55   27   28 1
  56   28   29 2
  57   28   30 am
  58   30   33 1
  59   30   63 1
  60   31   32 1
  61   32   64 1
  62   32   65 1
  63   32   66 1
  64   33   36 ar
  65   33   35 ar
  66   34   35 ar
  67   34   38 ar
  68   34   67 1
  69   35   39 1
  70   36   37 ar
  71   36   40 1
  72   37   38 ar
  73   37   68 1
  74   38   69 1
  75   39   70 1
  76   39   71 1
  77   39   72 1
  78   40   73 1
  79   40   74 1
  80   40   75 1

#	End of record

