#	Name: ASD14170009
#	Creating user name:	WinNT
#	Creation time:	15. 06. 2019 21:30

#	Modifying user name:	WinNT
#	Modification time:	15. 06. 2019 21:30

#	Program:	/corina/corina34_cracker 3.40 0067  02.08.2006

@<TRIPOS>MOLECULE
ASD14170009
  45   47    0    0    0
SMALL
NO_CHARGES


@<TRIPOS>ATOM
   1 C1             0.0948     1.3993     0.0547 C.2     
   2 C2             0.1474     0.0112     0.2857 C.2     
   3 C3             1.3917    -0.4272    -0.1289 C.2     
   4 N4             2.0631     0.6512    -0.5913 N.pl3   
   5 N5             1.2338     1.7715    -0.4652 N.2     
   6 N6             1.8647    -1.7353    -0.0794 N.am    
   7 C7            -1.0769     2.2997     0.3506 C.3     
   8 F8            -0.9650     2.7979     1.6531 F       
   9 F9            -1.0873     3.3646    -0.5567 F       
  10 F10           -2.2660     1.5726     0.2299 F       
  11 C11           -0.9313    -0.8253     0.8665 C.ar    
  12 C12           -2.1340    -0.9893     0.1816 C.ar    
  13 C13           -3.1347    -1.7683     0.7257 C.ar    
  14 C14           -2.9452    -2.3868     1.9507 C.ar    
  15 C15           -1.7516    -2.2262     2.6352 C.ar    
  16 C16           -0.7430    -1.4541     2.0959 C.ar    
  17 F17           -3.9277    -3.1486     2.4796 F       
  18 C18            1.0792    -2.7519    -0.4869 C.2     
  19 N19            1.5746    -4.0038    -0.5479 N.am    
  20 O20           -0.0766    -2.5395    -0.7995 O.2     
  21 C21            0.7944    -5.0407    -1.0744 C.ar    
  22 C22            0.1558    -7.3521    -1.0986 C.ar    
  23 C23           -0.7469    -7.0903    -2.1155 C.ar    
  24 C24           -0.8759    -5.8056    -2.6157 C.ar    
  25 C25           -0.1076    -4.7814    -2.0976 C.ar    
  26 C26            0.9259    -6.3307    -0.5777 C.ar    
  27 F27           -1.4993    -8.0908    -2.6237 F       
  28 C28            3.4250     0.6478    -1.1311 C.3     
  29 C29            3.3833     0.2905    -2.6182 C.3     
  30 O30            4.7117     0.2872    -3.1448 O.3     
  31 H31            2.7597    -1.9154     0.2484 H       
  32 H32           -2.2827    -0.5072    -0.7733 H       
  33 H33           -4.0671    -1.8957     0.1958 H       
  34 H34           -1.6084    -2.7100     3.5901 H       
  35 H35            0.1891    -1.3336     2.6278 H       
  36 H36            2.4716    -4.1865    -0.2271 H       
  37 H37            0.2549    -8.3548    -0.7098 H       
  38 H38           -1.5803    -5.6036    -3.4091 H       
  39 H39           -0.2087    -3.7795    -2.4878 H       
  40 H40            1.6301    -6.5353     0.2151 H       
  41 H41            3.8674     1.6362    -1.0073 H       
  42 H42            4.0257    -0.0886    -0.5973 H       
  43 H43            2.9409    -0.6980    -2.7421 H       
  44 H44            2.7826     1.0269    -3.1521 H       
  45 H45            4.7614     0.0682    -4.0854 H       
@<TRIPOS>BOND
   1    1    2 1
   2    1    5 2
   3    1    7 1
   4    2    3 2
   5    2   11 1
   6    3    4 1
   7    3    6 1
   8    4    5 1
   9    4   28 1
  10    6   18 am
  11    6   31 1
  12    7    8 1
  13    7    9 1
  14    7   10 1
  15   11   12 ar
  16   11   16 ar
  17   12   13 ar
  18   12   32 1
  19   13   14 ar
  20   13   33 1
  21   14   15 ar
  22   14   17 1
  23   15   16 ar
  24   15   34 1
  25   16   35 1
  26   18   19 am
  27   18   20 2
  28   19   21 1
  29   19   36 1
  30   21   26 ar
  31   21   25 ar
  32   22   23 ar
  33   22   26 ar
  34   22   37 1
  35   23   24 ar
  36   23   27 1
  37   24   25 ar
  38   24   38 1
  39   25   39 1
  40   26   40 1
  41   28   29 1
  42   28   41 1
  43   28   42 1
  44   29   30 1
  45   29   43 1
  46   29   44 1
  47   30   45 1

#	End of record

