#	Name: ASD10160230
#	Creating user name:	WinNT
#	Creation time:	15. 06. 2019 21:25

#	Modifying user name:	WinNT
#	Modification time:	15. 06. 2019 21:25

#	Program:	/corina/corina34_cracker 3.40 0067  02.08.2006

@<TRIPOS>MOLECULE
ASD10160230
  41   43    0    0    0
SMALL
NO_CHARGES


@<TRIPOS>ATOM
   1 C1            -0.1351     1.4673     0.0331 C.2     
   2 C2            -0.0843    -0.0063     0.0190 C.ar    
   3 C3             1.1408    -0.6651    -0.1384 C.ar    
   4 C4             1.1832    -2.0448    -0.1505 C.ar    
   5 C5             0.0132    -2.7784    -0.0068 C.ar    
   6 C6            -1.2075    -2.1268     0.1500 C.ar    
   7 C7            -1.2589    -0.7499     0.1686 C.ar    
   8 O8             0.8882     2.1121    -0.0921 O.2     
   9 N9            -1.3164     2.0995     0.1792 N.am    
  10 S10           -1.3734     3.7544     0.1950 S.o2    
  11 O11           -2.7485     4.0558     0.3887 O.2     
  12 O12           -0.3985     4.1295     1.1584 O.2     
  13 C13           -0.8433     4.2416    -1.4700 C.3     
  14 O14            0.0593    -4.1349    -0.0197 O.3     
  15 N15           -0.1600    -8.1467    -2.6133 N.ar    
  16 C16            0.1479    -8.8748    -1.5673 C.ar    
  17 C17            0.3800    -8.3026    -0.3191 C.ar    
  18 C18            0.2891    -6.9480    -0.1625 C.ar    
  19 C19           -0.0408    -6.1708    -1.2865 C.ar    
  20 C20           -0.1522    -4.7686    -1.2014 C.ar    
  21 C21           -0.4781    -4.0468    -2.3288 C.ar    
  22 C22           -0.6973    -4.6891    -3.5434 C.ar    
  23 C23           -0.5961    -6.0426    -3.6529 C.ar    
  24 C24           -0.2649    -6.8162    -2.5277 C.ar    
  25 C25           -0.8391    -6.7111    -4.9815 C.3     
  26 F26           -2.3427    -2.8459     0.2893 F       
  27 F27            2.2795     0.0482    -0.2787 F       
  28 H28            2.1277    -2.5542    -0.2722 H       
  29 H29           -2.2057    -0.2457     0.2944 H       
  30 H30           -2.1331     1.5851     0.2751 H       
  31 H31           -1.5256     3.8179    -2.2070 H       
  32 H32           -0.8511     5.3286    -1.5502 H       
  33 H33            0.1652     3.8709    -1.6532 H       
  34 H34            0.2232    -9.9466    -1.6766 H       
  35 H35            0.6312    -8.9287     0.5244 H       
  36 H36            0.4655    -6.4874     0.7983 H       
  37 H37           -0.5647    -2.9720    -2.2691 H       
  38 H38           -0.9524    -4.1040    -4.4146 H       
  39 H39            0.0998    -6.7792    -5.5310 H       
  40 H40           -1.2372    -7.7124    -4.8170 H       
  41 H41           -1.5555    -6.1253    -5.5574 H       
@<TRIPOS>BOND
   1    1    2 1
   2    1    8 2
   3    1    9 am
   4    2    3 ar
   5    2    7 ar
   6    3    4 ar
   7    3   27 1
   8    4    5 ar
   9    4   28 1
  10    5    6 ar
  11    5   14 1
  12    6    7 ar
  13    6   26 1
  14    7   29 1
  15    9   10 am
  16    9   30 1
  17   10   11 2
  18   10   12 2
  19   10   13 1
  20   13   31 1
  21   13   32 1
  22   13   33 1
  23   14   20 1
  24   15   16 ar
  25   15   24 ar
  26   16   17 ar
  27   16   34 1
  28   17   18 ar
  29   17   35 1
  30   18   19 ar
  31   18   36 1
  32   19   20 ar
  33   19   24 ar
  34   20   21 ar
  35   21   22 ar
  36   21   37 1
  37   22   23 ar
  38   22   38 1
  39   23   24 ar
  40   23   25 1
  41   25   39 1
  42   25   40 1
  43   25   41 1

#	End of record

