#	Name: ASD13490046
#	Creating user name:	WinNT
#	Creation time:	15. 06. 2019 21:30

#	Modifying user name:	WinNT
#	Modification time:	15. 06. 2019 21:30

#	Program:	/corina/corina34_cracker 3.40 0067  02.08.2006

@<TRIPOS>MOLECULE
ASD13490046
  45   49    0    0    0
SMALL
NO_CHARGES


@<TRIPOS>ATOM
   1 C1            -0.0167     1.3828     0.0096 C.ar    
   2 C2             0.0021    -0.0041     0.0020 C.ar    
   3 C3             1.2121    -0.6827    -0.0132 C.ar    
   4 C4             2.3989     0.0254    -0.0075 C.ar    
   5 C5             2.3847     1.4127     0.0142 C.ar    
   6 C6             1.1739     2.0997     0.0021 C.ar    
   7 N7            -1.2041    -0.7216     0.0101 N.pl3   
   8 C8            -2.4558    -0.1959     0.0249 C.2     
   9 N9            -3.3189    -1.1755     0.0279 N.2     
  10 C10           -2.6633    -2.3458     0.0154 C.2     
  11 C11           -1.3409    -2.0865    -0.0014 C.2     
  12 Cl12          -3.3922    -3.9214     0.0148 Cl      
  13 N13            1.1218     3.4908    -0.0563 N.am    
  14 N14            3.6009     2.1074     0.0892 N.pl3   
  15 C15            1.9045     4.3452     0.5838 C.2     
  16 C16            3.8554     2.9092     1.1879 C.ar    
  17 C17            3.0083     3.9876     1.4798 C.ar    
  18 O18            1.6894     5.5297     0.4135 O.2     
  19 C19            3.2375     4.7307     2.6434 C.ar    
  20 N20            4.8931     2.6449     1.9695 N.ar    
  21 C21            5.1384     3.3450     3.0595 C.ar    
  22 C22            4.3203     4.3930     3.4366 C.ar    
  23 C23            6.3333     2.9965     3.9091 C.3     
  24 C24            6.2663     1.5421     4.2978 C.ar    
  25 C25            5.5541    -0.1683     5.8144 C.ar    
  26 C26            5.6155     1.1659     5.4579 C.ar    
  27 C27            6.8508     0.5835     3.4912 C.ar    
  28 C28            6.7894    -0.7507     3.8478 C.ar    
  29 C29            6.1440    -1.1263     5.0110 C.ar    
  30 H30           -0.9605     1.9078     0.0170 H       
  31 H31            1.2265    -1.7624    -0.0290 H       
  32 H32            3.3408    -0.5029    -0.0196 H       
  33 H33           -2.6972     0.8568     0.0332 H       
  34 H34           -0.5425    -2.8136    -0.0186 H       
  35 H35            0.4380     3.8746    -0.6273 H       
  36 H36            4.2565     2.0264    -0.6211 H       
  37 H37            2.5856     5.5476     2.9156 H       
  38 H38            4.5239     4.9432     4.3433 H       
  39 H39            7.2469     3.1799     3.3437 H       
  40 H40            6.3322     3.6132     4.8079 H       
  41 H41            5.0460    -0.4622     6.7209 H       
  42 H42            5.1554     1.9144     6.0859 H       
  43 H43            7.3551     0.8770     2.5824 H       
  44 H44            7.2455    -1.4996     3.2173 H       
  45 H45            6.0960    -2.1686     5.2895 H       
@<TRIPOS>BOND
   1    1    2 ar
   2    1    6 ar
   3    1   30 1
   4    2    3 ar
   5    2    7 1
   6    3    4 ar
   7    3   31 1
   8    4    5 ar
   9    4   32 1
  10    5    6 ar
  11    5   14 1
  12    6   13 1
  13    7    8 1
  14    7   11 1
  15    8    9 2
  16    8   33 1
  17    9   10 1
  18   10   11 2
  19   10   12 1
  20   11   34 1
  21   13   15 am
  22   13   35 1
  23   14   16 1
  24   14   36 1
  25   15   17 1
  26   15   18 2
  27   16   20 ar
  28   16   17 ar
  29   17   19 ar
  30   19   22 ar
  31   19   37 1
  32   20   21 ar
  33   21   22 ar
  34   21   23 1
  35   22   38 1
  36   23   24 1
  37   23   39 1
  38   23   40 1
  39   24   27 ar
  40   24   26 ar
  41   25   26 ar
  42   25   29 ar
  43   25   41 1
  44   26   42 1
  45   27   28 ar
  46   27   43 1
  47   28   29 ar
  48   28   44 1
  49   29   45 1

#	End of record

