#	Name: ASD13490026
#	Creating user name:	WinNT
#	Creation time:	15. 06. 2019 21:30

#	Modifying user name:	WinNT
#	Modification time:	15. 06. 2019 21:30

#	Program:	/corina/corina34_cracker 3.40 0067  02.08.2006

@<TRIPOS>MOLECULE
ASD13490026
  62   67    0    0    0
SMALL
NO_CHARGES


@<TRIPOS>ATOM
   1 N1             0.0788     1.2829    -0.1917 N.ar    
   2 C2             0.0723    -0.0245     0.0065 C.ar    
   3 C3             1.1190    -0.6451     0.6852 C.ar    
   4 C4             2.1754     0.1282     1.1537 C.ar    
   5 C5             2.1465     1.4941     0.9263 C.ar    
   6 C6             1.0708     2.0464     0.2425 C.ar    
   7 N7             1.1069    -2.0345     0.8940 N.pl3   
   8 C8             2.1280    -2.9069     0.6220 C.2     
   9 C9             1.6955    -4.1340     0.9717 C.2     
  10 N10            0.4459    -4.0154     1.4440 N.2     
  11 C11            0.0878    -2.7605     1.4064 C.2     
  12 C12            2.4790    -5.4158     0.8529 C.3     
  13 O13           -0.9641    -0.7690    -0.4553 O.3     
  14 C14           -2.0066    -0.0740    -1.1426 C.3     
  15 N15            1.0349     3.4194     0.0101 N.pl3   
  16 C16            2.1984     4.1708     0.1078 C.ar    
  17 N17            3.3510     3.5424     0.2879 N.ar    
  18 N18            2.1170     5.4830     0.0127 N.ar    
  19 C19            4.4183     5.6337     0.2954 C.ar    
  20 C20            4.4774     4.2410     0.3861 C.ar    
  21 N21            5.6922     3.5976     0.5761 N.3     
  22 C22            5.5120     2.1416     0.6412 C.3     
  23 C23            6.8804     1.4593     0.7045 C.3     
  24 C24            7.6356     1.9547     1.9409 C.3     
  25 C25            7.7674     3.4786     1.8722 C.3     
  26 C26            6.3733     4.1025     1.7750 C.3     
  27 C27            3.2018     6.2650     0.0983 C.ar    
  28 C28            3.2566     7.7712     0.0015 C.3     
  29 C29            4.5612     8.2911     0.6019 C.3     
  30 S30            5.6850     6.8725     0.3825 S.3     
  31 C31            5.0764     9.6309     0.0972 C.3     
  32 C32            4.4987     8.8781     2.0043 C.3     
  33 C33            5.5767     9.8738     1.5343 C.3     
  34 H34            2.9998    -0.3260     1.6833 H       
  35 H35            2.9514     2.1231     1.2770 H       
  36 H36            3.0936    -2.6586     0.2069 H       
  37 H37           -0.8654    -2.3678     1.7283 H       
  38 H38            3.0394    -5.5856     1.7723 H       
  39 H39            1.7934    -6.2466     0.6866 H       
  40 H40            3.1710    -5.3422     0.0140 H       
  41 H41           -2.7705    -0.7847    -1.4580 H       
  42 H42           -2.4510     0.6653    -0.4763 H       
  43 H43           -1.5933     0.4274    -2.0178 H       
  44 H44            0.1971     3.8506    -0.2200 H       
  45 H45            4.9373     1.8863     1.5315 H       
  46 H46            4.9774     1.8018    -0.2458 H       
  47 H47            6.7459     0.3795     0.7686 H       
  48 H48            7.4504     1.7030    -0.1921 H       
  49 H49            7.0850     1.6768     2.8396 H       
  50 H50            8.6278     1.5040     1.9665 H       
  51 H51            8.2667     3.8416     2.7705 H       
  52 H52            8.3514     3.7542     0.9940 H       
  53 H53            6.4643     5.1868     1.7115 H       
  54 H54            5.7946     3.8379     2.6600 H       
  55 H55            3.1977     8.0680    -1.0456 H       
  56 H56            2.4138     8.1988     0.5446 H       
  57 H57            5.8775     9.5439    -0.6368 H       
  58 H58            4.2868    10.3151    -0.2135 H       
  59 H59            3.5432     9.3462     2.2412 H       
  60 H60            4.8421     8.1949     2.7810 H       
  61 H61            6.5953     9.5259     1.7055 H       
  62 H62            5.4122    10.8922     1.8864 H       
@<TRIPOS>BOND
   1    1    2 ar
   2    1    6 ar
   3    2    3 ar
   4    2   13 1
   5    3    4 ar
   6    3    7 1
   7    4    5 ar
   8    4   34 1
   9    5    6 ar
  10    5   35 1
  11    6   15 1
  12    7    8 1
  13    7   11 1
  14    8    9 2
  15    8   36 1
  16    9   10 1
  17    9   12 1
  18   10   11 2
  19   11   37 1
  20   12   38 1
  21   12   39 1
  22   12   40 1
  23   13   14 1
  24   14   41 1
  25   14   42 1
  26   14   43 1
  27   15   16 1
  28   15   44 1
  29   16   18 ar
  30   16   17 ar
  31   17   20 ar
  32   18   27 ar
  33   19   20 ar
  34   19   30 1
  35   19   27 ar
  36   20   21 1
  37   21   22 1
  38   21   26 1
  39   22   23 1
  40   22   45 1
  41   22   46 1
  42   23   24 1
  43   23   47 1
  44   23   48 1
  45   24   25 1
  46   24   49 1
  47   24   50 1
  48   25   26 1
  49   25   51 1
  50   25   52 1
  51   26   53 1
  52   26   54 1
  53   27   28 1
  54   28   29 1
  55   28   55 1
  56   28   56 1
  57   29   30 1
  58   29   31 1
  59   29   32 1
  60   31   33 1
  61   31   57 1
  62   31   58 1
  63   32   33 1
  64   32   59 1
  65   32   60 1
  66   33   61 1
  67   33   62 1

#	End of record

