#	Name: ASD11000259
#	Creating user name:	WinNT
#	Creation time:	15. 06. 2019 21:29

#	Modifying user name:	WinNT
#	Modification time:	15. 06. 2019 21:29

#	Program:	/corina/corina34_cracker 3.40 0067  02.08.2006

@<TRIPOS>MOLECULE
ASD11000259
  46   49    0    0    0
SMALL
NO_CHARGES


@<TRIPOS>ATOM
   1 C1            -0.0162     1.3201     0.0177 C.ar    
   2 N2             0.0010    -0.0048     0.0230 N.ar    
   3 C3             1.1465    -0.6660     0.0169 C.ar    
   4 C4             2.3370     0.0439     0.0047 C.ar    
   5 C5             2.2826     1.4290    -0.0006 C.ar    
   6 N6             1.1036     2.0284     0.0061 N.ar    
   7 N7            -1.2337     1.9804     0.0186 N.pl3   
   8 C8             3.6617    -0.6745    -0.0022 C.3     
   9 O9             4.0703    -0.9076    -1.3515 O.3     
  10 N10            8.8037    -3.4822    -2.3533 N.pl3   
  11 N11            8.7682    -3.4758    -3.7515 N.2     
  12 C12            7.6817    -2.8910    -4.1687 C.2     
  13 C13            6.9232    -2.4693    -2.9955 C.ar    
  14 C14            5.7039    -1.8060    -2.8139 C.ar    
  15 C15            5.2539    -1.5511    -1.5358 C.ar    
  16 C16            6.0059    -1.9489    -0.4314 C.ar    
  17 C17            7.1971    -2.5957    -0.5940 C.ar    
  18 C18            7.6751    -2.8664    -1.8737 C.ar    
  19 C19            7.2796    -2.6863    -5.6066 C.3     
  20 F20            8.2010    -3.3246    -6.4438 F       
  21 F21            6.0064    -3.2270    -5.8163 F       
  22 F22            7.2581    -1.3174    -5.8945 F       
  23 C23           -1.2735     3.3756     0.1321 C.ar    
  24 C24           -2.2517     4.0994    -0.5369 C.ar    
  25 C25           -2.2906     5.4752    -0.4241 C.ar    
  26 C26           -1.3529     6.1341     0.3572 C.ar    
  27 C27           -0.3751     5.4119     1.0254 C.ar    
  28 C28           -0.3384     4.0356     0.9183 C.ar    
  29 O29           -1.3918     7.4889     0.4678 O.3     
  30 C30           -0.3956     8.1018     1.2888 C.3     
  31 F31            0.8741     7.8022     0.7834 F       
  32 F32           -0.5814     9.4884     1.2909 F       
  33 F33           -0.5042     7.6147     2.5957 F       
  34 H34            1.1542    -1.7460     0.0216 H       
  35 H35            3.1919     2.0116    -0.0097 H       
  36 H36           -2.0588     1.4764    -0.0594 H       
  37 H37            4.4093    -0.0631     0.5033 H       
  38 H38            3.5608    -1.6278     0.5167 H       
  39 H39            9.5105    -3.8644    -1.8100 H       
  40 H40            5.1205    -1.4958    -3.6682 H       
  41 H41            5.6420    -1.7427     0.5643 H       
  42 H42            7.7694    -2.8975     0.2708 H       
  43 H43           -2.9817     3.5865    -1.1456 H       
  44 H44           -3.0511     6.0382    -0.9447 H       
  45 H45            0.3549     5.9258     1.6333 H       
  46 H46            0.4200     3.4731     1.4424 H       
@<TRIPOS>BOND
   1    1    2 ar
   2    1    6 ar
   3    1    7 1
   4    2    3 ar
   5    3    4 ar
   6    3   34 1
   7    4    5 ar
   8    4    8 1
   9    5    6 ar
  10    5   35 1
  11    7   23 1
  12    7   36 1
  13    8    9 1
  14    8   37 1
  15    8   38 1
  16    9   15 1
  17   10   11 1
  18   10   18 1
  19   10   39 1
  20   11   12 2
  21   12   13 1
  22   12   19 1
  23   13   14 ar
  24   13   18 ar
  25   14   15 ar
  26   14   40 1
  27   15   16 ar
  28   16   17 ar
  29   16   41 1
  30   17   18 ar
  31   17   42 1
  32   19   20 1
  33   19   21 1
  34   19   22 1
  35   23   24 ar
  36   23   28 ar
  37   24   25 ar
  38   24   43 1
  39   25   26 ar
  40   25   44 1
  41   26   27 ar
  42   26   29 1
  43   27   28 ar
  44   27   45 1
  45   28   46 1
  46   29   30 1
  47   30   31 1
  48   30   32 1
  49   30   33 1

#	End of record

