#	Name: ASD13490042
#	Creating user name:	WinNT
#	Creation time:	15. 06. 2019 21:30

#	Modifying user name:	WinNT
#	Modification time:	15. 06. 2019 21:30

#	Program:	/corina/corina34_cracker 3.40 0067  02.08.2006

@<TRIPOS>MOLECULE
ASD13490042
  44   48    0    0    0
SMALL
NO_CHARGES


@<TRIPOS>ATOM
   1 C1            -0.0167     1.3830     0.0096 C.ar    
   2 C2             0.0021    -0.0041     0.0020 C.ar    
   3 C3             1.2114    -0.6863    -0.0132 C.ar    
   4 C4             2.3982     0.0198    -0.0143 C.ar    
   5 C5             2.3707     1.4100     0.0001 C.ar    
   6 C6             1.1758     2.0904     0.0021 C.ar    
   7 N7            -1.2052    -0.7202     0.0102 N.pl3   
   8 C8            -2.4562    -0.1929     0.0249 C.2     
   9 N9            -3.3206    -1.1715     0.0280 N.2     
  10 C10           -2.6665    -2.3426     0.0155 C.2     
  11 C11           -1.3438    -2.0849    -0.0013 C.2     
  12 Cl12          -3.3973    -3.9172     0.0145 Cl      
  13 C13            1.1403     3.5882    -0.0211 C.3     
  14 N14            3.5622     2.1338     0.0345 N.pl3   
  15 C15            1.6032     4.1583    -1.3429 C.3     
  16 C16            3.9020     3.0291    -1.0046 C.2     
  17 C17            3.0599     3.8663    -1.6274 C.2     
  18 S18            3.9469     4.6551    -2.9415 S.3     
  19 N19            5.1529     3.0911    -1.4706 N.2     
  20 C20            5.3808     3.8583    -2.4734 C.2     
  21 C21            6.7207     4.0294    -3.1415 C.3     
  22 C22            6.8625     3.0177    -4.2494 C.ar    
  23 C23            7.5363     0.8466    -5.0011 C.ar    
  24 C24            7.4062     1.7746    -3.9848 C.ar    
  25 C25            6.4435     3.3307    -5.5290 C.ar    
  26 C26            6.5736     2.4027    -6.5453 C.ar    
  27 C27            7.1230     1.1618    -6.2820 C.ar    
  28 H28           -0.9588     1.9111     0.0170 H       
  29 H29            1.2238    -1.7662    -0.0238 H       
  30 H30            3.3423    -0.5047    -0.0260 H       
  31 H31           -2.6963     0.8600     0.0332 H       
  32 H32           -0.5462    -2.8129    -0.0180 H       
  33 H33            0.1191     3.9196     0.1674 H       
  34 H34            1.7843     3.9685     0.7717 H       
  35 H35            4.1675     2.0210     0.7840 H       
  36 H36            0.9964     3.7320    -2.1418 H       
  37 H37            1.4568     5.2383    -1.3309 H       
  38 H38            6.7943     5.0348    -3.5561 H       
  39 H39            7.5138     3.8795    -2.4090 H       
  40 H40            7.9614    -0.1245    -4.7944 H       
  41 H41            7.7298     1.5286    -2.9842 H       
  42 H42            6.0142     4.3001    -5.7347 H       
  43 H43            6.2456     2.6469    -7.5448 H       
  44 H44            7.2246     0.4368    -7.0760 H       
@<TRIPOS>BOND
   1    1    2 ar
   2    1    6 ar
   3    1   28 1
   4    2    3 ar
   5    2    7 1
   6    3    4 ar
   7    3   29 1
   8    4    5 ar
   9    4   30 1
  10    5    6 ar
  11    5   14 1
  12    6   13 1
  13    7    8 1
  14    7   11 1
  15    8    9 2
  16    8   31 1
  17    9   10 1
  18   10   11 2
  19   10   12 1
  20   11   32 1
  21   13   15 1
  22   13   33 1
  23   13   34 1
  24   14   16 1
  25   14   35 1
  26   15   17 1
  27   15   36 1
  28   15   37 1
  29   16   19 1
  30   16   17 2
  31   17   18 1
  32   18   20 1
  33   19   20 2
  34   20   21 1
  35   21   22 1
  36   21   38 1
  37   21   39 1
  38   22   25 ar
  39   22   24 ar
  40   23   24 ar
  41   23   27 ar
  42   23   40 1
  43   24   41 1
  44   25   26 ar
  45   25   42 1
  46   26   27 ar
  47   26   43 1
  48   27   44 1

#	End of record

