#	Name: ASD14370001
#	Creating user name:	WinNT
#	Creation time:	15. 06. 2019 21:31

#	Modifying user name:	WinNT
#	Modification time:	15. 06. 2019 21:31

#	Program:	/corina/corina34_cracker 3.40 0067  02.08.2006

@<TRIPOS>MOLECULE
ASD14370001
  29   28    0    0    0
SMALL
NO_CHARGES


@<TRIPOS>ATOM
   1 O1             0.0671    -0.0134     0.0954 O.2     
   2 C2             0.0492     1.1940     0.1044 C.2     
   3 C3             1.3421     1.9671     0.0638 C.3     
   4 C4             1.3136     2.9471    -1.1109 C.3     
   5 C5             2.5710     3.8182    -1.0789 C.3     
   6 C6             2.4842     4.8796    -2.1774 C.3     
   7 C7             3.7227     5.7376    -2.1460 C.2     
   8 C8             3.6153     7.0396    -2.0501 C.2     
   9 C9             2.2571     7.6899    -2.1081 C.3     
  10 C10            4.8500     7.8872    -1.8818 C.3     
  11 C11            1.2675     2.1661    -2.4257 C.3     
  12 H12           -0.8936     1.7199     0.1371 H       
  13 H13            1.4644     2.5199     0.9952 H       
  14 H14            2.1753     1.2754    -0.0603 H       
  15 H15            0.4304     3.5811    -1.0337 H       
  16 H16            2.6504     4.3062    -0.1075 H       
  17 H17            3.4494     3.1945    -1.2450 H       
  18 H18            2.4048     4.3916    -3.1488 H       
  19 H19            1.6058     5.5033    -2.0114 H       
  20 H20            4.6989     5.2790    -2.2025 H       
  21 H21            1.8065     7.6793    -1.1156 H       
  22 H22            2.3617     8.7201    -2.4486 H       
  23 H23            1.6206     7.1408    -2.8020 H       
  24 H24            5.7310     7.2458    -1.8619 H       
  25 H25            4.9277     8.5855    -2.7152 H       
  26 H26            4.7842     8.4434    -0.9467 H       
  27 H27            2.1507     1.5320    -2.5028 H       
  28 H28            0.3717     1.5455    -2.4484 H       
  29 H29            1.2472     2.8642    -3.2625 H       
@<TRIPOS>BOND
   1    1    2 2
   2    2    3 1
   3    2   12 1
   4    3    4 1
   5    3   13 1
   6    3   14 1
   7    4    5 1
   8    4   11 1
   9    4   15 1
  10    5    6 1
  11    5   16 1
  12    5   17 1
  13    6    7 1
  14    6   18 1
  15    6   19 1
  16    7    8 2
  17    7   20 1
  18    8    9 1
  19    8   10 1
  20    9   21 1
  21    9   22 1
  22    9   23 1
  23   10   24 1
  24   10   25 1
  25   10   26 1
  26   11   27 1
  27   11   28 1
  28   11   29 1

#	End of record

