#	Name: ASD13490021
#	Creating user name:	WinNT
#	Creation time:	15. 06. 2019 21:30

#	Modifying user name:	WinNT
#	Modification time:	15. 06. 2019 21:30

#	Program:	/corina/corina34_cracker 3.40 0067  02.08.2006

@<TRIPOS>MOLECULE
ASD13490021
  58   62    0    0    0
SMALL
NO_CHARGES


@<TRIPOS>ATOM
   1 C1             0.1180     1.5121     1.2137 C.ar    
   2 C2             0.0125     0.1338     1.1375 C.ar    
   3 C3             0.6520    -0.5563     0.1098 C.ar    
   4 C4             1.3928     0.1379    -0.8348 C.ar    
   5 C5             1.4979     1.5131    -0.7577 C.ar    
   6 C6             0.8611     2.2039     0.2656 C.ar    
   7 N7             0.5467    -1.9551     0.0308 N.pl3   
   8 C8             0.2029    -2.6837    -1.0776 C.2     
   9 C9             0.2245    -3.9805    -0.7134 C.2     
  10 N10            0.5715    -4.0433     0.5806 N.2     
  11 C11            0.7712    -2.8349     1.0327 C.2     
  12 C12           -0.0873    -5.1554    -1.6042 C.3     
  13 O13           -0.7137    -0.5455     2.0644 O.3     
  14 C14           -1.3415     0.2267     3.0899 C.3     
  15 N15            0.9684     3.5956     0.3415 N.pl3   
  16 C16            2.1999     4.2140     0.1178 C.ar    
  17 C17            2.2838     5.6146     0.0421 C.ar    
  18 C18            3.3450     3.4518    -0.0248 C.ar    
  19 C19            4.5712     4.0605    -0.2467 C.ar    
  20 C20            4.6674     5.4335    -0.3289 C.ar    
  21 C21            1.9589     7.7679    -0.0027 C.2     
  22 N22            1.3680     6.6078     0.1433 N.2     
  23 C23            3.5311     6.2195    -0.1835 C.ar    
  24 N24            3.3003     7.5810    -0.2078 N.pl3   
  25 C25            1.2800     9.0811     0.0460 C.ar    
  26 C26           -0.0511     9.1961    -0.3547 C.ar    
  27 C27           -0.6803    10.4284    -0.3059 C.ar    
  28 C28            0.0130    11.5455     0.1407 C.ar    
  29 C29            1.3322    11.4329     0.5382 C.ar    
  30 C30            1.9672    10.2081     0.4985 C.ar    
  31 C31            4.3027     8.6293    -0.4143 C.3     
  32 O32           -1.9771    10.5449    -0.6959 O.3     
  33 C33           -2.5631    11.8459    -0.6195 C.3     
  34 H34           -0.3805     2.0493     2.0069 H       
  35 H35            1.8884    -0.3972    -1.6313 H       
  36 H36            2.0759     2.0519    -1.4938 H       
  37 H37           -0.0392    -2.2933    -2.0550 H       
  38 H38            1.0649    -2.5801     2.0403 H       
  39 H39            0.8276    -5.4976    -2.0877 H       
  40 H40           -0.5063    -5.9642    -1.0055 H       
  41 H41           -0.8089    -4.8541    -2.3636 H       
  42 H42           -0.5819     0.7690     3.6529 H       
  43 H43           -2.0343     0.9363     2.6376 H       
  44 H44           -1.8873    -0.4363     3.7613 H       
  45 H45            0.1872     4.1317     0.5495 H       
  46 H46            3.2840     2.3753     0.0374 H       
  47 H47            5.4582     3.4541    -0.3557 H       
  48 H48            5.6269     5.8982    -0.5017 H       
  49 H49           -0.5892     8.3265    -0.7022 H       
  50 H50           -0.4800    12.5057     0.1775 H       
  51 H51            1.8664    12.3052     0.8847 H       
  52 H52            2.9965    10.1227     0.8139 H       
  53 H53            4.6504     8.9949     0.5519 H       
  54 H54            5.1450     8.2215    -0.9731 H       
  55 H55            3.8583     9.4514    -0.9753 H       
  56 H56           -3.5979    11.7988    -0.9590 H       
  57 H57           -2.5348    12.1972     0.4120 H       
  58 H58           -2.0038    12.5342    -1.2532 H       
@<TRIPOS>BOND
   1    1    2 ar
   2    1    6 ar
   3    1   34 1
   4    2    3 ar
   5    2   13 1
   6    3    4 ar
   7    3    7 1
   8    4    5 ar
   9    4   35 1
  10    5    6 ar
  11    5   36 1
  12    6   15 1
  13    7    8 1
  14    7   11 1
  15    8    9 2
  16    8   37 1
  17    9   10 1
  18    9   12 1
  19   10   11 2
  20   11   38 1
  21   12   39 1
  22   12   40 1
  23   12   41 1
  24   13   14 1
  25   14   42 1
  26   14   43 1
  27   14   44 1
  28   15   16 1
  29   15   45 1
  30   16   18 ar
  31   16   17 ar
  32   17   23 ar
  33   17   22 1
  34   18   19 ar
  35   18   46 1
  36   19   20 ar
  37   19   47 1
  38   20   23 ar
  39   20   48 1
  40   21   22 2
  41   21   24 1
  42   21   25 1
  43   23   24 1
  44   24   31 1
  45   25   26 ar
  46   25   30 ar
  47   26   27 ar
  48   26   49 1
  49   27   28 ar
  50   27   32 1
  51   28   29 ar
  52   28   50 1
  53   29   30 ar
  54   29   51 1
  55   30   52 1
  56   31   53 1
  57   31   54 1
  58   31   55 1
  59   32   33 1
  60   33   56 1
  61   33   57 1
  62   33   58 1

#	End of record

