#	Name: ASD10220077
#	Creating user name:	WinNT
#	Creation time:	15. 06. 2019 21:26

#	Modifying user name:	WinNT
#	Modification time:	15. 06. 2019 21:26

#	Program:	/corina/corina34_cracker 3.40 0067  02.08.2006

@<TRIPOS>MOLECULE
ASD10220077
  35   37    0    0    0
SMALL
NO_CHARGES


@<TRIPOS>ATOM
   1 C1             0.1588     3.5851    -0.3714 C.2     
   2 C2             0.3945     4.8544    -0.9465 C.2     
   3 C3            -0.6235     5.6764    -1.2843 C.2     
   4 C4            -2.0228     5.3052    -1.0773 C.2     
   5 C5            -2.3369     4.0765    -0.5186 C.2     
   6 C6            -1.2590     3.1478    -0.1406 C.2     
   7 O7            -3.1760     5.9519    -1.3327 O.3     
   8 C8            -4.2349     5.2228    -0.9756 C.2     
   9 C9            -3.8007     4.0224    -0.4514 C.2     
  10 C10           -4.6314     2.9201     0.0649 C.2     
  11 O11           -4.1123     1.8715     0.3975 O.2     
  12 C12           -6.0929     3.0884     0.1783 C.ar    
  13 C13           -6.9362     1.9791     0.0702 C.ar    
  14 C14           -8.3007     2.1380     0.1763 C.ar    
  15 C15           -8.8414     3.3988     0.3903 C.ar    
  16 C16           -8.0058     4.5104     0.4988 C.ar    
  17 C17           -6.6372     4.3574     0.4001 C.ar    
  18 Br18          -0.2261     7.3600    -2.0482 Br      
  19 O19            1.0864     2.8589    -0.0738 O.2     
  20 O20           -1.5082     2.0668     0.3500 O.2     
  21 O21          -10.1868     3.5501     0.4937 O.3     
  22 C22          -10.9837     2.3701     0.3726 C.3     
  23 O23           -8.5388     5.7440     0.7074 O.3     
  24 C24           -7.6242     6.8373     0.8085 C.3     
  25 H25            1.4113     5.1748    -1.1196 H       
  26 H26           -5.2668     5.5240    -1.0797 H       
  27 H27           -6.5182     0.9973    -0.0970 H       
  28 H28           -8.9512     1.2800     0.0925 H       
  29 H29           -5.9890     5.2172     0.4839 H       
  30 H30          -10.7074     1.6633     1.1550 H       
  31 H31          -12.0371     2.6310     0.4740 H       
  32 H32          -10.8142     1.9159    -0.6037 H       
  33 H33           -8.1788     7.7609     0.9742 H       
  34 H34           -6.9449     6.6667     1.6437 H       
  35 H35           -7.0512     6.9182    -0.1152 H       
@<TRIPOS>BOND
   1    1    2 1
   2    1   19 2
   3    1    6 1
   4    2    3 2
   5    2   25 1
   6    3    4 1
   7    3   18 1
   8    4    5 2
   9    4    7 1
  10    5    6 1
  11    5    9 1
  12    6   20 2
  13    7    8 1
  14    8    9 2
  15    8   26 1
  16    9   10 1
  17   10   11 2
  18   10   12 1
  19   12   13 ar
  20   12   17 ar
  21   13   14 ar
  22   13   27 1
  23   14   15 ar
  24   14   28 1
  25   15   16 ar
  26   15   21 1
  27   16   17 ar
  28   16   23 1
  29   17   29 1
  30   21   22 1
  31   22   30 1
  32   22   31 1
  33   22   32 1
  34   23   24 1
  35   24   33 1
  36   24   34 1
  37   24   35 1

#	End of record

