#	Name: ASD10160195
#	Creating user name:	WinNT
#	Creation time:	15. 06. 2019 21:25

#	Modifying user name:	WinNT
#	Modification time:	15. 06. 2019 21:25

#	Program:	/corina/corina34_cracker 3.40 0067  02.08.2006

@<TRIPOS>MOLECULE
ASD10160195
  32   33    0    0    0
SMALL
NO_CHARGES


@<TRIPOS>ATOM
   1 C1            -0.0337     1.4701     0.0134 C.2     
   2 C2            -0.0095    -0.0043     0.0045 C.ar    
   3 C3             1.2056    -0.6857    -0.1325 C.ar    
   4 C4             1.2229    -2.0660    -0.1403 C.ar    
   5 C5             0.0378    -2.7777    -0.0131 C.ar    
   6 C6            -1.1730    -2.1037     0.1234 C.ar    
   7 C7            -1.1995    -0.7259     0.1385 C.ar    
   8 O8             1.0030     2.0959    -0.0983 O.2     
   9 N9            -1.2053     2.1241     0.1399 N.am    
  10 S10           -1.2325     3.7798     0.1499 S.o2    
  11 O11           -2.6047     4.1067     0.3219 O.2     
  12 O12           -0.2655     4.1402     1.1267 O.2     
  13 C13           -0.6687     4.2518    -1.5084 C.3     
  14 F14           -2.3232    -2.8016     0.2463 F       
  15 F15            2.3591     0.0063    -0.2572 F       
  16 O16            0.0593    -4.1351    -0.0222 O.3     
  17 C17           -0.1516    -4.7677    -1.2040 C.ar    
  18 C18           -0.0379    -6.1505    -1.2738 C.ar    
  19 C19           -0.2554    -6.7838    -2.4847 C.ar    
  20 C20           -0.5809    -6.0070    -3.5895 C.ar    
  21 C21           -0.6768    -4.6361    -3.4466 C.ar    
  22 N22           -0.4687    -4.0621    -2.2768 N.ar    
  23 Cl23          -0.8635    -6.7505    -5.1326 Cl      
  24 H24            2.1597    -2.5929    -0.2459 H       
  25 H25           -2.1387    -0.2043     0.2493 H       
  26 H26           -2.0327     1.6249     0.2249 H       
  27 H27           -1.3475     3.8382    -2.2543 H       
  28 H28           -0.6555     5.3385    -1.5920 H       
  29 H29            0.3355     3.8623    -1.6753 H       
  30 H30            0.2172    -6.7235    -0.3947 H       
  31 H31           -0.1737    -7.8574    -2.5691 H       
  32 H32           -0.9295    -4.0271    -4.3020 H       
@<TRIPOS>BOND
   1    1    2 1
   2    1    8 2
   3    1    9 am
   4    2    3 ar
   5    2    7 ar
   6    3    4 ar
   7    3   15 1
   8    4    5 ar
   9    4   24 1
  10    5    6 ar
  11    5   16 1
  12    6    7 ar
  13    6   14 1
  14    7   25 1
  15    9   10 am
  16    9   26 1
  17   10   11 2
  18   10   12 2
  19   10   13 1
  20   13   27 1
  21   13   28 1
  22   13   29 1
  23   16   17 1
  24   17   18 ar
  25   17   22 ar
  26   18   19 ar
  27   18   30 1
  28   19   20 ar
  29   19   31 1
  30   20   21 ar
  31   20   23 1
  32   21   22 ar
  33   21   32 1

#	End of record

