#	Name: ASD10800046
#	Creating user name:	WinNT
#	Creation time:	15. 06. 2019 21:28

#	Modifying user name:	WinNT
#	Modification time:	15. 06. 2019 21:28

#	Program:	/corina/corina34_cracker 3.40 0067  02.08.2006

@<TRIPOS>MOLECULE
ASD10800046
  49   52    0    0    0
SMALL
NO_CHARGES


@<TRIPOS>ATOM
   1 C1             0.0190     1.2577     0.2092 C.ar    
   2 C2             0.1010    -0.1281     0.4292 C.ar    
   3 C3             1.3198    -0.7304     0.4958 C.ar    
   4 C4             2.4940     0.0048     0.3491 C.ar    
   5 C5             2.4545     1.3491     0.1351 C.ar    
   6 C6             1.2147     2.0035     0.0603 C.ar    
   7 C7             3.7342     2.1297    -0.0204 C.3     
   8 C8             4.1424     2.7147     1.3331 C.3     
   9 N9             4.7922     1.2410    -0.5074 N.pl3   
  10 C10            5.3523     3.5954     1.1554 C.ar    
  11 C11            5.1936     4.9411     0.8820 C.ar    
  12 C12            6.6209     3.0586     1.2713 C.ar    
  13 C13            7.7308     3.8664     1.1083 C.ar    
  14 C14            7.5720     5.2109     0.8289 C.ar    
  15 C15            6.3034     5.7489     0.7190 C.ar    
  16 C16            9.1137     3.2814     1.2357 C.3     
  17 C17            6.1303     7.2146     0.4144 C.3     
  18 C18            4.9435     1.0274    -1.8579 C.2     
  19 N19            5.8885     0.3425    -2.3944 N.2     
  20 S20            3.8620     1.6486    -3.1105 S.3     
  21 C21            4.7727     0.9217    -4.5113 C.3     
  22 C22            5.9401     0.1895    -3.8313 C.3     
  23 C23            1.1305     3.3913    -0.1602 C.ar    
  24 C24           -0.1098     3.9599    -0.2216 C.ar    
  25 C25           -1.2460     3.1683    -0.0676 C.ar    
  26 N26           -1.1641     1.8756     0.1338 N.ar    
  27 H27           -0.7996    -0.7128     0.5454 H       
  28 H28            1.3775    -1.7954     0.6653 H       
  29 H29            3.4481    -0.4979     0.4062 H       
  30 H30            3.5817     2.9387    -0.7348 H       
  31 H31            3.3197     3.3048     1.7369 H       
  32 H32            4.3808     1.9045     2.0221 H       
  33 H33            5.3859     0.8033     0.1224 H       
  34 H34            4.2024     5.3613     0.7955 H       
  35 H35            6.7449     2.0082     1.4896 H       
  36 H36            8.4391     5.8420     0.7019 H       
  37 H37            9.4514     2.9314     0.2602 H       
  38 H38            9.7986     4.0448     1.6048 H       
  39 H39            9.0915     2.4448     1.9341 H       
  40 H40            6.0871     7.3588    -0.6651 H       
  41 H41            5.2053     7.5728     0.8662 H       
  42 H42            6.9735     7.7724     0.8220 H       
  43 H43            4.1438     0.2160    -5.0541 H       
  44 H44            5.1403     1.7022    -5.1775 H       
  45 H45            6.8812     0.5982    -4.1993 H       
  46 H46            5.8911    -0.8704    -4.0809 H       
  47 H47            2.0218     3.9899    -0.2770 H       
  48 H48           -0.2097     5.0221    -0.3891 H       
  49 H49           -2.2203     3.6317    -0.1182 H       
@<TRIPOS>BOND
   1    1    2 ar
   2    1    6 ar
   3    1   26 ar
   4    2    3 ar
   5    2   27 1
   6    3    4 ar
   7    3   28 1
   8    4    5 ar
   9    4   29 1
  10    5    6 ar
  11    5    7 1
  12    6   23 ar
  13    7    8 1
  14    7    9 1
  15    7   30 1
  16    8   10 1
  17    8   31 1
  18    8   32 1
  19    9   18 1
  20    9   33 1
  21   10   11 ar
  22   10   12 ar
  23   11   15 ar
  24   11   34 1
  25   12   13 ar
  26   12   35 1
  27   13   14 ar
  28   13   16 1
  29   14   15 ar
  30   14   36 1
  31   15   17 1
  32   16   37 1
  33   16   38 1
  34   16   39 1
  35   17   40 1
  36   17   41 1
  37   17   42 1
  38   18   19 2
  39   18   20 1
  40   19   22 1
  41   20   21 1
  42   21   22 1
  43   21   43 1
  44   21   44 1
  45   22   45 1
  46   22   46 1
  47   23   24 ar
  48   23   47 1
  49   24   25 ar
  50   24   48 1
  51   25   26 ar
  52   25   49 1

#	End of record

