#	Name: ASD10410002
#	Creating user name:	WinNT
#	Creation time:	15. 06. 2019 21:26

#	Modifying user name:	WinNT
#	Modification time:	15. 06. 2019 21:26

#	Program:	/corina/corina34_cracker 3.40 0067  02.08.2006

@<TRIPOS>MOLECULE
ASD10410002
  69   73    0    0    0
SMALL
NO_CHARGES


@<TRIPOS>ATOM
   1 N1             0.4601     0.8915     0.8819 N.pl3   
   2 C2             0.4741    -0.5047     0.7936 C.ar    
   3 C3            -0.6301    -1.2386     1.2062 C.ar    
   4 C4             1.6521     1.5998     0.8589 C.ar    
   5 N5             2.8169     0.9600     0.8680 N.ar    
   6 C6             1.6463     2.9969     0.8201 C.ar    
   7 C7             2.8582     3.6602     0.7979 C.ar    
   8 N8             3.9819     2.9577     0.8139 N.ar    
   9 C9             3.9571     1.6339     0.8457 C.ar    
  10 Cl10           0.1509     3.8785     0.7997 Cl      
  11 N11            5.1543     0.9361     0.8615 N.pl3   
  12 C12            6.3651     1.6276     0.9645 C.ar    
  13 C13            6.4286     2.8175     1.6782 C.ar    
  14 C14            7.6261     3.4981     1.7779 C.ar    
  15 C15            8.7612     2.9964     1.1677 C.ar    
  16 C16            8.7014     1.8120     0.4563 C.ar    
  17 C17            7.5084     1.1233     0.3579 C.ar    
  18 C18           10.0660     3.7422     1.2778 C.3     
  19 N19           10.7967     3.2782     2.4647 N.3     
  20 C20           12.1687     3.8044     2.4776 C.3     
  21 C21           12.8688     3.3647     3.7656 C.3     
  22 N22           12.8699     1.8972     3.8430 N.3     
  23 C23           11.4978     1.3710     3.8301 C.3     
  24 C24           10.7978     1.8107     2.5421 C.3     
  25 C25           13.6005     1.4331     5.0300 C.3     
  26 C26            1.5904    -1.1584     0.2878 C.ar    
  27 C27            1.6021    -2.5366     0.2016 C.ar    
  28 C28            0.5020    -3.2669     0.6190 C.ar    
  29 C29           -0.6140    -2.6171     1.1182 C.ar    
  30 S30           -2.0504    -0.4123     1.8421 S.o2    
  31 O31           -2.3504     0.6323     0.9266 O.2     
  32 O32           -2.9804    -1.4270     2.1954 O.2     
  33 N33           -1.5987     0.3210     3.2565 N.am    
  34 C34           -1.1078     1.7006     3.3877 C.3     
  35 C35           -1.6282    -0.2994     4.5935 C.3     
  36 C36           -0.5851     0.4923     5.4211 C.3     
  37 C37           -0.7883     1.9334     4.8794 C.3     
  38 F38            0.5156    -4.6152     0.5339 F       
  39 H39           -0.3837     1.3644     0.9551 H       
  40 H40            2.8894     4.7393     0.7675 H       
  41 H41            5.1523    -0.0320     0.8012 H       
  42 H42            5.5423     3.2102     2.1544 H       
  43 H43            7.6762     4.4233     2.3327 H       
  44 H44            9.5896     1.4231    -0.0194 H       
  45 H45            7.4624     0.1982    -0.1975 H       
  46 H46           10.6661     3.5580     0.3867 H       
  47 H47            9.8676     4.8102     1.3678 H       
  48 H48           12.7145     3.4179     1.6169 H       
  49 H49           12.1411     4.8931     2.4322 H       
  50 H50           13.8959     3.7295     3.7640 H       
  51 H51           12.3386     3.7738     4.6256 H       
  52 H52           11.5254     0.2823     3.8755 H       
  53 H53           10.9520     1.7574     4.6908 H       
  54 H54            9.7706     1.4458     2.5437 H       
  55 H55           11.3280     1.4016     1.6821 H       
  56 H56           13.1256     1.8301     5.9272 H       
  57 H57           13.5859     0.3437     5.0628 H       
  58 H58           14.6323     1.7813     4.9806 H       
  59 H59            2.4484    -0.5893    -0.0382 H       
  60 H60            2.4698    -3.0453    -0.1919 H       
  61 H61           -1.4707    -3.1886     1.4436 H       
  62 H62           -0.2053     1.8313     2.7905 H       
  63 H63           -1.8764     2.4004     3.0596 H       
  64 H64           -2.6191    -0.1992     5.0365 H       
  65 H65           -1.3443    -1.3499     4.5306 H       
  66 H66           -0.8109     0.4409     6.4863 H       
  67 H67            0.4252     0.1360     5.2199 H       
  68 H68            0.1235     2.5199     4.9920 H       
  69 H69           -1.6252     2.4195     5.3810 H       
@<TRIPOS>BOND
   1    1    2 1
   2    1    4 1
   3    1   39 1
   4    2    3 ar
   5    2   26 ar
   6    3   30 1
   7    3   29 ar
   8    4    5 ar
   9    4    6 ar
  10    5    9 ar
  11    6    7 ar
  12    6   10 1
  13    7    8 ar
  14    7   40 1
  15    8    9 ar
  16    9   11 1
  17   11   12 1
  18   11   41 1
  19   12   13 ar
  20   12   17 ar
  21   13   14 ar
  22   13   42 1
  23   14   15 ar
  24   14   43 1
  25   15   16 ar
  26   15   18 1
  27   16   17 ar
  28   16   44 1
  29   17   45 1
  30   18   19 1
  31   18   46 1
  32   18   47 1
  33   19   20 1
  34   19   24 1
  35   20   21 1
  36   20   48 1
  37   20   49 1
  38   21   22 1
  39   21   50 1
  40   21   51 1
  41   22   23 1
  42   22   25 1
  43   23   24 1
  44   23   52 1
  45   23   53 1
  46   24   54 1
  47   24   55 1
  48   25   56 1
  49   25   57 1
  50   25   58 1
  51   26   27 ar
  52   26   59 1
  53   27   28 ar
  54   27   60 1
  55   28   29 ar
  56   28   38 1
  57   29   61 1
  58   30   31 2
  59   30   32 2
  60   30   33 am
  61   33   34 1
  62   33   35 1
  63   34   37 1
  64   34   62 1
  65   34   63 1
  66   35   36 1
  67   35   64 1
  68   35   65 1
  69   36   37 1
  70   36   66 1
  71   36   67 1
  72   37   68 1
  73   37   69 1

#	End of record

