#	Name: ASD10340004
#	Creating user name:	WinNT
#	Creation time:	15. 06. 2019 21:26

#	Modifying user name:	WinNT
#	Modification time:	15. 06. 2019 21:26

#	Program:	/corina/corina34_cracker 3.40 0067  02.08.2006

@<TRIPOS>MOLECULE
ASD10340004
  65   69    0    0    0
SMALL
NO_CHARGES


@<TRIPOS>ATOM
   1 C1            -0.0167     1.3779     0.0096 C.ar    
   2 C2             0.0021    -0.0041     0.0020 C.ar    
   3 C3             1.2086    -0.6790    -0.0132 C.ar    
   4 C4             2.3961     0.0283    -0.0212 C.ar    
   5 C5             2.3773     1.4107    -0.0145 C.ar    
   6 C6             1.1711     2.0854     0.0021 C.ar    
   7 C7             1.2291    -2.1858    -0.0205 C.3     
   8 N8             1.2219    -2.6676    -1.4040 N.am    
   9 C9             1.2375    -3.9914    -1.6566 C.2     
  10 C10            3.6720     2.1819    -0.0223 C.3     
  11 N11            4.0794     2.4383    -1.4060 N.pl3   
  12 N12            3.7218     3.5597    -2.1613 N.2     
  13 C13            4.2499     3.4823    -3.3540 C.2     
  14 C14            5.0137     2.2362    -3.4209 C.ar    
  15 C15            4.8763     1.6201    -2.1637 C.ar    
  16 C16            5.7818     1.6187    -4.4185 C.ar    
  17 C17            6.3914     0.4080    -4.1572 C.ar    
  18 C18            6.2474    -0.1982    -2.9162 C.ar    
  19 C19            5.5034     0.3987    -1.9245 C.ar    
  20 O20            5.9245     2.2076    -5.6339 O.3     
  21 C21            6.7218     1.5185    -6.5991 C.3     
  22 N22            4.1097     4.4200    -4.3805 N.am    
  23 S23            3.2040     5.7848    -4.1372 S.o2    
  24 O24            3.2853     6.5397    -5.3384 O.2     
  25 O25            1.9736     5.3543    -3.5716 O.2     
  26 C26            4.0165     6.7356    -2.8961 C.2     
  27 C27            4.9428     7.6671    -3.1251 C.2     
  28 C28            5.4417     8.2855    -1.9910 C.2     
  29 C29            4.9192     7.8547    -0.8405 C.2     
  30 S30            3.7241     6.6062    -1.1666 S.3     
  31 Cl31           5.3483     8.4423     0.7357 Cl      
  32 C32            1.2301    -4.4870    -3.0798 C.3     
  33 O33            1.2573    -4.7838    -0.7387 O.2     
  34 C34            1.2509    -6.0186    -3.0891 C.3     
  35 C35            1.1638    -6.5136    -4.5352 C.3     
  36 O36           -0.0235    -5.9998    -5.1424 O.3     
  37 C37           -0.0766    -4.5731    -5.2045 C.3     
  38 C38           -0.0394    -4.0002    -3.7853 C.3     
  39 H39           -0.9592     1.9051     0.0170 H       
  40 H40           -0.9258    -0.5567     0.0083 H       
  41 H41            3.3386    -0.4989    -0.0324 H       
  42 H42            1.1565     3.1653     0.0077 H       
  43 H43            2.1290    -2.5394     0.4828 H       
  44 H44            0.3493    -2.5636     0.5004 H       
  45 H45            1.2060    -2.0339    -2.1381 H       
  46 H46            3.5333     3.1300     0.4972 H       
  47 H47            4.4441     1.6008     0.4820 H       
  48 H48            6.9838    -0.0708    -4.9229 H       
  49 H49            6.7295    -1.1456    -2.7253 H       
  50 H50            5.3993    -0.0828    -0.9634 H       
  51 H51            6.2863     0.5392    -6.7975 H       
  52 H52            6.7536     2.0960    -7.5230 H       
  53 H53            7.7336     1.3948    -6.2129 H       
  54 H54            4.5430     4.2714    -5.2355 H       
  55 H55            5.2787     7.9200    -4.1199 H       
  56 H56            6.1961     9.0570    -2.0340 H       
  57 H57            2.1079    -4.1072    -3.6027 H       
  58 H58            2.1777    -6.3731    -2.6380 H       
  59 H59            0.4005    -6.3979    -2.5225 H       
  60 H60            2.0353    -6.1675    -5.0910 H       
  61 H61            1.1350    -7.6031    -4.5454 H       
  62 H62            0.7786    -4.2017    -5.7690 H       
  63 H63           -0.9989    -4.2649    -5.6969 H       
  64 H64           -0.9158    -4.3387    -3.2327 H       
  65 H65           -0.0353    -2.9112    -3.8321 H       
@<TRIPOS>BOND
   1    1    2 ar
   2    1    6 ar
   3    1   39 1
   4    2    3 ar
   5    2   40 1
   6    3    4 ar
   7    3    7 1
   8    4    5 ar
   9    4   41 1
  10    5    6 ar
  11    5   10 1
  12    6   42 1
  13    7    8 1
  14    7   43 1
  15    7   44 1
  16    8    9 am
  17    8   45 1
  18    9   32 1
  19    9   33 2
  20   10   11 1
  21   10   46 1
  22   10   47 1
  23   11   12 1
  24   11   15 1
  25   12   13 2
  26   13   14 1
  27   13   22 1
  28   14   15 ar
  29   14   16 ar
  30   15   19 ar
  31   16   17 ar
  32   16   20 1
  33   17   18 ar
  34   17   48 1
  35   18   19 ar
  36   18   49 1
  37   19   50 1
  38   20   21 1
  39   21   51 1
  40   21   52 1
  41   21   53 1
  42   22   23 am
  43   22   54 1
  44   23   24 2
  45   23   25 2
  46   23   26 1
  47   26   27 2
  48   26   30 1
  49   27   28 1
  50   27   55 1
  51   28   29 2
  52   28   56 1
  53   29   30 1
  54   29   31 1
  55   32   34 1
  56   32   38 1
  57   32   57 1
  58   34   35 1
  59   34   58 1
  60   34   59 1
  61   35   36 1
  62   35   60 1
  63   35   61 1
  64   36   37 1
  65   37   38 1
  66   37   62 1
  67   37   63 1
  68   38   64 1
  69   38   65 1

#	End of record

