#	Name: ASD11320011
#	Creating user name:	WinNT
#	Creation time:	15. 06. 2019 21:29

#	Modifying user name:	WinNT
#	Modification time:	15. 06. 2019 21:29

#	Program:	/corina/corina34_cracker 3.40 0067  02.08.2006

@<TRIPOS>MOLECULE
ASD11320011
  43   46    0    0    0
SMALL
NO_CHARGES


@<TRIPOS>ATOM
   1 C1            -0.0153     1.3731    -0.0089 C.ar    
   2 C2             0.0037    -0.0042    -0.0230 C.ar    
   3 C3             1.2112    -0.6875    -0.0439 C.ar    
   4 C4             2.4059    -0.0015    -0.0513 C.ar    
   5 C5             2.4077     1.3896    -0.0378 C.ar    
   6 C6             1.1851     2.0794    -0.0163 C.ar    
   7 N7             3.4147     2.3326    -0.0406 N.pl3   
   8 C8             2.8922     3.5825    -0.0223 C.2     
   9 C9             1.5302     3.5128    -0.0055 C.2     
  10 C10            4.8471     2.0257    -0.0597 C.3     
  11 C11            5.2962     1.8125    -1.4823 C.ar    
  12 C12            0.5922     4.6429     0.0166 C.2     
  13 O13           -0.6072     4.4380     0.0281 O.2     
  14 N14            1.0600     5.9069     0.0242 N.am    
  15 C15            0.1705     6.9823    -0.0675 C.ar    
  16 C16            0.4340     8.1635     0.6139 C.ar    
  17 C17           -0.4464     9.2235     0.5212 C.ar    
  18 C18           -1.5896     9.1096    -0.2486 C.ar    
  19 C19           -1.8549     7.9349    -0.9282 C.ar    
  20 C20           -0.9754     6.8733    -0.8448 C.ar    
  21 C21            5.7509     2.8818    -2.2312 C.ar    
  22 C22            6.1628     2.6862    -3.5362 C.ar    
  23 C23            6.1204     1.4213    -4.0921 C.ar    
  24 C24            5.6665     0.3519    -3.3430 C.ar    
  25 C25            5.2587     0.5467    -2.0366 C.ar    
  26 H26           -0.9565     1.9028     0.0032 H       
  27 H27           -0.9254    -0.5547    -0.0174 H       
  28 H28            1.2145    -1.7674    -0.0540 H       
  29 H29            3.3401    -0.5431    -0.0672 H       
  30 H30            3.4676     4.4964    -0.0196 H       
  31 H31            5.4025     2.8563     0.3760 H       
  32 H32            5.0326     1.1211     0.5193 H       
  33 H33            2.0135     6.0707     0.0933 H       
  34 H34            1.3262     8.2528     1.2158 H       
  35 H35           -0.2421    10.1423     1.0508 H       
  36 H36           -2.2768     9.9398    -0.3188 H       
  37 H37           -2.7487     7.8490    -1.5283 H       
  38 H38           -1.1808     5.9578    -1.3797 H       
  39 H39            5.7841     3.8700    -1.7968 H       
  40 H40            6.5174     3.5217    -4.1215 H       
  41 H41            6.4416     1.2686    -5.1119 H       
  42 H42            5.6331    -0.6363    -3.7775 H       
  43 H43            4.9076    -0.2894    -1.4501 H       
@<TRIPOS>BOND
   1    1    2 ar
   2    1    6 ar
   3    1   26 1
   4    2    3 ar
   5    2   27 1
   6    3    4 ar
   7    3   28 1
   8    4    5 ar
   9    4   29 1
  10    5    7 1
  11    5    6 ar
  12    6    9 1
  13    7    8 1
  14    7   10 1
  15    8    9 2
  16    8   30 1
  17    9   12 1
  18   10   11 1
  19   10   31 1
  20   10   32 1
  21   11   21 ar
  22   11   25 ar
  23   12   13 2
  24   12   14 am
  25   14   15 1
  26   14   33 1
  27   15   16 ar
  28   15   20 ar
  29   16   17 ar
  30   16   34 1
  31   17   18 ar
  32   17   35 1
  33   18   19 ar
  34   18   36 1
  35   19   20 ar
  36   19   37 1
  37   20   38 1
  38   21   22 ar
  39   21   39 1
  40   22   23 ar
  41   22   40 1
  42   23   24 ar
  43   23   41 1
  44   24   25 ar
  45   24   42 1
  46   25   43 1

#	End of record

