#	Name: ASD10410243
#	Creating user name:	WinNT
#	Creation time:	15. 06. 2019 21:27

#	Modifying user name:	WinNT
#	Modification time:	15. 06. 2019 21:27

#	Program:	/corina/corina34_cracker 3.40 0067  02.08.2006

@<TRIPOS>MOLECULE
ASD10410243
  74   79    0    0    0
SMALL
NO_CHARGES


@<TRIPOS>ATOM
   1 C1            -0.1007     1.3824     0.2587 C.ar    
   2 C2            -0.0571     0.0381    -0.0803 C.ar    
   3 C3             1.1646    -0.5914    -0.2684 C.ar    
   4 C4             2.3387     0.1199    -0.1177 C.ar    
   5 C5             2.2960     1.4659     0.2218 C.ar    
   6 C6             1.0724     2.0954     0.4094 C.ar    
   7 O7            -1.2128    -0.6633    -0.2281 O.3     
   8 N8             3.4856     2.1876     0.3747 N.pl3   
   9 C9             3.5215     3.5466     0.0642 C.2     
  10 N10            4.5437     4.3443     0.2601 N.2     
  11 N11            2.5202     4.2431    -0.4864 N.2     
  12 C12            2.8865     5.4967    -0.6457 C.2     
  13 N13            4.1619     5.6189    -0.1889 N.pl3   
  14 C14            4.9343     6.7759    -0.1707 C.ar    
  15 N15            2.1147     6.5079    -1.1843 N.pl3   
  16 C16            6.2017     6.8067    -0.8052 C.ar    
  17 C17           -1.0937    -2.0437    -0.5780 C.3     
  18 C18           -2.4882    -2.6613    -0.6988 C.3     
  19 N19           -3.2050    -2.0369    -1.8187 N.3     
  20 C20           -4.4530    -2.7629    -2.1178 C.3     
  21 C21           -5.6092    -1.7460    -2.0155 C.3     
  22 C22           -4.8961    -0.3839    -2.2226 C.3     
  23 C23           -3.5405    -0.6296    -1.5143 C.3     
  24 N24            4.4959     7.8686     0.4348 N.ar    
  25 C25            5.2190     8.9733     0.4604 C.ar    
  26 N26            6.4008     9.0495    -0.1069 N.ar    
  27 C27            6.9257     7.9973    -0.7478 C.ar    
  28 S28            8.4542     7.7976    -1.5870 S.3     
  29 C29            8.0932     6.1313    -2.0069 C.2     
  30 C30            6.9018     5.7581    -1.5370 C.2     
  31 C31            9.0214     5.2290    -2.8016 C.3     
  32 C32            8.5770     3.7764    -2.6157 C.3     
  33 C33            7.0722     3.6784    -2.8841 C.3     
  34 C34            6.3179     4.3663    -1.7430 C.3     
  35 C35            9.3321     2.8799    -3.5992 C.3     
  36 C36           10.8357     2.9896    -3.3381 C.3     
  37 C37            8.8864     1.4284    -3.4117 C.3     
  38 C38            9.0293     3.3255    -5.0312 C.3     
  39 H39           -1.0524     1.8728     0.4005 H       
  40 H40            1.1976    -1.6381    -0.5323 H       
  41 H41            3.2898    -0.3705    -0.2634 H       
  42 H42            1.0383     3.1421     0.6730 H       
  43 H43            4.2850     1.7424     0.6967 H       
  44 H44            1.2120     6.3207    -1.4860 H       
  45 H45            2.4755     7.4050    -1.2609 H       
  46 H46           -0.5729    -2.1332    -1.5314 H       
  47 H47           -0.5301    -2.5670     0.1944 H       
  48 H48           -2.3969    -3.7326    -0.8780 H       
  49 H49           -3.0413    -2.4934     0.2254 H       
  50 H50           -4.4098    -3.1750    -3.1260 H       
  51 H51           -4.5987    -3.5641    -1.3933 H       
  52 H52           -6.3452    -1.9190    -2.8007 H       
  53 H53           -6.0761    -1.7909    -1.0316 H       
  54 H54           -4.7507    -0.1765    -3.2828 H       
  55 H55           -5.4479     0.4231    -1.7406 H       
  56 H56           -3.6434    -0.4882    -0.4384 H       
  57 H57           -2.7770     0.0376    -1.9143 H       
  58 H58            4.8250     9.8434     0.9646 H       
  59 H59            8.9721     5.4938    -3.8578 H       
  60 H60           10.0431     5.3474    -2.4408 H       
  61 H61            8.7870     3.4584    -1.5945 H       
  62 H62            6.8376     4.1693    -3.8286 H       
  63 H63            6.7784     2.6299    -2.9341 H       
  64 H64            6.4269     3.7826    -0.8290 H       
  65 H65            5.2622     4.4500    -2.0013 H       
  66 H66           11.0514     2.6722    -2.3179 H       
  67 H67           11.3736     2.3509    -4.0387 H       
  68 H68           11.1532     4.0237    -3.4717 H       
  69 H69            7.8152     1.3503    -3.5977 H       
  70 H70            9.4244     0.7897    -4.1123 H       
  71 H71            9.1021     1.1109    -2.3915 H       
  72 H72            9.3469     4.3596    -5.1648 H       
  73 H73            9.5673     2.6869    -5.7318 H       
  74 H74            7.9582     3.2474    -5.2172 H       
@<TRIPOS>BOND
   1    1    2 ar
   2    1    6 ar
   3    1   39 1
   4    2    3 ar
   5    2    7 1
   6    3    4 ar
   7    3   40 1
   8    4    5 ar
   9    4   41 1
  10    5    6 ar
  11    5    8 1
  12    6   42 1
  13    7   17 1
  14    8    9 1
  15    8   43 1
  16    9   10 2
  17    9   11 1
  18   10   13 1
  19   11   12 2
  20   12   13 1
  21   12   15 1
  22   13   14 1
  23   14   16 ar
  24   14   24 ar
  25   15   44 1
  26   15   45 1
  27   16   27 ar
  28   16   30 1
  29   17   18 1
  30   17   46 1
  31   17   47 1
  32   18   19 1
  33   18   48 1
  34   18   49 1
  35   19   20 1
  36   19   23 1
  37   20   21 1
  38   20   50 1
  39   20   51 1
  40   21   22 1
  41   21   52 1
  42   21   53 1
  43   22   23 1
  44   22   54 1
  45   22   55 1
  46   23   56 1
  47   23   57 1
  48   24   25 ar
  49   25   26 ar
  50   25   58 1
  51   26   27 ar
  52   27   28 1
  53   28   29 1
  54   29   30 2
  55   29   31 1
  56   30   34 1
  57   31   32 1
  58   31   59 1
  59   31   60 1
  60   32   33 1
  61   32   35 1
  62   32   61 1
  63   33   34 1
  64   33   62 1
  65   33   63 1
  66   34   64 1
  67   34   65 1
  68   35   36 1
  69   35   37 1
  70   35   38 1
  71   36   66 1
  72   36   67 1
  73   36   68 1
  74   37   69 1
  75   37   70 1
  76   37   71 1
  77   38   72 1
  78   38   73 1
  79   38   74 1

#	End of record

