#	Name: ASD10010005
#	Creating user name:	WinNT
#	Creation time:	15. 06. 2019 21:24

#	Modifying user name:	WinNT
#	Modification time:	15. 06. 2019 21:24

#	Program:	/corina/corina34_cracker 3.40 0067  02.08.2006

@<TRIPOS>MOLECULE
ASD10010005
  56   59    0    0    0
SMALL
NO_CHARGES


@<TRIPOS>ATOM
   1 C1            -0.0184     1.5028     0.0103 C.ar    
   2 C2             0.0021    -0.0041     0.0020 C.3     
   3 C3            -0.6914    -0.5209     1.2393 C.2     
   4 C4            -1.9491    -0.9944     1.1721 C.2     
   5 O5            -2.6311    -1.0096     0.0115 O.3     
   6 C6            -1.9660    -0.9780    -1.1538 C.2     
   7 C7            -0.6982    -0.5053    -1.2300 C.2     
   8 C8             0.0148    -0.4897     2.4572 C.2     
   9 C9            -0.6151    -0.9702     3.7362 C.3     
  10 C10           -2.1333    -0.7846     3.6417 C.3     
  11 C11           -2.6370    -1.5318     2.4053 C.3     
  12 N12           -2.5826    -1.4344    -2.2922 N.pl3   
  13 O13            1.1533    -0.0667     2.4756 O.2     
  14 C14           -2.7901    -1.3472     4.8758 C.ar    
  15 C15           -2.6376    -2.6846     5.1893 C.ar    
  16 C16           -3.5394    -0.5230     5.6953 C.ar    
  17 C17           -4.1437    -1.0385     6.8301 C.ar    
  18 C18           -3.9948    -2.3867     7.1427 C.ar    
  19 C19           -3.2383    -3.2057     6.3206 C.ar    
  20 C20            1.1702     2.2092     0.0027 C.ar    
  21 C21           -1.2257     2.1766     0.0197 C.ar    
  22 C22           -1.2471     3.5578     0.0268 C.ar    
  23 C23           -0.0559     4.2689     0.0246 C.ar    
  24 C24            1.1542     3.5905     0.0103 C.ar    
  25 C25           -0.0216    -0.4832    -2.4919 C.1     
  26 N26            0.5152    -0.4656    -3.4929 N.1     
  27 O27           -4.8805    -0.2292     7.6372 O.3     
  28 C28           -4.9896     1.1433     7.2545 C.3     
  29 O29           -0.0743     5.6278     0.0312 O.3     
  30 C30            1.1900     6.2937     0.0284 C.3     
  31 O31           -4.5859    -2.8975     8.2559 O.3     
  32 C32           -4.3900    -4.2893     8.5138 C.3     
  33 H33            1.0352    -0.3515    -0.0051 H       
  34 H34           -0.3847    -2.0254     3.8827 H       
  35 H35           -0.2280    -0.3904     4.5741 H       
  36 H36           -2.3677     0.2759     3.5496 H       
  37 H37           -3.7137    -1.3915     2.3101 H       
  38 H38           -2.4179    -2.5945     2.5093 H       
  39 H39           -3.4898    -1.7750    -2.2490 H       
  40 H40           -2.1112    -1.4161    -3.1397 H       
  41 H41           -2.0483    -3.3243     4.5490 H       
  42 H42           -3.6530     0.5228     5.4507 H       
  43 H43           -3.1212    -4.2521     6.5609 H       
  44 H44            2.1119     1.6806    -0.0087 H       
  45 H45           -2.1528     1.6226     0.0211 H       
  46 H46           -2.1904     4.0837     0.0338 H       
  47 H47            2.0829     4.1418     0.0086 H       
  48 H48           -5.6022     1.6758     7.9820 H       
  49 H49           -3.9962     1.5907     7.2193 H       
  50 H50           -5.4534     1.2104     6.2704 H       
  51 H51            1.7551     6.0042     0.9143 H       
  52 H52            1.7467     6.0127    -0.8656 H       
  53 H53            1.0325     7.3723     0.0343 H       
  54 H54           -4.7823    -4.8720     7.6804 H       
  55 H55           -3.3251    -4.4911     8.6289 H       
  56 H56           -4.9133    -4.5663     9.4290 H       
@<TRIPOS>BOND
   1    1    2 1
   2    1   20 ar
   3    1   21 ar
   4    2    3 1
   5    2    7 1
   6    2   33 1
   7    3    4 2
   8    3    8 1
   9    4    5 1
  10    4   11 1
  11    5    6 1
  12    6    7 2
  13    6   12 1
  14    7   25 1
  15    8    9 1
  16    8   13 2
  17    9   10 1
  18    9   34 1
  19    9   35 1
  20   10   11 1
  21   10   14 1
  22   10   36 1
  23   11   37 1
  24   11   38 1
  25   12   39 1
  26   12   40 1
  27   14   15 ar
  28   14   16 ar
  29   15   19 ar
  30   15   41 1
  31   16   17 ar
  32   16   42 1
  33   17   18 ar
  34   17   27 1
  35   18   19 ar
  36   18   31 1
  37   19   43 1
  38   20   24 ar
  39   20   44 1
  40   21   22 ar
  41   21   45 1
  42   22   23 ar
  43   22   46 1
  44   23   24 ar
  45   23   29 1
  46   24   47 1
  47   25   26 3
  48   27   28 1
  49   28   48 1
  50   28   49 1
  51   28   50 1
  52   29   30 1
  53   30   51 1
  54   30   52 1
  55   30   53 1
  56   31   32 1
  57   32   54 1
  58   32   55 1
  59   32   56 1

#	End of record

