#	Name: ASD10610129
#	Creating user name:	WinNT
#	Creation time:	15. 06. 2019 21:28

#	Modifying user name:	WinNT
#	Modification time:	15. 06. 2019 21:28

#	Program:	/corina/corina34_cracker 3.40 0067  02.08.2006

@<TRIPOS>MOLECULE
ASD10610129
  36   38    0    0    0
SMALL
NO_CHARGES


@<TRIPOS>ATOM
   1 C1             0.0693     1.2479    -0.1702 C.ar    
   2 C2             0.1395    -0.1331    -0.1732 C.ar    
   3 C3             1.3845    -0.7426    -0.1235 C.ar    
   4 C4             2.5140     0.0604    -0.0722 C.ar    
   5 C5             2.3688     1.4350    -0.0719 C.ar    
   6 N6             1.1640     1.9785    -0.1206 N.ar    
   7 C7             3.9806    -0.3035    -0.0127 C.3     
   8 C8             4.7316     0.9839    -0.4145 C.3     
   9 C9             3.7335     2.0896    -0.0105 C.3     
  10 Br10          -1.4373    -1.1745    -0.2436 Br      
  11 N11            3.8039     3.2074    -0.9548 N.am    
  12 C12            3.4359     4.4437    -0.5641 C.2     
  13 O13            2.9618     4.6152     0.5389 O.2     
  14 C14            3.6137     5.6131    -1.4980 C.3     
  15 N15            4.8119     5.5729    -2.3399 N.am    
  16 C16            6.0341     5.6472    -1.7767 C.2     
  17 O17            6.1457     5.6558    -0.5690 O.2     
  18 C18            7.2619     5.7196    -2.6474 C.3     
  19 F19            8.4025     5.7894    -1.8404 F       
  20 F20            7.3300     4.5781    -3.4534 F       
  21 F21            7.1930     6.8586    -3.4569 F       
  22 C22            2.3514     6.2386    -2.0950 C.3     
  23 C23            3.1369     6.9835    -1.0127 C.3     
  24 H24           -0.8946     1.7332    -0.2134 H       
  25 H25            1.4723    -1.8190    -0.1242 H       
  26 H26            4.2556    -0.6019     0.9990 H       
  27 H27            4.2004    -1.1054    -0.7175 H       
  28 H28            5.6628     1.0796     0.1440 H       
  29 H29            4.9187     1.0043    -1.4881 H       
  30 H30            3.9417     2.4353     1.0020 H       
  31 H31            4.1152     3.0578    -1.8612 H       
  32 H32            4.7256     5.4929    -3.3027 H       
  33 H33            2.4126     6.6206    -3.1140 H       
  34 H34            1.3925     5.8043    -1.8123 H       
  35 H35            2.6943     7.0393    -0.0181 H       
  36 H36            3.7145     7.8553    -1.3200 H       
@<TRIPOS>BOND
   1    1    2 ar
   2    1    6 ar
   3    1   24 1
   4    2    3 ar
   5    2   10 1
   6    3    4 ar
   7    3   25 1
   8    4    5 ar
   9    4    7 1
  10    5    6 ar
  11    5    9 1
  12    7    8 1
  13    7   26 1
  14    7   27 1
  15    8    9 1
  16    8   28 1
  17    8   29 1
  18    9   11 1
  19    9   30 1
  20   11   12 am
  21   11   31 1
  22   12   13 2
  23   12   14 1
  24   14   15 1
  25   14   22 1
  26   14   23 1
  27   15   16 am
  28   15   32 1
  29   16   17 2
  30   16   18 1
  31   18   19 1
  32   18   21 1
  33   18   20 1
  34   22   23 1
  35   22   33 1
  36   22   34 1
  37   23   35 1
  38   23   36 1

#	End of record

