#	Name: ASD14880007
#	Creating user name:	WinNT
#	Creation time:	15. 06. 2019 21:31

#	Modifying user name:	WinNT
#	Modification time:	15. 06. 2019 21:31

#	Program:	/corina/corina34_cracker 3.40 0067  02.08.2006

@<TRIPOS>MOLECULE
ASD14880007
  12   12    0    0    0
SMALL
NO_CHARGES


@<TRIPOS>ATOM
   1 N1            -0.0159     1.3177     0.0093 N.2     
   2 C2             0.0021    -0.0041     0.0020 C.2     
   3 C3             1.2167    -0.5663    -0.0126 C.2     
   4 S4             2.4202     0.7211    -0.0172 S.3     
   5 C5             1.1322     1.9224     0.0016 C.2     
   6 N6             1.3162     3.2986     0.0065 N.pl3   
   7 S7             1.5541    -2.2956    -0.0242 S.3     
   8 C8             3.3637    -2.2626    -0.0418 C.1     
   9 N9             4.4995    -2.2419    -0.0529 N.1     
  10 H10           -0.9040    -0.5918     0.0079 H       
  11 H11            0.5479     3.8906     0.0168 H       
  12 H12            2.2131     3.6680    -0.0004 H       
@<TRIPOS>BOND
   1    1    2 1
   2    1    5 2
   3    2    3 2
   4    2   10 1
   5    3    4 1
   6    3    7 1
   7    4    5 1
   8    5    6 1
   9    6   11 1
  10    6   12 1
  11    7    8 1
  12    8    9 3

#	End of record

