#	Name: ASD10150001
#	Creating user name:	WinNT
#	Creation time:	15. 06. 2019 21:24

#	Modifying user name:	WinNT
#	Modification time:	15. 06. 2019 21:24

#	Program:	/corina/corina34_cracker 3.40 0067  02.08.2006

@<TRIPOS>MOLECULE
ASD10150001
   3    2    0    0    0
SMALL
NO_CHARGES


@<TRIPOS>ATOM
   1 S1            -0.0162     1.3408     0.0094 S.3     
   2 H2             0.0021    -0.0041     0.0020 H       
   3 H3             1.2901     1.6612    -0.0013 H       
@<TRIPOS>BOND
   1    1    2 1
   2    1    3 1

#	End of record

