#	Name: ASD10350003
#	Creating user name:	WinNT
#	Creation time:	15. 06. 2019 21:26

#	Modifying user name:	WinNT
#	Modification time:	15. 06. 2019 21:26

#	Program:	/corina/corina34_cracker 3.40 0067  02.08.2006

@<TRIPOS>MOLECULE
ASD10350003
  83   85    0    0    0
SMALL
NO_CHARGES


@<TRIPOS>ATOM
   1 O1            -0.0045    -1.6612    -0.0465 O.co2   
   2 S2             0.0925    -0.2284    -0.2786 S.o2    
   3 O3             1.4730     0.2115    -0.4075 O.co2   
   4 O4            -0.7240     0.1988    -1.4042 O.co2   
   5 O5            -0.4725     0.4557     0.9580 O.3     
   6 C6             0.3547     0.4236     2.0329 C.2     
   7 C7            -0.0176     0.9822     3.1688 C.2     
   8 C8            -1.4191     1.5129     3.3443 C.3     
   9 C9            -2.0098     0.9944     4.6497 C.3     
  10 C10           -1.0729     1.1100     5.8392 C.3     
  11 C11            0.3094     0.5427     5.5828 C.3     
  12 C12            0.9579     1.1072     4.3193 C.3     
  13 C13            2.2084     0.2861     3.9669 C.3     
  14 C14            3.0188     1.0239     2.8993 C.3     
  15 C15            4.2482     0.2218     2.5584 C.2     
  16 C16            4.3518    -0.7194     1.6031 C.2     
  17 O17            5.6062    -1.1993     1.6143 O.3     
  18 C18            6.3155    -0.5760     2.5694 C.2     
  19 C19            5.5157     0.3186     3.1773 C.2     
  20 C20            0.1544    -0.9867     5.3701 C.3     
  21 C21            1.2397     0.7169     6.7822 C.3     
  22 C22            1.2061     2.1469     7.3253 C.3     
  23 C23           -0.2332     2.4525     7.7366 C.3     
  24 C24           -1.1089     2.4922     6.4889 C.3     
  25 C25           -0.6533     3.5684     5.5096 C.3     
  26 C26           -2.5565     2.7926     6.9067 C.3     
  27 C27           -2.6140     4.1141     7.6688 C.3     
  28 C28           -1.7948     4.0179     8.9490 C.3     
  29 C29           -0.3412     3.6368     8.6677 C.3     
  30 C30            0.2764     3.2377    10.0311 C.3     
  31 C31            0.4300     4.8584     8.1682 C.3     
  32 H32            1.3179    -0.0593     1.9588 H       
  33 H33           -1.4312     2.5958     3.2954 H       
  34 H34           -2.0357     1.1424     2.5086 H       
  35 H35           -2.9375     1.5422     4.8597 H       
  36 H36           -2.2990    -0.0573     4.5157 H       
  37 H37           -1.5213     0.4296     6.6186 H       
  38 H38            1.2490     2.1427     4.4559 H       
  39 H39            2.8194     0.1535     4.8598 H       
  40 H40            1.9069    -0.6891     3.5848 H       
  41 H41            2.4093     1.1525     2.0048 H       
  42 H42            3.3164     2.0010     3.2798 H       
  43 H43            3.5604    -1.0361     0.9399 H       
  44 H44            7.3531    -0.7591     2.8064 H       
  45 H45            5.7876     0.9787     3.9877 H       
  46 H46           -0.4971    -1.1705     4.5157 H       
  47 H47            1.1330    -1.4285     5.1824 H       
  48 H48           -0.2817    -1.4353     6.2626 H       
  49 H49            0.9102     0.0371     7.5812 H       
  50 H50            2.2640     0.4521     6.5286 H       
  51 H51            1.8660     2.2018     8.1939 H       
  52 H52            1.5654     2.8358     6.5705 H       
  53 H53           -0.5752     1.5604     8.3191 H       
  54 H54            0.3710     3.3651     5.1970 H       
  55 H55           -1.3067     3.5659     4.6372 H       
  56 H56           -0.6984     4.5435     5.9946 H       
  57 H57           -3.1814     2.8645     6.0173 H       
  58 H58           -2.9178     1.9852     7.5434 H       
  59 H59           -2.2683     4.9380     7.0524 H       
  60 H60           -3.6617     4.3145     7.9365 H       
  61 H61           -1.8153     4.9829     9.4654 H       
  62 H62           -2.2389     3.2674     9.6098 H       
  63 H63           -0.2753     2.3946    10.4470 H       
  64 H64            1.3193     2.9548     9.8887 H       
  65 H65            0.2196     4.0829    10.7170 H       
  66 H66            0.5503     5.5708     8.9843 H       
  67 H67            1.4113     4.5471     7.8100 H       
  68 H68           -0.1217     5.3284     7.3540 H       
  69 N69           15.5408    14.4865    16.7247 N.pl3   
  70 C70           15.5594    13.1118    16.7171 C.2     
  71 N71           16.6969    12.4756    16.7028 N.2     
  72 N72           14.3783    12.4083    16.7246 N.pl3   
  73 C73           14.3981    10.9435    16.7165 C.3     
  74 C74           13.0998    13.1235    16.7406 C.3     
  75 H75           16.3741    14.9829    16.7194 H       
  76 H76           14.6942    14.9601    16.7312 H       
  77 H77           17.5303    12.9720    16.6975 H       
  78 H78           14.4129    10.5746    17.7421 H       
  79 H79           13.5083    10.5708    16.2092 H       
  80 H80           15.2880    10.5950    16.1923 H       
  81 H81           12.7729    13.3063    15.7170 H       
  82 H82           12.3531    12.5213    17.2584 H       
  83 H83           13.2221    14.0748    17.2584 H       
@<TRIPOS>BOND
   1    1    2 ar
   2    2    3 ar
   3    2    4 ar
   4    2    5 1
   5    5    6 1
   6    6    7 2
   7    6   32 1
   8    7    8 1
   9    7   12 1
  10    8    9 1
  11    8   33 1
  12    8   34 1
  13    9   10 1
  14    9   35 1
  15    9   36 1
  16   10   11 1
  17   10   24 1
  18   10   37 1
  19   11   20 1
  20   11   21 1
  21   11   12 1
  22   12   13 1
  23   12   38 1
  24   13   14 1
  25   13   39 1
  26   13   40 1
  27   14   15 1
  28   14   41 1
  29   14   42 1
  30   15   16 2
  31   15   19 1
  32   16   17 1
  33   16   43 1
  34   17   18 1
  35   18   19 2
  36   18   44 1
  37   19   45 1
  38   20   46 1
  39   20   47 1
  40   20   48 1
  41   21   22 1
  42   21   49 1
  43   21   50 1
  44   22   23 1
  45   22   51 1
  46   22   52 1
  47   23   24 1
  48   23   29 1
  49   23   53 1
  50   24   25 1
  51   24   26 1
  52   25   54 1
  53   25   55 1
  54   25   56 1
  55   26   27 1
  56   26   57 1
  57   26   58 1
  58   27   28 1
  59   27   59 1
  60   27   60 1
  61   28   29 1
  62   28   61 1
  63   28   62 1
  64   29   30 1
  65   29   31 1
  66   30   63 1
  67   30   64 1
  68   30   65 1
  69   31   66 1
  70   31   67 1
  71   31   68 1
  72   69   70 1
  73   69   75 1
  74   69   76 1
  75   70   71 2
  76   70   72 1
  77   71   77 1
  78   72   73 1
  79   72   74 1
  80   73   78 1
  81   73   79 1
  82   73   80 1
  83   74   81 1
  84   74   82 1
  85   74   83 1

#	End of record

