#	Name: ASD13750004
#	Creating user name:	WinNT
#	Creation time:	15. 06. 2019 21:30

#	Modifying user name:	WinNT
#	Modification time:	15. 06. 2019 21:30

#	Program:	/corina/corina34_cracker 3.40 0067  02.08.2006

@<TRIPOS>MOLECULE
ASD13750004
  34   36    0    0    0
SMALL
NO_CHARGES


@<TRIPOS>ATOM
   1 C1            -0.0166     1.3744     0.0096 C.ar    
   2 C2             0.0021    -0.0041     0.0020 C.ar    
   3 C3             1.2020    -0.6987    -0.0127 C.ar    
   4 C4             2.3976    -0.0123    -0.0199 C.ar    
   5 C5             2.4010     1.3762    -0.0130 C.ar    
   6 C6             1.1967     2.1019     0.0019 C.ar    
   7 S7             3.6982     2.5733    -0.0191 S.3     
   8 N8             2.6991     3.9398    -0.0035 N.am    
   9 C9             1.4282     3.5381     0.0079 C.2     
  10 C10            3.1345     5.2686    -0.0007 C.ar    
  11 C11            4.3820     5.5930    -0.5188 C.ar    
  12 C12            4.8100     6.9059    -0.5150 C.ar    
  13 C13            3.9968     7.8989     0.0052 C.ar    
  14 C14            2.7527     7.5779     0.5222 C.ar    
  15 C15            2.3180     6.2672     0.5149 C.ar    
  16 O16            0.5055     4.3349     0.0206 O.2     
  17 N17            1.1993    -2.1789    -0.0201 N.pl3   
  18 F18            4.4179     9.1825     0.0087 F       
  19 O19           -1.2018     2.0351     0.0188 O.3     
  20 O20            0.1434    -2.7860    -0.0133 O.2     
  21 O21            2.2529    -2.7898    -0.0330 O.2     
  22 C22           -2.3885     1.2388     0.0201 C.3     
  23 C23           -3.6157     2.1525     0.0308 C.3     
  24 F24           -3.6013     2.9661    -1.1071 F       
  25 F25           -4.7774     1.3730     0.0321 F       
  26 F26           -3.5905     2.9537     1.1774 F       
  27 H27           -0.9298    -0.5499     0.0080 H       
  28 H28            3.3315    -0.5545    -0.0307 H       
  29 H29            5.0168     4.8188    -0.9240 H       
  30 H30            5.7797     7.1585    -0.9177 H       
  31 H31            2.1203     8.3540     0.9274 H       
  32 H32            1.3459     6.0180     0.9141 H       
  33 H33           -2.4081     0.6146    -0.8732 H       
  34 H34           -2.3997     0.6049     0.9067 H       
@<TRIPOS>BOND
   1    1    2 ar
   2    1    6 ar
   3    1   19 1
   4    2    3 ar
   5    2   27 1
   6    3    4 ar
   7    3   17 1
   8    4    5 ar
   9    4   28 1
  10    5    7 1
  11    5    6 ar
  12    6    9 1
  13    7    8 1
  14    8    9 am
  15    8   10 1
  16    9   16 2
  17   10   11 ar
  18   10   15 ar
  19   11   12 ar
  20   11   29 1
  21   12   13 ar
  22   12   30 1
  23   13   14 ar
  24   13   18 1
  25   14   15 ar
  26   14   31 1
  27   15   32 1
  28   17   20 2
  29   17   21 2
  30   19   22 1
  31   22   23 1
  32   22   33 1
  33   22   34 1
  34   23   24 1
  35   23   25 1
  36   23   26 1

#	End of record

