#	Name: ASD14150001
#	Creating user name:	WinNT
#	Creation time:	15. 06. 2019 21:30

#	Modifying user name:	WinNT
#	Modification time:	15. 06. 2019 21:30

#	Program:	/corina/corina34_cracker 3.40 0067  02.08.2006

@<TRIPOS>MOLECULE
ASD14150001
  43   43    0    0    0
SMALL
NO_CHARGES


@<TRIPOS>ATOM
   1 C1            -0.0167     1.3781     0.0096 C.ar    
   2 C2             0.0021    -0.0041     0.0020 C.ar    
   3 C3             1.2084    -0.6789    -0.0132 C.ar    
   4 C4             2.3960     0.0285    -0.0212 C.ar    
   5 C5             2.3773     1.4107    -0.0145 C.ar    
   6 C6             1.1709     2.0855     0.0021 C.ar    
   7 C7            -1.3319     2.1138     0.0199 C.3     
   8 C8            -2.1231     1.7265     1.2708 C.3     
   9 C9            -1.0727     3.6217     0.0268 C.3     
  10 C10           -2.1350     1.7401    -1.2276 C.3     
  11 C11            3.7112    -0.7071    -0.0368 C.3     
  12 C12            4.1427    -0.9498    -1.4845 C.3     
  13 C13            5.4779    -1.6967    -1.5003 C.3     
  14 C14            5.9709    -1.8296    -2.9426 C.3     
  15 C15            6.4921    -0.9297    -0.6914 C.2     
  16 O16            5.3029    -2.9973    -0.9349 O.3     
  17 C17            7.2861    -2.5653    -2.9581 C.2     
  18 O18            7.0117    -1.4441     0.2705 O.2     
  19 O19            6.8183     0.3250    -1.0396 O.3     
  20 O20            7.7785    -2.9443    -1.9219 O.2     
  21 O21            7.9104    -2.7994    -4.1231 O.3     
  22 H22           -0.9258    -0.5567     0.0083 H       
  23 H23            1.2231    -1.7588    -0.0184 H       
  24 H24            3.3051     1.9634    -0.0205 H       
  25 H25            1.1563     3.1654     0.0077 H       
  26 H26           -1.5510     1.9928     2.1595 H       
  27 H27           -3.0744     2.2587     1.2782 H       
  28 H28           -2.3078     0.6523     1.2658 H       
  29 H29           -0.5090     3.8976    -0.8644 H       
  30 H30           -2.0240     4.1538     0.0342 H       
  31 H31           -0.5006     3.8879     0.9156 H       
  32 H32           -2.3196     0.6659    -1.2326 H       
  33 H33           -3.0862     2.2722    -1.2202 H       
  34 H34           -1.5713     2.0160    -2.1188 H       
  35 H35            4.4676    -0.1100     0.4726 H       
  36 H36            3.5986    -1.6635     0.4740 H       
  37 H37            3.3864    -1.5469    -1.9938 H       
  38 H38            4.2553     0.0066    -1.9952 H       
  39 H39            5.2373    -2.3843    -3.5276 H       
  40 H40            6.1044    -0.8375    -3.3738 H       
  41 H41            4.6624    -3.5479    -1.4057 H       
  42 H42            7.4736     0.7767    -0.4905 H       
  43 H43            8.7514    -3.2749    -4.0826 H       
@<TRIPOS>BOND
   1    1    2 ar
   2    1    6 ar
   3    1    7 1
   4    2    3 ar
   5    2   22 1
   6    3    4 ar
   7    3   23 1
   8    4    5 ar
   9    4   11 1
  10    5    6 ar
  11    5   24 1
  12    6   25 1
  13    7    8 1
  14    7    9 1
  15    7   10 1
  16    8   26 1
  17    8   27 1
  18    8   28 1
  19    9   29 1
  20    9   30 1
  21    9   31 1
  22   10   32 1
  23   10   33 1
  24   10   34 1
  25   11   12 1
  26   11   35 1
  27   11   36 1
  28   12   13 1
  29   12   37 1
  30   12   38 1
  31   13   14 1
  32   13   15 1
  33   13   16 1
  34   14   17 1
  35   14   39 1
  36   14   40 1
  37   15   18 2
  38   15   19 1
  39   16   41 1
  40   17   20 2
  41   17   21 1
  42   19   42 1
  43   21   43 1

#	End of record

