#	Name: ASD13040013
#	Creating user name:	WinNT
#	Creation time:	15. 06. 2019 21:30

#	Modifying user name:	WinNT
#	Modification time:	15. 06. 2019 21:30

#	Program:	/corina/corina34_cracker 3.40 0067  02.08.2006

@<TRIPOS>MOLECULE
ASD13040013
  78   82    0    0    0
SMALL
NO_CHARGES


@<TRIPOS>ATOM
   1 P1            -0.0180     1.4758     0.0102 P.3     
   2 O2             0.0021    -0.0041     0.0020 O.2     
   3 O3             1.4924     2.0330    -0.0013 O.3     
   4 O4            -0.7716     1.9950     1.3348 O.3     
   5 C5            -0.3850     1.6043     2.6538 C.3     
   6 C6            -1.3055     2.2756     3.6750 C.3     
   7 O7            -2.6417     1.7632     3.5398 O.3     
   8 C8            -0.8312     1.9468     5.1038 C.3     
   9 O9            -0.4999     3.1447     5.8090 O.3     
  10 C10           -2.0505     1.2525     5.7580 C.3     
  11 O11           -2.2247     1.6921     7.1065 O.3     
  12 C12           -3.2191     1.7374     4.8628 C.3     
  13 N13           -4.3380     0.7933     4.9190 N.pl3   
  14 C14           -4.5361    -0.2728     4.0929 C.2     
  15 N15           -5.6291    -0.8959     4.4258 N.2     
  16 C16           -6.2000    -0.2712     5.4835 C.ar    
  17 C17           -7.3576    -0.4856     6.2512 C.ar    
  18 N18           -8.2046    -1.5444     5.9744 N.pl3   
  19 N19           -7.6196     0.3517     7.2492 N.ar    
  20 C20           -6.8168     1.3646     7.5209 C.ar    
  21 N21           -5.7229     1.6042     6.8292 N.ar    
  22 C22           -5.3755     0.8166     5.8164 C.ar    
  23 O23           -0.7967     2.0091    -1.2942 O.3     
  24 P24           -0.8355     1.5534    -2.8378 P.3     
  25 O25            0.5284     1.1832    -3.2774 O.2     
  26 O26           -1.8139     0.2849    -2.9985 O.3     
  27 O27           -1.3795     2.7688    -3.7427 O.3     
  28 C28           -1.4326     2.7137    -5.1697 C.3     
  29 C29           -1.9979     4.0286    -5.7102 C.3     
  30 O30           -1.0819     5.1026    -5.4391 O.3     
  31 C31           -2.1598     3.9398    -7.2401 C.3     
  32 O32           -3.5273     4.1271    -7.6101 O.3     
  33 C33           -1.2883     5.0989    -7.7818 C.3     
  34 O34           -1.9427     5.7671    -8.8623 O.3     
  35 C35           -1.1759     6.0262    -6.5449 C.3     
  36 N36            0.0294     6.8547    -6.6290 N.pl3   
  37 C37           -0.0789     8.2169    -6.6558 C.2     
  38 C38            0.9495     8.9746    -7.0784 C.2     
  39 C39            0.8151    10.3827    -7.0873 C.2     
  40 O40           -0.2238    10.8975    -6.7147 O.2     
  41 N41            1.8367    11.1545    -7.5079 N.am    
  42 C42            2.2374     8.3553    -7.5416 C.3     
  43 C43            2.3332     6.9237    -7.0987 C.2     
  44 C44            1.2809     6.2557    -6.6758 C.2     
  45 P45           -2.2108     0.6879     8.3649 P.3     
  46 O46           -3.2154    -0.3786     8.1561 O.2     
  47 O47           -0.7493     0.0278     8.5086 O.3     
  48 O48           -2.5653     1.5040     9.7067 O.3     
  49 H49            1.5557     2.9980     0.0033 H       
  50 H50           -0.4642     0.5214     2.7499 H       
  51 H51            0.6450     1.9108     2.8364 H       
  52 H52           -1.3050     3.3547     3.5211 H       
  53 H53            0.0248     1.2725     5.0760 H       
  54 H54            0.2202     3.6506     5.4084 H       
  55 H55           -1.9503     0.1680     5.7143 H       
  56 H56           -3.5421     2.7351     5.1602 H       
  57 H57           -3.8827    -0.5579     3.2816 H       
  58 H58           -8.0024    -2.1490     5.2433 H       
  59 H59           -9.0006    -1.6820     6.5114 H       
  60 H60           -7.0674     2.0210     8.3411 H       
  61 H61           -2.7266     0.4555    -2.7283 H       
  62 H62           -0.4284     2.5602    -5.5649 H       
  63 H63           -2.0744     1.8883    -5.4778 H       
  64 H64           -2.9613     4.2368    -5.2448 H       
  65 H65           -1.7941     2.9809    -7.6074 H       
  66 H66           -3.6869     4.0811    -8.5627 H       
  67 H67           -0.3067     4.7373    -8.0880 H       
  68 H68           -2.1167     5.2014    -9.6270 H       
  69 H69           -2.0653     6.6491    -6.4501 H       
  70 H70           -0.9963     8.6883    -6.3358 H       
  71 H71            2.6641    10.7445    -7.8047 H       
  72 H72            1.7445    12.1201    -7.5140 H       
  73 H73            2.2843     8.3976    -8.6298 H       
  74 H74            3.0745     8.9159    -7.1256 H       
  75 H75            3.2931     6.4294    -7.1236 H       
  76 H76            1.3907     5.2272    -6.3651 H       
  77 H77           -0.0398     0.6698     8.6479 H       
  78 H78           -2.5750     0.9606    10.5065 H       
@<TRIPOS>BOND
   1    1    2 2
   2    1    3 1
   3    1    4 1
   4    1   23 1
   5    3   49 1
   6    4    5 1
   7    5    6 1
   8    5   50 1
   9    5   51 1
  10    6    7 1
  11    6    8 1
  12    6   52 1
  13    7   12 1
  14    8    9 1
  15    8   10 1
  16    8   53 1
  17    9   54 1
  18   10   11 1
  19   10   12 1
  20   10   55 1
  21   11   45 1
  22   12   13 1
  23   12   56 1
  24   13   14 1
  25   13   22 1
  26   14   15 2
  27   14   57 1
  28   15   16 1
  29   16   17 ar
  30   16   22 ar
  31   17   18 1
  32   17   19 ar
  33   18   58 1
  34   18   59 1
  35   19   20 ar
  36   20   21 ar
  37   20   60 1
  38   21   22 ar
  39   23   24 1
  40   24   25 2
  41   24   26 1
  42   24   27 1
  43   26   61 1
  44   27   28 1
  45   28   29 1
  46   28   62 1
  47   28   63 1
  48   29   30 1
  49   29   31 1
  50   29   64 1
  51   30   35 1
  52   31   32 1
  53   31   33 1
  54   31   65 1
  55   32   66 1
  56   33   34 1
  57   33   35 1
  58   33   67 1
  59   34   68 1
  60   35   36 1
  61   35   69 1
  62   36   37 1
  63   36   44 1
  64   37   38 2
  65   37   70 1
  66   38   39 1
  67   38   42 1
  68   39   40 2
  69   39   41 am
  70   41   71 1
  71   41   72 1
  72   42   43 1
  73   42   73 1
  74   42   74 1
  75   43   44 2
  76   43   75 1
  77   44   76 1
  78   45   46 2
  79   45   47 1
  80   45   48 1
  81   47   77 1
  82   48   78 1

#	End of record

