#	Name: ASD10410308
#	Creating user name:	WinNT
#	Creation time:	15. 06. 2019 21:27

#	Modifying user name:	WinNT
#	Modification time:	15. 06. 2019 21:27

#	Program:	/corina/corina34_cracker 3.40 0067  02.08.2006

@<TRIPOS>MOLECULE
ASD10410308
  76   83    0    0    0
SMALL
NO_CHARGES


@<TRIPOS>ATOM
   1 C1             1.1397    -0.5650    -0.4966 C.ar    
   2 C2            -0.0088     0.0145     0.0222 C.ar    
   3 C3             0.0356     1.2958     0.5317 C.ar    
   4 C4             1.2277     2.0019     0.5168 C.ar    
   5 C5             2.3770     1.4250    -0.0040 C.ar    
   6 C6             2.3293     0.1330    -0.5119 C.ar    
   7 N7             3.5770     2.1407    -0.0180 N.pl3   
   8 C8             3.5582     3.5327    -0.1130 C.2     
   9 N9             4.6074     4.3156    -0.0345 N.2     
  10 N10            2.4674     4.2836    -0.3048 N.2     
  11 C11            2.8062     5.5545    -0.3458 C.2     
  12 N12            4.1468     5.6341    -0.1802 N.pl3   
  13 N13            1.9449     6.6201    -0.5289 N.pl3   
  14 C14            4.9205     6.7989    -0.1585 C.ar    
  15 C15           -1.2864    -0.7854     0.0053 C.3     
  16 C16           -2.3015    -0.1686     0.9678 C.3     
  17 N17           -2.4019     1.2714     0.6823 N.3     
  18 C18           -1.1829     1.9611     1.1163 C.3     
  19 C19           -3.5909     1.8528     1.3197 C.3     
  20 C20            6.1347     6.7954     0.5131 C.ar    
  21 N21            4.4793     7.8855    -0.7868 N.ar    
  22 C22            5.1770     8.9843    -0.7847 C.ar    
  23 C23            6.4082     9.0701    -0.1276 C.ar    
  24 C24            6.9117     7.9613     0.5365 C.ar    
  25 C25            4.7816    10.2832    -1.4631 C.3     
  26 C26            4.7841    11.3613    -0.3599 C.3     
  27 C27            6.1346    11.3485     0.3597 C.3     
  28 N28            7.0221    10.3238    -0.2245 N.3     
  29 C29            7.2566    10.6437    -1.6463 C.3     
  30 C30            5.9375    10.6355    -2.4219 C.3     
  31 C31            8.2132     8.0094     1.2458 C.ar    
  32 C32            8.3104     7.5577     2.5607 C.ar    
  33 C33            9.5243     7.6044     3.2156 C.ar    
  34 C34           10.6431     8.0988     2.5696 C.ar    
  35 C35           10.5524     8.5489     1.2648 C.ar    
  36 C36            9.3451     8.5012     0.5979 C.ar    
  37 C37           -3.6077     3.3775     1.1125 C.3     
  38 C38           -4.8957     3.7015     0.3278 C.3     
  39 C39           -5.8383     2.5119     0.6370 C.3     
  40 C40           -4.8694     1.3035     0.6537 C.3     
  41 H41            1.1033    -1.5712    -0.8872 H       
  42 H42            1.2623     3.0063     0.9122 H       
  43 H43            3.2203    -0.3234    -0.9170 H       
  44 H44            4.4232     1.6699     0.0384 H       
  45 H45            0.9945     6.4617    -0.6413 H       
  46 H46            2.2908     7.5261    -0.5449 H       
  47 H47           -1.6990    -0.7869    -1.0036 H       
  48 H48           -1.0755    -1.8105     0.3099 H       
  49 H49           -3.2744    -0.6389     0.8246 H       
  50 H50           -1.9683    -0.3158     1.9951 H       
  51 H51           -1.1213     1.9337     2.2042 H       
  52 H52           -1.2195     2.9994     0.7866 H       
  53 H53           -3.5946     1.6207     2.3847 H       
  54 H54            6.4777     5.9020     1.0137 H       
  55 H55            3.8185    10.2101    -1.9683 H       
  56 H56            4.6205    12.3410    -0.8086 H       
  57 H57            3.9890    11.1513     0.3555 H       
  58 H58            6.6032    12.3279     0.2626 H       
  59 H59            5.9775    11.1287     1.4157 H       
  60 H60            7.7135    11.6303    -1.7230 H       
  61 H61            7.9315     9.9032    -2.0756 H       
  62 H62            5.9885     9.8930    -3.2182 H       
  63 H63            5.7637    11.6210    -2.8541 H       
  64 H64            7.4374     7.1722     3.0663 H       
  65 H65            9.6008     7.2546     4.2346 H       
  66 H66           11.5909     8.1338     3.0861 H       
  67 H67           11.4291     8.9342     0.7654 H       
  68 H68            9.2754     8.8529    -0.4208 H       
  69 H69           -3.6203     3.8852     2.0769 H       
  70 H70           -2.7336     3.6860     0.5391 H       
  71 H71           -5.3324     4.6358     0.6805 H       
  72 H72           -4.6880     3.7558    -0.7408 H       
  73 H73           -6.3142     2.6388     1.6094 H       
  74 H74           -6.5856     2.3970    -0.1480 H       
  75 H75           -4.6574     0.9706    -0.3623 H       
  76 H76           -5.2869     0.4879     1.2441 H       
@<TRIPOS>BOND
   1    1    2 ar
   2    1    6 ar
   3    1   41 1
   4    2    3 ar
   5    2   15 1
   6    3    4 ar
   7    3   18 1
   8    4    5 ar
   9    4   42 1
  10    5    6 ar
  11    5    7 1
  12    6   43 1
  13    7    8 1
  14    7   44 1
  15    8    9 2
  16    8   10 1
  17    9   12 1
  18   10   11 2
  19   11   12 1
  20   11   13 1
  21   12   14 1
  22   13   45 1
  23   13   46 1
  24   14   20 ar
  25   14   21 ar
  26   15   16 1
  27   15   47 1
  28   15   48 1
  29   16   17 1
  30   16   49 1
  31   16   50 1
  32   17   18 1
  33   17   19 1
  34   18   51 1
  35   18   52 1
  36   19   37 1
  37   19   40 1
  38   19   53 1
  39   20   24 ar
  40   20   54 1
  41   21   22 ar
  42   22   23 ar
  43   22   25 1
  44   23   24 ar
  45   23   28 1
  46   24   31 1
  47   25   26 1
  48   25   30 1
  49   25   55 1
  50   26   27 1
  51   26   56 1
  52   26   57 1
  53   27   28 1
  54   27   58 1
  55   27   59 1
  56   28   29 1
  57   29   30 1
  58   29   60 1
  59   29   61 1
  60   30   62 1
  61   30   63 1
  62   31   32 ar
  63   31   36 ar
  64   32   33 ar
  65   32   64 1
  66   33   34 ar
  67   33   65 1
  68   34   35 ar
  69   34   66 1
  70   35   36 ar
  71   35   67 1
  72   36   68 1
  73   37   38 1
  74   37   69 1
  75   37   70 1
  76   38   39 1
  77   38   71 1
  78   38   72 1
  79   39   40 1
  80   39   73 1
  81   39   74 1
  82   40   75 1
  83   40   76 1

#	End of record

