#	Name: ASD11820011
#	Creating user name:	WinNT
#	Creation time:	15. 06. 2019 21:29

#	Modifying user name:	WinNT
#	Modification time:	15. 06. 2019 21:29

#	Program:	/corina/corina34_cracker 3.40 0067  02.08.2006

@<TRIPOS>MOLECULE
ASD11820011
  33   36    0    0    0
SMALL
NO_CHARGES


@<TRIPOS>ATOM
   1 C1            -0.0165     1.3681     0.0096 C.ar    
   2 C2             0.0021    -0.0041     0.0020 C.ar    
   3 C3             1.2093    -0.6913    -0.0132 C.ar    
   4 C4             2.4058    -0.0089    -0.0210 C.ar    
   5 C5             1.1868     2.0763     0.0019 C.ar    
   6 C6             1.5295     3.5005     0.0058 C.2     
   7 C7             2.4101     1.3820    -0.0135 C.ar    
   8 N8             3.4129     2.3264    -0.0176 N.pl3   
   9 C9             2.8693     3.5819    -0.0068 C.2     
  10 C10            0.5614     4.6553     0.0206 C.3     
  11 C11            0.1570     4.9536     1.4414 C.2     
  12 C12            0.8769     5.8049     2.3917 C.ar    
  13 C13           -0.9341     4.4944     2.0742 C.2     
  14 N14           -0.9695     4.9778     3.3537 N.pl3   
  15 C15            0.1248     5.7832     3.5803 C.ar    
  16 C16            2.0540     6.5529     2.3253 C.ar    
  17 C17            0.5657     6.5107     4.6807 C.ar    
  18 C18            1.7296     7.2427     4.5975 C.ar    
  19 C19            2.4707     7.2638     3.4227 C.ar    
  20 Cl20           3.9339     8.1945     3.3426 Cl      
  21 Cl21          -1.4927    -0.8868     0.0121 Cl      
  22 H22           -0.9577     1.8978     0.0169 H       
  23 H23            1.2096    -1.7712    -0.0186 H       
  24 H24            3.3388    -0.5529    -0.0324 H       
  25 H25            4.3629     2.1304    -0.0269 H       
  26 H26            3.4345     4.5022    -0.0079 H       
  27 H27            1.0376     5.5343    -0.4138 H       
  28 H28           -0.3226     4.3959    -0.5619 H       
  29 H29           -1.6747     3.8405     1.6378 H       
  30 H30           -1.6629     4.7840     4.0036 H       
  31 H31            2.6342     6.5716     1.4145 H       
  32 H32           -0.0035     6.5019     5.5985 H       
  33 H33            2.0690     7.8065     5.4539 H       
@<TRIPOS>BOND
   1    1    2 ar
   2    1    5 ar
   3    1   22 1
   4    2    3 ar
   5    2   21 1
   6    3    4 ar
   7    3   23 1
   8    4    7 ar
   9    4   24 1
  10    5    7 ar
  11    5    6 1
  12    6    9 2
  13    6   10 1
  14    7    8 1
  15    8    9 1
  16    8   25 1
  17    9   26 1
  18   10   11 1
  19   10   27 1
  20   10   28 1
  21   11   13 2
  22   11   12 1
  23   12   15 ar
  24   12   16 ar
  25   13   14 1
  26   13   29 1
  27   14   15 1
  28   14   30 1
  29   15   17 ar
  30   16   19 ar
  31   16   31 1
  32   17   18 ar
  33   17   32 1
  34   18   19 ar
  35   18   33 1
  36   19   20 1

#	End of record

