#	Name: ASD10160183
#	Creating user name:	WinNT
#	Creation time:	15. 06. 2019 21:25

#	Modifying user name:	WinNT
#	Modification time:	15. 06. 2019 21:25

#	Program:	/corina/corina34_cracker 3.40 0067  02.08.2006

@<TRIPOS>MOLECULE
ASD10160183
  38   40    0    0    0
SMALL
NO_CHARGES


@<TRIPOS>ATOM
   1 C1            -0.0372     1.4701     0.0141 C.2     
   2 C2            -0.0121    -0.0043     0.0050 C.ar    
   3 C3             1.2033    -0.6850    -0.1321 C.ar    
   4 C4             1.2215    -2.0653    -0.1396 C.ar    
   5 C5             0.0369    -2.7778    -0.0114 C.ar    
   6 C6            -1.1743    -2.1044     0.1247 C.ar    
   7 C7            -1.2017    -0.7266     0.1391 C.ar    
   8 O8             0.9991     2.0965    -0.0975 O.2     
   9 N9            -1.2092     2.1234     0.1407 N.am    
  10 S10           -1.2373     3.7791     0.1509 S.o2    
  11 O11           -2.6096     4.1052     0.3230 O.2     
  12 O12           -0.2704     4.1400     1.1277 O.2     
  13 C13           -0.6739     4.2517    -1.5073 C.3     
  14 O14            0.0594    -4.1352    -0.0193 O.3     
  15 C15           -0.6726    -4.6944    -3.4439 C.ar    
  16 N16           -0.5819    -5.9996    -3.5816 N.ar    
  17 C17           -0.2718    -6.7721    -2.5428 C.ar    
  18 C18           -0.0431    -6.1612    -1.2946 C.ar    
  19 C19           -0.1514    -4.7678    -1.1983 C.ar    
  20 N20           -0.4660    -4.0825    -2.2917 N.ar    
  21 N21           -0.1064    -8.1187    -2.3688 N.pl3   
  22 C22            0.2710    -7.2431    -0.3630 C.2     
  23 C23            0.2172    -8.3873    -1.0640 C.2     
  24 C24            0.5940    -7.1016     1.1022 C.3     
  25 F25           -2.3239    -2.8031     0.2486 F       
  26 F26            2.3564     0.0077    -0.2573 F       
  27 H27            2.1586    -2.5917    -0.2456 H       
  28 H28           -2.1412    -0.2056     0.2492 H       
  29 H29           -2.0362     1.6237     0.2257 H       
  30 H30           -1.3524     3.8378    -2.2533 H       
  31 H31           -0.6613     5.3384    -1.5908 H       
  32 H32            0.3306     3.8628    -1.6743 H       
  33 H33           -0.9217    -4.0984    -4.3094 H       
  34 H34           -0.2043    -8.7857    -3.0661 H       
  35 H35            0.4012    -9.3719    -0.6602 H       
  36 H36           -0.3256    -7.1600     1.6843 H       
  37 H37            1.2672    -7.9036     1.4049 H       
  38 H38            1.0742    -6.1388     1.2770 H       
@<TRIPOS>BOND
   1    1    2 1
   2    1    8 2
   3    1    9 am
   4    2    3 ar
   5    2    7 ar
   6    3    4 ar
   7    3   26 1
   8    4    5 ar
   9    4   27 1
  10    5    6 ar
  11    5   14 1
  12    6    7 ar
  13    6   25 1
  14    7   28 1
  15    9   10 am
  16    9   29 1
  17   10   11 2
  18   10   12 2
  19   10   13 1
  20   13   30 1
  21   13   31 1
  22   13   32 1
  23   14   19 1
  24   15   16 ar
  25   15   20 ar
  26   15   33 1
  27   16   17 ar
  28   17   18 ar
  29   17   21 1
  30   18   19 ar
  31   18   22 1
  32   19   20 ar
  33   21   23 1
  34   21   34 1
  35   22   23 2
  36   22   24 1
  37   23   35 1
  38   24   36 1
  39   24   37 1
  40   24   38 1

#	End of record

