#	Name: ASD10160411
#	Creating user name:	WinNT
#	Creation time:	15. 06. 2019 21:25

#	Modifying user name:	WinNT
#	Modification time:	15. 06. 2019 21:25

#	Program:	/corina/corina34_cracker 3.40 0067  02.08.2006

@<TRIPOS>MOLECULE
ASD10160411
  47   48    0    0    0
SMALL
NO_CHARGES


@<TRIPOS>ATOM
   1 C1             0.7584     1.4122    -0.3985 C.2     
   2 C2             0.5740    -0.0459    -0.2995 C.ar    
   3 C3             1.5351    -0.9138    -0.8341 C.ar    
   4 C4             1.3569    -2.2787    -0.7377 C.ar    
   5 C5             0.2271    -2.7906    -0.1120 C.ar    
   6 C6            -0.7289    -1.9314     0.4198 C.ar    
   7 C7            -0.5581    -0.5686     0.3336 C.ar    
   8 O8             1.7454     1.8641    -0.9446 O.2     
   9 O9            -0.1703     2.2449     0.1117 O.3     
  10 F10            2.6335    -0.4156    -1.4428 F       
  11 O11            0.0553    -4.1333    -0.0197 O.3     
  12 C12            0.5295    -6.1531     1.1517 C.ar    
  13 C13            0.5810    -4.7714     1.0598 C.ar    
  14 C14            1.1781    -4.0446     2.0862 C.ar    
  15 C15            1.7006    -4.7362     3.1661 C.ar    
  16 C16            1.6121    -6.1229     3.1889 C.ar    
  17 N17            1.0377    -6.7798     2.1957 N.ar    
  18 O18            2.1212    -6.8108     4.2430 O.3     
  19 C19            1.9996    -8.2342     4.2084 C.3     
  20 C20            3.2280    -8.8344     3.5217 C.3     
  21 C21            1.9002    -8.7723     5.6372 C.3     
  22 Cl22           2.4570    -3.8820     4.4744 Cl      
  23 C23            0.0771     3.6695    -0.0220 C.3     
  24 C24            0.1840     4.0316    -1.5046 C.3     
  25 C25           -1.0769     4.4491     0.6116 C.3     
  26 C26            1.3848     4.0286     0.6863 C.3     
  27 H27            2.0962    -2.9497    -1.1494 H       
  28 H28           -1.6055    -2.3348     0.9048 H       
  29 H29           -1.2995     0.0966     0.7511 H       
  30 H30            0.0639    -6.7234     0.3615 H       
  31 H31            1.2327    -2.9669     2.0411 H       
  32 H32            1.1026    -8.5088     3.6535 H       
  33 H33            4.1250    -8.5597     4.0766 H       
  34 H34            3.1352    -9.9202     3.4953 H       
  35 H35            3.2988    -8.4510     2.5038 H       
  36 H36            1.0251    -8.3447     6.1265 H       
  37 H37            1.8075    -9.8580     5.6109 H       
  38 H38            2.7973    -8.4976     6.1922 H       
  39 H39           -0.7477     3.7758    -2.0092 H       
  40 H40            0.3697     5.1010    -1.6049 H       
  41 H41            1.0061     3.4762    -1.9560 H       
  42 H42           -1.1530     4.1911     1.6678 H       
  43 H43           -0.8911     5.5185     0.5113 H       
  44 H44           -2.0085     4.1933     0.1070 H       
  45 H45            2.2069     3.4731     0.2350 H       
  46 H46            1.5706     5.0980     0.5860 H       
  47 H47            1.3087     3.7706     1.7426 H       
@<TRIPOS>BOND
   1    1    2 1
   2    1    8 2
   3    1    9 1
   4    2    3 ar
   5    2    7 ar
   6    3    4 ar
   7    3   10 1
   8    4    5 ar
   9    4   27 1
  10    5    6 ar
  11    5   11 1
  12    6    7 ar
  13    6   28 1
  14    7   29 1
  15    9   23 1
  16   11   13 1
  17   12   13 ar
  18   12   17 ar
  19   12   30 1
  20   13   14 ar
  21   14   15 ar
  22   14   31 1
  23   15   16 ar
  24   15   22 1
  25   16   17 ar
  26   16   18 1
  27   18   19 1
  28   19   20 1
  29   19   21 1
  30   19   32 1
  31   20   33 1
  32   20   34 1
  33   20   35 1
  34   21   36 1
  35   21   37 1
  36   21   38 1
  37   23   24 1
  38   23   26 1
  39   23   25 1
  40   24   39 1
  41   24   40 1
  42   24   41 1
  43   25   42 1
  44   25   43 1
  45   25   44 1
  46   26   45 1
  47   26   46 1
  48   26   47 1

#	End of record

