#	Name: ASD10410106
#	Creating user name:	WinNT
#	Creation time:	15. 06. 2019 21:26

#	Modifying user name:	WinNT
#	Modification time:	15. 06. 2019 21:26

#	Program:	/corina/corina34_cracker 3.40 0067  02.08.2006

@<TRIPOS>MOLECULE
ASD10410106
  66   70    0    0    0
SMALL
NO_CHARGES


@<TRIPOS>ATOM
   1 C1             0.1120     1.6213     0.8333 C.ar    
   2 C2             0.0514     0.3847     0.2078 C.ar    
   3 C3             1.1872    -0.1525    -0.3800 C.ar    
   4 C4             2.3794     0.5435    -0.3429 C.ar    
   5 C5             2.4408     1.7818     0.2828 C.ar    
   6 C6             1.3032     2.3189     0.8710 C.ar    
   7 O7            -1.1221    -0.3015     0.1711 O.3     
   8 N8             3.6490     2.4878     0.3214 N.pl3   
   9 C9             3.6420     3.8827     0.3217 C.2     
  10 N10            4.6988     4.6494     0.4453 N.2     
  11 N11            2.5565     4.6542     0.1902 N.2     
  12 C12            2.9063     5.9220     0.2334 C.2     
  13 N13            4.2490     5.9787     0.3936 N.pl3   
  14 C14            5.0330     7.1321     0.4887 C.ar    
  15 N15            2.0536     7.0046     0.1296 N.pl3   
  16 C16            4.7108     8.2776    -0.2404 C.ar    
  17 C17           -1.1123    -1.5686    -0.4895 C.3     
  18 C18           -2.5108    -2.1861    -0.4292 C.3     
  19 N19           -3.4564    -1.3289    -1.1566 N.3     
  20 C20           -4.7924    -1.9369    -1.1993 C.3     
  21 C21           -5.7807    -0.9558    -1.8339 C.3     
  22 C22           -5.3113    -0.6103    -3.2498 C.3     
  23 C23           -3.8986    -0.0237    -3.1818 C.3     
  24 C24           -2.9648    -1.0317    -2.5081 C.3     
  25 C25            6.1498     7.1682     1.3166 C.ar    
  26 C26            6.9020     8.3336     1.3824 C.ar    
  27 N27            6.5634     9.3976     0.6689 N.ar    
  28 C28            5.5064     9.3969    -0.1221 C.ar    
  29 N29            8.0212     8.3847     2.2057 N.3     
  30 C30            8.6715     9.7010     2.1296 C.3     
  31 C31            9.8605     9.7333     3.0935 C.3     
  32 O32           10.7575     8.6669     2.7720 O.3     
  33 C33           10.1573     7.3704     2.8367 C.3     
  34 C34            8.9713     7.3142     1.8702 C.3     
  35 H35           -0.7738     2.0407     1.2871 H       
  36 H36            1.1392    -1.1155    -0.8666 H       
  37 H37            3.2638     0.1247    -0.7999 H       
  38 H38            1.3500     3.2820     1.3575 H       
  39 H39            4.4910     2.0070     0.3479 H       
  40 H40            1.1011     6.8624     0.0135 H       
  41 H41            2.4075     7.9067     0.1728 H       
  42 H42            3.8482     8.2868    -0.8902 H       
  43 H43           -0.8195    -1.4333    -1.5307 H       
  44 H44           -0.4012    -2.2306     0.0048 H       
  45 H45           -2.4913    -3.1753    -0.8866 H       
  46 H46           -2.8252    -2.2728     0.6109 H       
  47 H47           -4.7567    -2.8509    -1.7921 H       
  48 H48           -5.1161    -2.1739    -0.1858 H       
  49 H49           -6.7690    -1.4134    -1.8796 H       
  50 H50           -5.8273    -0.0470    -1.2340 H       
  51 H51           -5.3020    -1.5128    -3.8609 H       
  52 H52           -5.9889     0.1216    -3.6897 H       
  53 H53           -3.5422     0.1848    -4.1906 H       
  54 H54           -3.9155     0.8999    -2.6031 H       
  55 H55           -1.9611    -0.6113    -2.4452 H       
  56 H56           -2.9377    -1.9500    -3.0948 H       
  57 H57            6.4278     6.3028     1.8998 H       
  58 H58            5.2641    10.2845    -0.6878 H       
  59 H59            9.0227     9.8753     1.1125 H       
  60 H60            7.9573    10.4764     2.4066 H       
  61 H61           10.3800    10.6869     2.9989 H       
  62 H62            9.5033     9.6126     4.1162 H       
  63 H63           10.8914     6.6150     2.5564 H       
  64 H64            9.8087     7.1810     3.8520 H       
  65 H65            8.4759     6.3472     1.9578 H       
  66 H66            9.3273     7.4503     0.8490 H       
@<TRIPOS>BOND
   1    1    2 ar
   2    1    6 ar
   3    1   35 1
   4    2    3 ar
   5    2    7 1
   6    3    4 ar
   7    3   36 1
   8    4    5 ar
   9    4   37 1
  10    5    6 ar
  11    5    8 1
  12    6   38 1
  13    7   17 1
  14    8    9 1
  15    8   39 1
  16    9   10 2
  17    9   11 1
  18   10   13 1
  19   11   12 2
  20   12   13 1
  21   12   15 1
  22   13   14 1
  23   14   16 ar
  24   14   25 ar
  25   15   40 1
  26   15   41 1
  27   16   28 ar
  28   16   42 1
  29   17   18 1
  30   17   43 1
  31   17   44 1
  32   18   19 1
  33   18   45 1
  34   18   46 1
  35   19   20 1
  36   19   24 1
  37   20   21 1
  38   20   47 1
  39   20   48 1
  40   21   22 1
  41   21   49 1
  42   21   50 1
  43   22   23 1
  44   22   51 1
  45   22   52 1
  46   23   24 1
  47   23   53 1
  48   23   54 1
  49   24   55 1
  50   24   56 1
  51   25   26 ar
  52   25   57 1
  53   26   27 ar
  54   26   29 1
  55   27   28 ar
  56   28   58 1
  57   29   30 1
  58   29   34 1
  59   30   31 1
  60   30   59 1
  61   30   60 1
  62   31   32 1
  63   31   61 1
  64   31   62 1
  65   32   33 1
  66   33   34 1
  67   33   63 1
  68   33   64 1
  69   34   65 1
  70   34   66 1

#	End of record

