#	Name: ASD11000262
#	Creating user name:	WinNT
#	Creation time:	15. 06. 2019 21:29

#	Modifying user name:	WinNT
#	Modification time:	15. 06. 2019 21:29

#	Program:	/corina/corina34_cracker 3.40 0067  02.08.2006

@<TRIPOS>MOLECULE
ASD11000262
  33   35    0    0    0
SMALL
NO_CHARGES


@<TRIPOS>ATOM
   1 N1            -0.0169     1.3944     0.0097 N.pl3   
   2 N2             0.0021    -0.0041     0.0020 N.2     
   3 C3             1.2313    -0.4347    -0.0120 C.2     
   4 C4             2.1118     0.7290    -0.0142 C.ar    
   5 C5             3.5017     0.8955    -0.0265 C.ar    
   6 C6             4.0326     2.1679    -0.0248 C.ar    
   7 C7             3.1942     3.2815    -0.0104 C.ar    
   8 C8             1.8371     3.1338     0.0023 C.ar    
   9 C9             1.2738     1.8601    -0.0001 C.ar    
  10 O10            5.3818     2.3375    -0.0367 O.3     
  11 C11            1.6665    -1.8774    -0.0235 C.3     
  12 F12            0.5422    -2.7028    -0.1323 F       
  13 F13            2.5155    -2.0997    -1.1130 F       
  14 F14            2.3459    -2.1690     1.1642 F       
  15 C15           -1.2214     2.2283     0.0202 C.3     
  16 C16           -1.8610     2.2188    -1.3707 C.3     
  17 C17           -3.1516     3.0432    -1.3363 C.3     
  18 C18           -4.0828     2.4690    -0.2642 C.3     
  19 C19           -3.3574     2.4688     1.0839 C.3     
  20 O20           -2.1511     1.7106     0.9741 O.3     
  21 H21            4.1529     0.0341    -0.0370 H       
  22 H22            3.6232     4.2726    -0.0088 H       
  23 H23            1.1996     4.0055     0.0137 H       
  24 H24            5.7636     2.3913    -0.9235 H       
  25 H25           -0.9540     3.2498     0.2904 H       
  26 H26           -1.1699     2.6541    -2.0924 H       
  27 H27           -2.0916     1.1931    -1.6586 H       
  28 H28           -2.9156     4.0801    -1.0968 H       
  29 H29           -3.6414     2.9946    -2.3088 H       
  30 H30           -4.9806     3.0832    -0.1947 H       
  31 H31           -4.3583     1.4483    -0.5298 H       
  32 H32           -3.1181     3.4935     1.3681 H       
  33 H33           -4.0000     2.0217     1.8424 H       
@<TRIPOS>BOND
   1    1    2 1
   2    1    9 1
   3    1   15 1
   4    2    3 2
   5    3    4 1
   6    3   11 1
   7    4    5 ar
   8    4    9 ar
   9    5    6 ar
  10    5   21 1
  11    6    7 ar
  12    6   10 1
  13    7    8 ar
  14    7   22 1
  15    8    9 ar
  16    8   23 1
  17   10   24 1
  18   11   12 1
  19   11   13 1
  20   11   14 1
  21   15   16 1
  22   15   20 1
  23   15   25 1
  24   16   17 1
  25   16   26 1
  26   16   27 1
  27   17   18 1
  28   17   28 1
  29   17   29 1
  30   18   19 1
  31   18   30 1
  32   18   31 1
  33   19   20 1
  34   19   32 1
  35   19   33 1

#	End of record

