#	Name: ASD12970009
#	Creating user name:	WinNT
#	Creation time:	15. 06. 2019 21:30

#	Modifying user name:	WinNT
#	Modification time:	15. 06. 2019 21:30

#	Program:	/corina/corina34_cracker 3.40 0067  02.08.2006

@<TRIPOS>MOLECULE
ASD12970009
  29   28    0    0    0
SMALL
NO_CHARGES


@<TRIPOS>ATOM
   1 C1             0.0131     1.2300    -0.0908 C.2     
   2 C2            -0.0374    -0.0600     0.1315 C.2     
   3 C3             1.3462     1.9230    -0.2074 C.3     
   4 C4            -1.2620     2.0200    -0.2362 C.3     
   5 C5             1.2320    -0.8720     0.1475 C.3     
   6 C6             1.3378    -1.6269     1.4741 C.3     
   7 C7             2.6266    -2.4513     1.4905 C.3     
   8 C8             2.7308    -3.1949     2.7971 C.2     
   9 C9             2.7876    -4.5036     2.8033 C.2     
  10 O10            2.6074    -3.3868     0.4103 O.3     
  11 C11            3.8302    -1.5194     1.3366 C.3     
  12 H12           -0.9887    -0.5416     0.3032 H       
  13 H13            1.8958     1.5133    -1.0549 H       
  14 H14            1.1886     2.9909    -0.3586 H       
  15 H15            1.9185     1.7660     0.7069 H       
  16 H16           -1.5766     2.3853     0.7415 H       
  17 H17           -1.0916     2.8657    -0.9024 H       
  18 H18           -2.0402     1.3804    -0.6527 H       
  19 H19            1.2174    -1.5855    -0.6763 H       
  20 H20            2.0895    -0.2081     0.0380 H       
  21 H21            1.3525    -0.9134     2.2980 H       
  22 H22            0.4803    -2.2909     1.5837 H       
  23 H23            2.7586    -2.6488     3.7284 H       
  24 H24            2.7598    -5.0497     1.8719 H       
  25 H25            2.8622    -5.0365     3.7397 H       
  26 H26            1.8692    -4.0105     0.4433 H       
  27 H27            3.8448    -0.8058     2.1605 H       
  28 H28            4.7483    -2.1067     1.3483 H       
  29 H29            3.7548    -0.9816     0.3916 H       
@<TRIPOS>BOND
   1    1    2 2
   2    1    3 1
   3    1    4 1
   4    2    5 1
   5    2   12 1
   6    3   13 1
   7    3   14 1
   8    3   15 1
   9    4   16 1
  10    4   17 1
  11    4   18 1
  12    5    6 1
  13    5   19 1
  14    5   20 1
  15    6    7 1
  16    6   21 1
  17    6   22 1
  18    7    8 1
  19    7   10 1
  20    7   11 1
  21    8    9 2
  22    8   23 1
  23    9   24 1
  24    9   25 1
  25   10   26 1
  26   11   27 1
  27   11   28 1
  28   11   29 1

#	End of record

