#	Name: ASD10160166
#	Creating user name:	WinNT
#	Creation time:	15. 06. 2019 21:25

#	Modifying user name:	WinNT
#	Modification time:	15. 06. 2019 21:25

#	Program:	/corina/corina34_cracker 3.40 0067  02.08.2006

@<TRIPOS>MOLECULE
ASD10160166
  38   40    0    0    0
SMALL
NO_CHARGES


@<TRIPOS>ATOM
   1 C1            -0.3458     1.4555     0.0770 C.2     
   2 C2            -0.2395    -0.0151     0.0514 C.ar    
   3 C3             1.0070    -0.6258    -0.1286 C.ar    
   4 C4             1.1013    -2.0029    -0.1519 C.ar    
   5 C5            -0.0378    -2.7812     0.0027 C.ar    
   6 C6            -1.2798    -2.1775     0.1815 C.ar    
   7 C7            -1.3828    -0.8036     0.2124 C.ar    
   8 O8             0.6505     2.1395    -0.0582 O.2     
   9 N9            -1.5478     2.0414     0.2448 N.am    
  10 S10           -1.6672     3.6929     0.2737 S.o2    
  11 O11           -3.0497     3.9406     0.4894 O.2     
  12 O12           -0.6930     4.0981     1.2256 O.2     
  13 C13           -1.1805     4.2111    -1.3952 C.3     
  14 O14            0.0593    -4.1351    -0.0209 O.3     
  15 C15           -0.1513    -4.7675    -1.2005 C.ar    
  16 N16           -0.4624    -4.0736    -2.2765 N.ar    
  17 C17           -0.6787    -4.6403    -3.4564 C.ar    
  18 C18           -0.5936    -5.9864    -3.6355 C.ar    
  19 C19           -0.2653    -6.7985    -2.5326 C.ar    
  20 C20           -0.1592    -8.1924    -2.6371 C.ar    
  21 C21            0.1614    -8.9251    -1.5338 C.ar    
  22 C22            0.3847    -8.3095    -0.3042 C.ar    
  23 C23            0.2897    -6.9570    -0.1678 C.ar    
  24 C24           -0.0325    -6.1712    -1.2826 C.ar    
  25 F25           -2.3850    -2.9401     0.3306 F       
  26 F26            2.1159     0.1310    -0.2796 F       
  27 H27            2.0625    -2.4754    -0.2910 H       
  28 H28           -2.3459    -0.3366     0.3563 H       
  29 H29           -2.3431     1.4958     0.3487 H       
  30 H30           -1.8570     3.7669    -2.1254 H       
  31 H31           -1.2305     5.2975    -1.4674 H       
  32 H32           -0.1614     3.8802    -1.5957 H       
  33 H33           -0.9303    -4.0144    -4.2999 H       
  34 H34           -0.7749    -6.4243    -4.6059 H       
  35 H35           -0.3305    -8.6818    -3.5845 H       
  36 H36            0.2433    -9.9990    -1.6137 H       
  37 H37            0.6367    -8.9139     0.5547 H       
  38 H38            0.4654    -6.4936     0.7918 H       
@<TRIPOS>BOND
   1    1    2 1
   2    1    8 2
   3    1    9 am
   4    2    3 ar
   5    2    7 ar
   6    3    4 ar
   7    3   26 1
   8    4    5 ar
   9    4   27 1
  10    5    6 ar
  11    5   14 1
  12    6    7 ar
  13    6   25 1
  14    7   28 1
  15    9   10 am
  16    9   29 1
  17   10   11 2
  18   10   12 2
  19   10   13 1
  20   13   30 1
  21   13   31 1
  22   13   32 1
  23   14   15 1
  24   15   16 ar
  25   15   24 ar
  26   16   17 ar
  27   17   18 ar
  28   17   33 1
  29   18   19 ar
  30   18   34 1
  31   19   20 ar
  32   19   24 ar
  33   20   21 ar
  34   20   35 1
  35   21   22 ar
  36   21   36 1
  37   22   23 ar
  38   22   37 1
  39   23   24 ar
  40   23   38 1

#	End of record

