#	Name: ASD11000013
#	Creating user name:	WinNT
#	Creation time:	15. 06. 2019 21:28

#	Modifying user name:	WinNT
#	Modification time:	15. 06. 2019 21:28

#	Program:	/corina/corina34_cracker 3.40 0067  02.08.2006

@<TRIPOS>MOLECULE
ASD11000013
  53   56    0    0    0
SMALL
NO_CHARGES


@<TRIPOS>ATOM
   1 C1             1.4340    -2.6113    -0.7324 C.ar    
   2 C2             2.5255    -3.2552    -1.2840 C.ar    
   3 C3             3.7586    -2.6288    -1.3117 C.ar    
   4 C4             3.8912    -1.3564    -0.7848 C.ar    
   5 C5             2.8086    -0.7181    -0.2372 C.ar    
   6 C6             1.5730    -1.3394    -0.2064 C.ar    
   7 C7             5.2418    -0.6721    -0.8180 C.3     
   8 C8             5.7874    -0.6072     0.6108 C.3     
   9 C9             5.2615     0.6154     1.3364 C.3     
  10 C10            3.7749     0.5787     1.6309 C.3     
  11 C11            2.9585     0.6746     0.3392 C.3     
  12 N12            5.9852     0.7499     2.6077 N.3     
  13 C13            7.2327     1.5039     2.4261 C.3     
  14 C14            6.9456     3.0018     2.5478 C.3     
  15 C15            8.2404     1.0889     3.4999 C.3     
  16 C16            9.5398     1.8742     3.3108 C.3     
  17 C17            9.2527     3.3721     3.4325 C.3     
  18 C18            8.2450     3.7872     2.3587 C.3     
  19 C19           10.5324     1.4654     4.3685 C.ar    
  20 C20           11.7467     0.9162     4.0014 C.ar    
  21 C21           12.6571     0.5411     4.9716 C.ar    
  22 C22           12.3534     0.7157     6.3088 C.ar    
  23 C23           11.1395     1.2657     6.6759 C.ar    
  24 C24           10.2308     1.6448     5.7055 C.ar    
  25 H25            0.4709    -3.0997    -0.7160 H       
  26 H26            2.4157    -4.2486    -1.6935 H       
  27 H27            4.6130    -3.1302    -1.7419 H       
  28 H28            0.7217    -0.8342     0.2254 H       
  29 H29            5.9262    -1.2425    -1.4460 H       
  30 H30            5.1314     0.3374    -1.2142 H       
  31 H31            5.4829    -1.5033     1.1515 H       
  32 H32            6.8760    -0.5629     0.5768 H       
  33 H33            5.4718     1.4953     0.7284 H       
  34 H34            3.5334    -0.3549     2.1390 H       
  35 H35            3.5177     1.4157     2.2801 H       
  36 H36            3.4774     1.3133    -0.3756 H       
  37 H37            1.9742     1.0886     0.5577 H       
  38 H38            5.4029     1.1783     3.3116 H       
  39 H39            7.6450     1.2920     1.4396 H       
  40 H40            6.2277     3.2975     1.7828 H       
  41 H41            6.5333     3.2137     3.5343 H       
  42 H42            7.8281     1.3008     4.4864 H       
  43 H43            8.4450     0.0218     3.4131 H       
  44 H44            9.9521     1.6623     2.3243 H       
  45 H45            8.8404     3.5840     4.4190 H       
  46 H46           10.1784     3.9316     3.2978 H       
  47 H47            8.6573     3.5753     1.3722 H       
  48 H48            8.0404     4.8543     2.4454 H       
  49 H49           11.9839     0.7798     2.9567 H       
  50 H50           13.6056     0.1114     4.6849 H       
  51 H51           13.0645     0.4220     7.0669 H       
  52 H52           10.9021     1.4018     7.7206 H       
  53 H53            9.2824     2.0745     5.9923 H       
@<TRIPOS>BOND
   1    1    2 ar
   2    1    6 ar
   3    1   25 1
   4    2    3 ar
   5    2   26 1
   6    3    4 ar
   7    3   27 1
   8    4    5 ar
   9    4    7 1
  10    5    6 ar
  11    5   11 1
  12    6   28 1
  13    7    8 1
  14    7   29 1
  15    7   30 1
  16    8    9 1
  17    8   31 1
  18    8   32 1
  19    9   10 1
  20    9   12 1
  21    9   33 1
  22   10   11 1
  23   10   34 1
  24   10   35 1
  25   11   36 1
  26   11   37 1
  27   12   13 1
  28   12   38 1
  29   13   14 1
  30   13   15 1
  31   13   39 1
  32   14   18 1
  33   14   40 1
  34   14   41 1
  35   15   16 1
  36   15   42 1
  37   15   43 1
  38   16   17 1
  39   16   19 1
  40   16   44 1
  41   17   18 1
  42   17   45 1
  43   17   46 1
  44   18   47 1
  45   18   48 1
  46   19   20 ar
  47   19   24 ar
  48   20   21 ar
  49   20   49 1
  50   21   22 ar
  51   21   50 1
  52   22   23 ar
  53   22   51 1
  54   23   24 ar
  55   23   52 1
  56   24   53 1

#	End of record

