#	Name: ASD14290006
#	Creating user name:	WinNT
#	Creation time:	15. 06. 2019 21:31

#	Modifying user name:	WinNT
#	Modification time:	15. 06. 2019 21:31

#	Program:	/corina/corina34_cracker 3.40 0067  02.08.2006

@<TRIPOS>MOLECULE
ASD14290006
  21   21    0    0    0
SMALL
NO_CHARGES


@<TRIPOS>ATOM
   1 C1            -0.0167     1.3814     0.0096 C.ar    
   2 C2             0.0021    -0.0041     0.0020 C.ar    
   3 C3             1.2182    -0.6803    -0.0132 C.ar    
   4 C4             2.4050     0.0349    -0.0207 C.ar    
   5 C5             2.3792     1.4170    -0.0130 C.ar    
   6 C6             1.1710     2.0889     0.0021 C.ar    
   7 C7             1.1486     3.5957     0.0104 C.3     
   8 C8             1.1548     4.0979     1.4556 C.3     
   9 O9             1.1336     5.5267     1.4635 O.3     
  10 O10           -1.1654    -0.7015     0.0099 O.3     
  11 O11            1.2418    -2.0400    -0.0203 O.3     
  12 H12           -0.9592     1.9087     0.0170 H       
  13 H13            3.3502    -0.4875    -0.0322 H       
  14 H14            3.3049     1.9733    -0.0189 H       
  15 H15            2.0282     3.9750    -0.5098 H       
  16 H16            0.2485     3.9485    -0.4930 H       
  17 H17            0.2753     3.7186     1.9758 H       
  18 H18            2.0550     3.7450     1.9590 H       
  19 H19            1.1362     5.9152     2.3490 H       
  20 H20           -1.5118    -0.8985    -0.8712 H       
  21 H21            1.2400    -2.4288    -0.9057 H       
@<TRIPOS>BOND
   1    1    2 ar
   2    1    6 ar
   3    1   12 1
   4    2    3 ar
   5    2   10 1
   6    3    4 ar
   7    3   11 1
   8    4    5 ar
   9    4   13 1
  10    5    6 ar
  11    5   14 1
  12    6    7 1
  13    7    8 1
  14    7   15 1
  15    7   16 1
  16    8    9 1
  17    8   17 1
  18    8   18 1
  19    9   19 1
  20   10   20 1
  21   11   21 1

#	End of record

