#	Name: ASD10410195
#	Creating user name:	WinNT
#	Creation time:	15. 06. 2019 21:27

#	Modifying user name:	WinNT
#	Modification time:	15. 06. 2019 21:27

#	Program:	/corina/corina34_cracker 3.40 0067  02.08.2006

@<TRIPOS>MOLECULE
ASD10410195
  54   57    0    0    0
SMALL
NO_CHARGES


@<TRIPOS>ATOM
   1 C1            -0.5798     2.0079    -0.2544 C.ar    
   2 C2            -0.3158     0.6568    -0.0843 C.ar    
   3 C3             0.9916     0.2182     0.0653 C.ar    
   4 C4             2.0316     1.1265     0.0450 C.ar    
   5 C5             1.7683     2.4794    -0.1257 C.ar    
   6 C6             0.4589     2.9176    -0.2754 C.ar    
   7 O7            -1.3394    -0.2384    -0.0637 O.3     
   8 N8             2.8218     3.4008    -0.1459 N.pl3   
   9 C9             2.6814     4.6059    -0.8351 C.2     
  10 N10            3.5619     5.5780    -0.8568 N.2     
  11 N11            1.6296     4.9541    -1.5851 N.2     
  12 C12            1.8233     6.1542    -2.0898 C.2     
  13 N13            3.0279     6.5965    -1.6626 N.pl3   
  14 C14            3.6251     7.8283    -1.9642 C.ar    
  15 N15            0.9507     6.8402    -2.9141 N.pl3   
  16 C16            2.8816     8.9978    -1.8919 C.ar    
  17 C17           -0.9950    -1.6137     0.1152 C.3     
  18 C18           -2.2678    -2.4627     0.1115 C.3     
  19 N19           -2.9424    -2.3281    -1.1865 N.3     
  20 C20           -4.1263    -3.1941    -1.2565 C.3     
  21 C21            5.5507     9.0991    -2.6279 C.ar    
  22 C22            4.8037    10.2611    -2.5603 C.ar    
  23 C23            3.4728    10.2107    -2.1898 C.ar    
  24 C24            4.9656     7.8818    -2.3311 C.ar    
  25 F25            5.6950     6.7465    -2.3970 F       
  26 C26           -4.8830    -2.9215    -2.5585 C.3     
  27 C27           -3.9575    -3.1936    -3.7476 C.3     
  28 C28           -2.7100    -2.3142    -3.6250 C.3     
  29 C29           -2.0163    -2.6044    -2.2921 C.3     
  30 H30           -1.5978     2.3480    -0.3749 H       
  31 H31            1.1963    -0.8339     0.1981 H       
  32 H32            3.0495     0.7850     0.1623 H       
  33 H33            0.2532     3.9694    -0.4086 H       
  34 H34            3.6493     3.2016     0.3192 H       
  35 H35            0.1373     6.4116    -3.2232 H       
  36 H36            1.1519     7.7502    -3.1832 H       
  37 H37            1.8416     8.9600    -1.6034 H       
  38 H38           -0.3425    -1.9335    -0.6972 H       
  39 H39           -0.4781    -1.7379     1.0668 H       
  40 H40           -2.0078    -3.5079     0.2792 H       
  41 H41           -2.9339    -2.1224     0.9043 H       
  42 H42           -3.8147    -4.2382    -1.2293 H       
  43 H43           -4.7781    -2.9876    -0.4076 H       
  44 H44            6.5902     9.1418    -2.9176 H       
  45 H45            5.2628    11.2108    -2.7922 H       
  46 H46            2.8940    11.1208    -2.1335 H       
  47 H47           -5.7531    -3.5754    -2.6174 H       
  48 H48           -5.2070    -1.8810    -2.5801 H       
  49 H49           -3.6645    -4.2435    -3.7483 H       
  50 H50           -4.4786    -2.9592    -4.6758 H       
  51 H51           -2.0276    -2.5343    -4.4459 H       
  52 H52           -2.9998    -1.2642    -3.6634 H       
  53 H53           -1.1355    -1.9696    -2.1953 H       
  54 H54           -1.7145    -3.6513    -2.2601 H       
@<TRIPOS>BOND
   1    1    2 ar
   2    1    6 ar
   3    1   30 1
   4    2    3 ar
   5    2    7 1
   6    3    4 ar
   7    3   31 1
   8    4    5 ar
   9    4   32 1
  10    5    6 ar
  11    5    8 1
  12    6   33 1
  13    7   17 1
  14    8    9 1
  15    8   34 1
  16    9   10 2
  17    9   11 1
  18   10   13 1
  19   11   12 2
  20   12   13 1
  21   12   15 1
  22   13   14 1
  23   14   16 ar
  24   14   24 ar
  25   15   35 1
  26   15   36 1
  27   16   23 ar
  28   16   37 1
  29   17   18 1
  30   17   38 1
  31   17   39 1
  32   18   19 1
  33   18   40 1
  34   18   41 1
  35   19   20 1
  36   19   29 1
  37   20   26 1
  38   20   42 1
  39   20   43 1
  40   21   22 ar
  41   21   24 ar
  42   21   44 1
  43   22   23 ar
  44   22   45 1
  45   23   46 1
  46   24   25 1
  47   26   27 1
  48   26   47 1
  49   26   48 1
  50   27   28 1
  51   27   49 1
  52   27   50 1
  53   28   29 1
  54   28   51 1
  55   28   52 1
  56   29   53 1
  57   29   54 1

#	End of record

