#	Name: ASD10160187
#	Creating user name:	WinNT
#	Creation time:	15. 06. 2019 21:25

#	Modifying user name:	WinNT
#	Modification time:	15. 06. 2019 21:25

#	Program:	/corina/corina34_cracker 3.40 0067  02.08.2006

@<TRIPOS>MOLECULE
ASD10160187
  39   40    0    0    0
SMALL
NO_CHARGES


@<TRIPOS>ATOM
   1 C1            -0.0401     1.4700     0.0147 C.2     
   2 C2            -0.0143    -0.0043     0.0054 C.ar    
   3 C3             1.2015    -0.6844    -0.1322 C.ar    
   4 C4             1.2204    -2.0647    -0.1398 C.ar    
   5 C5             0.0362    -2.7778    -0.0117 C.ar    
   6 C6            -1.1752    -2.1051     0.1248 C.ar    
   7 C7            -1.2033    -0.7273     0.1398 C.ar    
   8 O8             0.9958     2.0970    -0.0973 O.2     
   9 N9            -1.2124     2.1227     0.1416 N.am    
  10 S10           -1.2414     3.7784     0.1521 S.o2    
  11 O11           -2.6138     4.1038     0.3247 O.2     
  12 O12           -0.2744     4.1397     1.1286 O.2     
  13 C13           -0.6788     4.2514    -1.5063 C.3     
  14 F14           -2.3246    -2.8044     0.2482 F       
  15 F15            2.3542     0.0089    -0.2577 F       
  16 O16            0.0593    -4.1352    -0.0202 O.3     
  17 C17           -0.6721    -4.6802    -3.4425 C.ar    
  18 N18           -0.4658    -4.0742    -2.2908 N.ar    
  19 C19           -0.1514    -4.7679    -1.2003 C.ar    
  20 C20           -0.0416    -6.1501    -1.2880 C.ar    
  21 C21           -0.2671    -6.7529    -2.5228 C.ar    
  22 N22           -0.5778    -5.9882    -3.5675 N.ar    
  23 N23           -0.1693    -8.1285    -2.6623 N.pl3   
  24 C24            0.0652    -8.9693    -1.4858 C.3     
  25 C25           -0.3005    -8.7416    -3.9864 C.3     
  26 H26            2.1577    -2.5906    -0.2458 H       
  27 H27           -2.1431    -0.2068     0.2506 H       
  28 H28           -2.0392     1.6226     0.2269 H       
  29 H29           -1.3573     3.8372    -2.2521 H       
  30 H30           -0.6668     5.3381    -1.5898 H       
  31 H31            0.3259     3.8631    -1.6737 H       
  32 H32           -0.9303    -4.0879    -4.3080 H       
  33 H33            0.2126    -6.7417    -0.4209 H       
  34 H34           -0.8910    -9.2642    -1.0535 H       
  35 H35            0.6208    -9.8596    -1.7804 H       
  36 H36            0.6402    -8.4097    -0.7481 H       
  37 H37            0.6814    -8.8073    -4.4553 H       
  38 H38           -0.7216    -9.7417    -3.8837 H       
  39 H39           -0.9587    -8.1320    -4.6055 H       
@<TRIPOS>BOND
   1    1    2 1
   2    1    8 2
   3    1    9 am
   4    2    3 ar
   5    2    7 ar
   6    3    4 ar
   7    3   15 1
   8    4    5 ar
   9    4   26 1
  10    5    6 ar
  11    5   16 1
  12    6    7 ar
  13    6   14 1
  14    7   27 1
  15    9   10 am
  16    9   28 1
  17   10   11 2
  18   10   12 2
  19   10   13 1
  20   13   29 1
  21   13   30 1
  22   13   31 1
  23   16   19 1
  24   17   18 ar
  25   17   22 ar
  26   17   32 1
  27   18   19 ar
  28   19   20 ar
  29   20   21 ar
  30   20   33 1
  31   21   22 ar
  32   21   23 1
  33   23   24 1
  34   23   25 1
  35   24   34 1
  36   24   35 1
  37   24   36 1
  38   25   37 1
  39   25   38 1
  40   25   39 1

#	End of record

