#	Name: ASD14170015
#	Creating user name:	WinNT
#	Creation time:	15. 06. 2019 21:30

#	Modifying user name:	WinNT
#	Modification time:	15. 06. 2019 21:30

#	Program:	/corina/corina34_cracker 3.40 0067  02.08.2006

@<TRIPOS>MOLECULE
ASD14170015
  48   50    0    0    0
SMALL
NO_CHARGES


@<TRIPOS>ATOM
   1 C1             0.2436     1.2435     0.1288 C.2     
   2 C2             0.3086    -0.1315    -0.1688 C.2     
   3 C3             1.6108    -0.5394     0.0574 C.2     
   4 N4             2.3034     0.5439     0.4744 N.pl3   
   5 N5             1.4296     1.6366     0.5093 N.2     
   6 N6             2.1140    -1.8257    -0.1121 N.am    
   7 C7            -0.9823     2.1133     0.0206 C.3     
   8 F8            -1.7385     2.0012     1.1923 F       
   9 F9            -0.5945     3.4455    -0.1584 F       
  10 F10           -1.7518     1.7007    -1.0724 F       
  11 C11            3.2135    -2.0252    -0.8657 C.2     
  12 N12            3.6266    -3.2793    -1.1360 N.am    
  13 O13            3.8326    -1.0739    -1.3017 O.2     
  14 C14            4.7163    -3.4887    -1.9904 C.ar    
  15 C15            6.0665    -2.7867    -3.8437 C.ar    
  16 C16            6.8699    -3.9025    -3.6790 C.ar    
  17 C17            6.5939    -4.8144    -2.6742 C.ar    
  18 C18            5.5197    -4.6098    -1.8305 C.ar    
  19 C19            4.9913    -2.5784    -3.0022 C.ar    
  20 F20            7.9208    -4.1047    -4.5035 F       
  21 C21            3.7245     0.5696     0.8292 C.3     
  22 C22           -0.8111    -0.9838    -0.6371 C.ar    
  23 C23           -2.1666    -1.8397    -2.4241 C.ar    
  24 C24           -2.9021    -2.5741    -1.5110 C.ar    
  25 C25           -2.6002    -2.5128    -0.1627 C.ar    
  26 C26           -1.5588    -1.7216     0.2788 C.ar    
  27 C27           -1.1234    -1.0454    -1.9943 C.ar    
  28 C28           -0.3235    -0.2456    -2.9901 C.3     
  29 C29            0.9013    -1.0523    -3.4259 C.3     
  30 O30            1.5962    -0.3448    -4.4548 O.3     
  31 H31            1.6735    -2.5786     0.3120 H       
  32 H32            3.1692    -4.0369    -0.7387 H       
  33 H33            6.2834    -2.0766    -4.6280 H       
  34 H34            7.2215    -5.6842    -2.5476 H       
  35 H35            5.3050    -5.3211    -1.0467 H       
  36 H36            4.3647    -1.7083    -3.1312 H       
  37 H37            4.3108     0.8667    -0.0404 H       
  38 H38            3.8845     1.2842     1.6366 H       
  39 H39            4.0356    -0.4228     1.1554 H       
  40 H40           -2.4068    -1.8914    -3.4758 H       
  41 H41           -3.7180    -3.1942    -1.8519 H       
  42 H42           -3.1779    -3.0880     0.5457 H       
  43 H43           -1.3237    -1.6748     1.3318 H       
  44 H44           -0.9421    -0.0256    -3.8601 H       
  45 H45            0.0011     0.6876    -2.5297 H       
  46 H46            1.5641    -1.1962    -2.5726 H       
  47 H47            0.5811    -2.0228    -3.8049 H       
  48 H48            2.3857    -0.7987    -4.7800 H       
@<TRIPOS>BOND
   1    1    2 1
   2    1    5 2
   3    1    7 1
   4    2    3 2
   5    2   22 1
   6    3    4 1
   7    3    6 1
   8    4    5 1
   9    4   21 1
  10    6   11 am
  11    6   31 1
  12    7    8 1
  13    7    9 1
  14    7   10 1
  15   11   12 am
  16   11   13 2
  17   12   14 1
  18   12   32 1
  19   14   19 ar
  20   14   18 ar
  21   15   16 ar
  22   15   19 ar
  23   15   33 1
  24   16   17 ar
  25   16   20 1
  26   17   18 ar
  27   17   34 1
  28   18   35 1
  29   19   36 1
  30   21   37 1
  31   21   38 1
  32   21   39 1
  33   22   27 ar
  34   22   26 ar
  35   23   24 ar
  36   23   27 ar
  37   23   40 1
  38   24   25 ar
  39   24   41 1
  40   25   26 ar
  41   25   42 1
  42   26   43 1
  43   27   28 1
  44   28   29 1
  45   28   44 1
  46   28   45 1
  47   29   30 1
  48   29   46 1
  49   29   47 1
  50   30   48 1

#	End of record

