#	Name: ASD11920002
#	Creating user name:	WinNT
#	Creation time:	15. 06. 2019 21:29

#	Modifying user name:	WinNT
#	Modification time:	15. 06. 2019 21:29

#	Program:	/corina/corina34_cracker 3.40 0067  02.08.2006

@<TRIPOS>MOLECULE
ASD11920002
  25   26    0    0    0
SMALL
NO_CHARGES


@<TRIPOS>ATOM
   1 C1            -0.0187     1.5258     0.0104 C.3     
   2 C2             0.0021    -0.0041     0.0020 C.3     
   3 C3            -1.4117    -0.5257     0.0127 C.2     
   4 N4             3.3607     2.8297     0.6717 N.pl3   
   5 O5            -2.3406     0.2469     0.0257 O.2     
   6 C6             2.1221     2.4058     1.0698 C.2     
   7 O7            -1.6391    -1.8486     0.0078 O.3     
   8 C8             1.3951     2.0474    -0.0003 C.2     
   9 C9             2.2369     2.2590    -1.1803 C.ar    
  10 C10            2.0498     2.0751    -2.5514 C.ar    
  11 C11            3.0608     2.3757    -3.4204 C.ar    
  12 C12            4.2727     2.8627    -2.9509 C.ar    
  13 C13            4.4787     3.0518    -1.6017 C.ar    
  14 C14            3.4637     2.7524    -0.6992 C.ar    
  15 H15           -0.5459     1.8868    -0.8726 H       
  16 H16           -0.5289     1.8773     0.9072 H       
  17 H17            0.5123    -0.3556    -0.8948 H       
  18 H18            0.5293    -0.3651     0.8851 H       
  19 H19            4.0605     3.1420     1.2663 H       
  20 H20            1.7800     2.3655     2.0934 H       
  21 H21           -2.5625    -2.1353     0.0151 H       
  22 H22            1.1096     1.6962    -2.9240 H       
  23 H23            2.9157     2.2329    -4.4810 H       
  24 H24            5.0622     3.0954    -3.6500 H       
  25 H25            5.4254     3.4309    -1.2461 H       
@<TRIPOS>BOND
   1    1    2 1
   2    1    8 1
   3    1   15 1
   4    1   16 1
   5    2    3 1
   6    2   17 1
   7    2   18 1
   8    3    5 2
   9    3    7 1
  10    4    6 1
  11    4   14 1
  12    4   19 1
  13    6    8 2
  14    6   20 1
  15    7   21 1
  16    8    9 1
  17    9   10 ar
  18    9   14 ar
  19   10   11 ar
  20   10   22 1
  21   11   12 ar
  22   11   23 1
  23   12   13 ar
  24   12   24 1
  25   13   14 ar
  26   13   25 1

#	End of record

