#	Name: ASD10160247
#	Creating user name:	WinNT
#	Creation time:	15. 06. 2019 21:25

#	Modifying user name:	WinNT
#	Modification time:	15. 06. 2019 21:25

#	Program:	/corina/corina34_cracker 3.40 0067  02.08.2006

@<TRIPOS>MOLECULE
ASD10160247
  43   45    0    0    0
SMALL
NO_CHARGES


@<TRIPOS>ATOM
   1 C1            -0.2166     1.4748     0.0707 C.2     
   2 C2            -0.1672    -0.0007     0.0510 C.ar    
   3 C3             1.0501    -0.6549    -0.1289 C.ar    
   4 C4             1.0908    -2.0468    -0.1467 C.ar    
   5 C5            -0.0951    -2.7808     0.0169 C.ar    
   6 C6            -1.3023    -2.1185     0.1954 C.ar    
   7 C7            -1.3416    -0.7421     0.2186 C.ar    
   8 O8             0.8048     2.1191    -0.0700 O.2     
   9 N9            -1.3946     2.1075     0.2391 N.am    
  10 O10           -0.0613    -4.1357    -0.0000 O.3     
  11 C11            0.2044    -4.7808     1.1636 C.ar    
  12 C12            0.1579    -6.1693     1.2055 C.ar    
  13 C13            0.4303    -6.8213     2.3967 C.ar    
  14 C14            0.7419    -6.0607     3.5126 C.ar    
  15 C15            0.7711    -4.6736     3.4021 C.ar    
  16 N16            0.5098    -4.0820     2.2428 N.ar    
  17 C17            1.1028    -3.8487     4.5896 C.ar    
  18 C18            1.2809    -2.4728     4.4579 C.ar    
  19 C19            1.5894    -1.7104     5.5661 C.ar    
  20 C20            1.7224    -2.3094     6.8058 C.ar    
  21 C21            1.5467    -3.6747     6.9424 C.ar    
  22 C22            1.2319    -4.4460     5.8421 C.ar    
  23 S23           -1.4500     3.7624     0.2612 S.o2    
  24 O24           -2.8213     4.0643     0.4795 O.2     
  25 O25           -0.4583     4.1336     1.2088 O.2     
  26 C26           -0.9482     4.2544    -1.4111 C.3     
  27 C27            2.3374    -2.7270    -0.3314 C.1     
  28 N28            3.3262    -3.2666    -0.4780 N.1     
  29 H29            1.9586    -0.0844    -0.2545 H       
  30 H30           -2.2133    -2.6849     0.3210 H       
  31 H31           -2.2832    -0.2331     0.3627 H       
  32 H32           -2.2101     1.5935     0.3474 H       
  33 H33           -0.0885    -6.7340     0.3185 H       
  34 H34            0.4002    -7.8993     2.4548 H       
  35 H35            0.9589    -6.5385     4.4565 H       
  36 H36            1.1780    -2.0042     3.4903 H       
  37 H37            1.7276    -0.6440     5.4652 H       
  38 H38            1.9646    -1.7090     7.6702 H       
  39 H39            1.6517    -4.1372     7.9127 H       
  40 H40            1.0902    -5.5112     5.9508 H       
  41 H41           -1.6434     3.8337    -2.1376 H       
  42 H42           -0.9564     5.3417    -1.4878 H       
  43 H43            0.0567     3.8835    -1.6129 H       
@<TRIPOS>BOND
   1    1    2 1
   2    1    8 2
   3    1    9 am
   4    2    3 ar
   5    2    7 ar
   6    3    4 ar
   7    3   29 1
   8    4    5 ar
   9    4   27 1
  10    5    6 ar
  11    5   10 1
  12    6    7 ar
  13    6   30 1
  14    7   31 1
  15    9   23 am
  16    9   32 1
  17   10   11 1
  18   11   12 ar
  19   11   16 ar
  20   12   13 ar
  21   12   33 1
  22   13   14 ar
  23   13   34 1
  24   14   15 ar
  25   14   35 1
  26   15   16 ar
  27   15   17 1
  28   17   18 ar
  29   17   22 ar
  30   18   19 ar
  31   18   36 1
  32   19   20 ar
  33   19   37 1
  34   20   21 ar
  35   20   38 1
  36   21   22 ar
  37   21   39 1
  38   22   40 1
  39   23   24 2
  40   23   25 2
  41   23   26 1
  42   26   41 1
  43   26   42 1
  44   26   43 1
  45   27   28 3

#	End of record

