#	Name: ASD10160422
#	Creating user name:	WinNT
#	Creation time:	15. 06. 2019 21:25

#	Modifying user name:	WinNT
#	Modification time:	15. 06. 2019 21:25

#	Program:	/corina/corina34_cracker 3.40 0067  02.08.2006

@<TRIPOS>MOLECULE
ASD10160422
  39   41    0    0    0
SMALL
NO_CHARGES


@<TRIPOS>ATOM
   1 C1            -2.2253    -2.6053     4.8639 C.2     
   2 C2            -1.6250    -3.0071     3.5801 C.ar    
   3 C3            -0.2999    -3.4581     3.5348 C.ar    
   4 C4             0.2576    -3.8338     2.3294 C.ar    
   5 C5            -0.4932    -3.7649     1.1634 C.ar    
   6 C6            -1.8114    -3.3169     1.2040 C.ar    
   7 C7            -2.3785    -2.9447     2.4031 C.ar    
   8 O8            -1.5706    -2.6650     5.8859 O.2     
   9 O9            -3.4989    -2.1663     4.9042 O.3     
  10 F10           -2.5367    -3.2517     0.0661 F       
  11 F11            0.4313    -3.5250     4.6688 F       
  12 O12            0.0593    -4.1350    -0.0197 O.3     
  13 C13            2.4217    -3.8529    -0.1444 C.ar    
  14 C14            1.3101    -4.6678    -0.0012 C.ar    
  15 C15            1.4897    -6.0386     0.1622 C.ar    
  16 C16            2.7815    -6.5372     0.1754 C.ar    
  17 C17            3.8478    -5.6586     0.0260 C.ar    
  18 N18            3.6389    -4.3622    -0.1271 N.ar    
  19 O19            5.1185    -6.1369     0.0379 O.3     
  20 C20            6.1718    -5.1843    -0.1202 C.3     
  21 C21            7.5210    -5.9046    -0.0812 C.3     
  22 C22            8.7819    -5.0517    -0.2346 C.3     
  23 C23            8.4236    -5.6491     1.1276 C.3     
  24 C24            7.5382    -7.3072    -0.6922 C.3     
  25 Cl25           3.0654    -8.2379     0.3764 Cl      
  26 H26            1.2795    -4.1815     2.2930 H       
  27 H27           -3.4022    -2.6018     2.4339 H       
  28 H28           -3.8491    -1.9140     5.7695 H       
  29 H29            2.2902    -2.7891    -0.2761 H       
  30 H30            0.6417    -6.6975     0.2764 H       
  31 H31            6.0598    -4.6742    -1.0770 H       
  32 H32            6.1260    -4.4545     0.6881 H       
  33 H33            9.6238    -5.4900    -0.7706 H       
  34 H34            8.6503    -3.9774    -0.3634 H       
  35 H35            8.0561    -4.9678     1.8950 H       
  36 H36            9.0297    -6.4803     1.4878 H       
  37 H37            7.7055    -7.2334    -1.7668 H       
  38 H38            8.3393    -7.8912    -0.2391 H       
  39 H39            6.5820    -7.7963    -0.5061 H       
@<TRIPOS>BOND
   1    1    2 1
   2    1    8 2
   3    1    9 1
   4    2    3 ar
   5    2    7 ar
   6    3    4 ar
   7    3   11 1
   8    4    5 ar
   9    4   26 1
  10    5    6 ar
  11    5   12 1
  12    6    7 ar
  13    6   10 1
  14    7   27 1
  15    9   28 1
  16   12   14 1
  17   13   14 ar
  18   13   18 ar
  19   13   29 1
  20   14   15 ar
  21   15   16 ar
  22   15   30 1
  23   16   17 ar
  24   16   25 1
  25   17   18 ar
  26   17   19 1
  27   19   20 1
  28   20   21 1
  29   20   31 1
  30   20   32 1
  31   21   22 1
  32   21   23 1
  33   21   24 1
  34   22   23 1
  35   22   33 1
  36   22   34 1
  37   23   35 1
  38   23   36 1
  39   24   37 1
  40   24   38 1
  41   24   39 1

#	End of record

