#	Name: ASD14740005
#	Creating user name:	WinNT
#	Creation time:	15. 06. 2019 21:31

#	Modifying user name:	WinNT
#	Modification time:	15. 06. 2019 21:31

#	Program:	/corina/corina34_cracker 3.40 0067  02.08.2006

@<TRIPOS>MOLECULE
ASD14740005
  72   77    0    0    0
SMALL
NO_CHARGES


@<TRIPOS>ATOM
   1 C1            -0.5449     1.3050     1.9373 C.ar    
   2 C2             0.0151     0.2123     1.2794 C.ar    
   3 C3             1.0330    -0.5086     1.8809 C.ar    
   4 C4             1.4934    -0.1410     3.1381 C.ar    
   5 C5             0.9333     0.9485     3.7922 C.ar    
   6 C6            -0.0822     1.6691     3.1931 C.ar    
   7 N7             2.5220    -0.8689     3.7466 N.3     
   8 C8             2.8525    -0.3117     5.0657 C.3     
   9 C9             3.9229    -1.1807     5.7300 C.3     
  10 N10            5.1131    -1.2307     4.8694 N.3     
  11 C11            4.7826    -1.7879     3.5504 C.3     
  12 C12            3.7122    -0.9189     2.8860 C.3     
  13 C13            6.1929    -1.9949     5.5082 C.3     
  14 N14           -1.5726     2.0406     1.3273 N.pl3   
  15 C15           -1.7095     3.3919     1.5950 C.ar    
  16 C16           -0.8925     5.2904     2.6225 C.ar    
  17 N17           -0.7916     4.0024     2.3303 N.ar    
  18 N18           -2.7541     4.0474     1.1049 N.ar    
  19 C19           -2.9051     5.3376     1.3480 C.ar    
  20 C20           -1.9771     6.0050     2.1473 C.ar    
  21 C21           -2.1553     7.4505     2.5160 C.3     
  22 C22           -3.9727     7.4321     0.8399 C.2     
  23 C23           -2.8198     8.2377     1.3841 C.3     
  24 N24           -3.9704     6.0673     0.8192 N.pl3   
  25 C25           -5.1205     5.6145     0.2505 C.2     
  26 C26           -5.8790     6.6703    -0.0995 C.2     
  27 C27           -5.1268     7.8736     0.2838 C.2     
  28 C28           -5.5370     9.2748     0.0923 C.2     
  29 O29           -4.8046    10.1773     0.4510 O.2     
  30 N30           -6.7238     9.5573    -0.4805 N.am    
  31 O31           -0.4377    -0.1463     0.0483 O.3     
  32 C32            0.1828    -1.2770    -0.5671 C.3     
  33 C33           -7.1655    10.8834    -0.5583 C.ar    
  34 C34           -6.7417    13.1901    -1.0710 C.ar    
  35 C35           -6.3011    11.8813    -0.9951 C.ar    
  36 C36           -8.4690    11.2045    -0.2051 C.ar    
  37 C37           -8.9022    12.5139    -0.2834 C.ar    
  38 C38           -8.0395    13.5055    -0.7130 C.ar    
  39 F39           -5.0330    11.5730    -1.3444 F       
  40 C40           -9.4110    10.1253     0.2629 C.3     
  41 H41            1.4682    -1.3563     1.3726 H       
  42 H42            1.2921     1.2332     4.7703 H       
  43 H43           -0.5163     2.5162     3.7033 H       
  44 H44            3.2305     0.7038     4.9472 H       
  45 H45            1.9581    -0.2967     5.6886 H       
  46 H46            4.1905    -0.7530     6.6962 H       
  47 H47            3.5351    -2.1893     5.8733 H       
  48 H48            5.6770    -1.8029     2.9275 H       
  49 H49            4.4046    -2.8034     3.6689 H       
  50 H50            3.4446    -1.3466     1.9198 H       
  51 H51            4.1000     0.0897     2.7428 H       
  52 H52            5.8547    -3.0138     5.6965 H       
  53 H53            7.0615    -2.0161     4.8501 H       
  54 H54            6.4637    -1.5217     6.4521 H       
  55 H55           -2.1871     1.6022     0.7181 H       
  56 H56           -0.1382     5.7759     3.2239 H       
  57 H57           -2.7769     7.5167     3.4090 H       
  58 H58           -1.1796     7.8871     2.7290 H       
  59 H59           -3.1883     9.1888     1.7684 H       
  60 H60           -2.0945     8.4189     0.5909 H       
  61 H61           -5.3822     4.5771     0.1034 H       
  62 H62           -6.8504     6.6392    -0.5705 H       
  63 H63           -7.2720     8.8417    -0.8387 H       
  64 H64           -0.2708    -1.4543    -1.5423 H       
  65 H65            1.2482    -1.0837    -0.6917 H       
  66 H66            0.0441    -2.1553     0.0632 H       
  67 H67           -6.0716    13.9663    -1.4097 H       
  68 H68           -9.9165    12.7635    -0.0089 H       
  69 H69           -8.3815    14.5282    -0.7731 H       
  70 H70           -9.3367    10.0225     1.3455 H       
  71 H71          -10.4327    10.3925    -0.0073 H       
  72 H72           -9.1452     9.1804    -0.2109 H       
@<TRIPOS>BOND
   1    1    2 ar
   2    1    6 ar
   3    1   14 1
   4    2    3 ar
   5    2   31 1
   6    3    4 ar
   7    3   41 1
   8    4    5 ar
   9    4    7 1
  10    5    6 ar
  11    5   42 1
  12    6   43 1
  13    7    8 1
  14    7   12 1
  15    8    9 1
  16    8   44 1
  17    8   45 1
  18    9   10 1
  19    9   46 1
  20    9   47 1
  21   10   11 1
  22   10   13 1
  23   11   12 1
  24   11   48 1
  25   11   49 1
  26   12   50 1
  27   12   51 1
  28   13   52 1
  29   13   53 1
  30   13   54 1
  31   14   15 1
  32   14   55 1
  33   15   18 ar
  34   15   17 ar
  35   16   17 ar
  36   16   20 ar
  37   16   56 1
  38   18   19 ar
  39   19   20 ar
  40   19   24 1
  41   20   21 1
  42   21   23 1
  43   21   57 1
  44   21   58 1
  45   22   23 1
  46   22   27 2
  47   22   24 1
  48   23   59 1
  49   23   60 1
  50   24   25 1
  51   25   26 2
  52   25   61 1
  53   26   27 1
  54   26   62 1
  55   27   28 1
  56   28   29 2
  57   28   30 am
  58   30   33 1
  59   30   63 1
  60   31   32 1
  61   32   64 1
  62   32   65 1
  63   32   66 1
  64   33   36 ar
  65   33   35 ar
  66   34   35 ar
  67   34   38 ar
  68   34   67 1
  69   35   39 1
  70   36   37 ar
  71   36   40 1
  72   37   38 ar
  73   37   68 1
  74   38   69 1
  75   40   70 1
  76   40   71 1
  77   40   72 1

#	End of record

