#	Name: ASD11000100
#	Creating user name:	WinNT
#	Creation time:	15. 06. 2019 21:28

#	Modifying user name:	WinNT
#	Modification time:	15. 06. 2019 21:28

#	Program:	/corina/corina34_cracker 3.40 0067  02.08.2006

@<TRIPOS>MOLECULE
ASD11000100
  65   68    0    0    0
SMALL
NO_CHARGES


@<TRIPOS>ATOM
   1 C1             0.8213     1.7048     0.0820 C.3     
   2 C2             0.5502     0.1993     0.1097 C.3     
   3 N3             0.7362    -0.3550    -1.2355 N.am    
   4 C4             1.5054    -0.4651     1.0696 C.ar    
   5 C5             2.2238    -1.5910     0.7328 C.ar    
   6 C6             1.6467     0.0960     2.3317 C.ar    
   7 C7             3.0769    -2.1668     1.6668 C.ar    
   8 C8             3.2185    -1.6141     2.9260 C.ar    
   9 C9             2.4995    -0.4708     3.2613 C.ar    
  10 C10            0.8655    -1.8170    -1.3520 C.3     
  11 C11            2.1435    -2.2347    -0.6266 C.3     
  12 O12            4.0562    -2.1849     3.8326 O.3     
  13 C13            4.7609    -3.3566     3.4170 C.3     
  14 C14            0.7862     0.4420    -2.3212 C.2     
  15 O15            0.5778     1.6316    -2.2104 O.2     
  16 C16            1.1010    -0.1452    -3.6730 C.3     
  17 N17            0.9215     0.8826    -4.7071 N.3     
  18 C18           -0.4935     1.2608    -4.8340 C.3     
  19 O19            2.1647     1.9391    -0.3452 O.3     
  20 C20            2.5701     3.2346    -0.4249 C.ar    
  21 C21            3.8617     3.5332    -0.8327 C.ar    
  22 C22            1.6902     4.2576    -0.1040 C.ar    
  23 C23            2.1020     5.5736    -0.1850 C.ar    
  24 C24            3.3956     5.8720    -0.5869 C.ar    
  25 C25            4.2736     4.8492    -0.9137 C.ar    
  26 O26            3.8007     7.1676    -0.6675 O.3     
  27 C27            5.1461     7.4016    -1.0884 C.3     
  28 O28            2.6343     0.0853     4.4950 O.3     
  29 C29            1.8638     1.2580     4.7658 C.3     
  30 C30           -0.6272     2.3734    -5.8771 C.3     
  31 O31           -0.0730     1.9263    -7.1174 O.3     
  32 C32            1.3042     1.5504    -7.0304 C.3     
  33 C33            1.4574     0.4295    -5.9989 C.3     
  34 H34            0.1307     2.1856    -0.6108 H       
  35 H35            0.6804     2.1178     1.0808 H       
  36 H36           -0.4742     0.0212     0.4369 H       
  37 H37            1.0863     0.9825     2.5895 H       
  38 H38            3.6343    -3.0545     1.4065 H       
  39 H39            0.0046    -2.3012    -0.8909 H       
  40 H40            0.9290    -2.0990    -2.4030 H       
  41 H41            3.0071    -1.9312    -1.2185 H       
  42 H42            2.1522    -3.3185    -0.5111 H       
  43 H43            4.0460    -4.1344     3.1484 H       
  44 H44            5.3818    -3.1198     2.5530 H       
  45 H45            5.3923    -3.7092     4.2324 H       
  46 H46            2.1328    -0.4965    -3.6852 H       
  47 H47            0.4302    -0.9811    -3.8712 H       
  48 H48           -1.0749     0.3945    -5.1493 H       
  49 H49           -0.8626     1.6173    -3.8723 H       
  50 H50            4.5456     2.7368    -1.0865 H       
  51 H51            0.6830     4.0252     0.2089 H       
  52 H52            1.4167     6.3702     0.0642 H       
  53 H53            5.2809     5.0815    -1.2262 H       
  54 H54            5.8334     6.9226    -0.3910 H       
  55 H55            5.2923     6.9864    -2.0855 H       
  56 H56            5.3388     8.4742    -1.1095 H       
  57 H57            2.0645     1.5980     5.7817 H       
  58 H58            2.1358     2.0425     4.0596 H       
  59 H59            0.8034     1.0278     4.6625 H       
  60 H60           -1.6804     2.6175    -6.0160 H       
  61 H61           -0.0897     3.2584    -5.5363 H       
  62 H62            1.6478     1.1992    -8.0034 H       
  63 H63            1.8978     2.4114    -6.7231 H       
  64 H64            2.5124     0.1790    -5.8876 H       
  65 H65            0.9072    -0.4502    -6.3329 H       
@<TRIPOS>BOND
   1    1    2 1
   2    1   19 1
   3    1   34 1
   4    1   35 1
   5    2    3 1
   6    2    4 1
   7    2   36 1
   8    3   10 1
   9    3   14 am
  10    4    5 ar
  11    4    6 ar
  12    5    7 ar
  13    5   11 1
  14    6    9 ar
  15    6   37 1
  16    7    8 ar
  17    7   38 1
  18    8    9 ar
  19    8   12 1
  20    9   28 1
  21   10   11 1
  22   10   39 1
  23   10   40 1
  24   11   41 1
  25   11   42 1
  26   12   13 1
  27   13   43 1
  28   13   44 1
  29   13   45 1
  30   14   15 2
  31   14   16 1
  32   16   17 1
  33   16   46 1
  34   16   47 1
  35   17   18 1
  36   17   33 1
  37   18   30 1
  38   18   48 1
  39   18   49 1
  40   19   20 1
  41   20   21 ar
  42   20   22 ar
  43   21   25 ar
  44   21   50 1
  45   22   23 ar
  46   22   51 1
  47   23   24 ar
  48   23   52 1
  49   24   25 ar
  50   24   26 1
  51   25   53 1
  52   26   27 1
  53   27   54 1
  54   27   55 1
  55   27   56 1
  56   28   29 1
  57   29   57 1
  58   29   58 1
  59   29   59 1
  60   30   31 1
  61   30   60 1
  62   30   61 1
  63   31   32 1
  64   32   33 1
  65   32   62 1
  66   32   63 1
  67   33   64 1
  68   33   65 1

#	End of record

