#	Name: ASD13010053
#	Creating user name:	WinNT
#	Creation time:	15. 06. 2019 21:30

#	Modifying user name:	WinNT
#	Modification time:	15. 06. 2019 21:30

#	Program:	/corina/corina34_cracker 3.40 0067  02.08.2006

@<TRIPOS>MOLECULE
ASD13010053
  43   46    0    0    0
SMALL
NO_CHARGES


@<TRIPOS>ATOM
   1 N1            -0.0180     1.2030     0.0528 N.ar    
   2 C2             0.0398    -0.1100     0.0691 C.ar    
   3 C3             1.2560    -0.7787     0.0512 C.ar    
   4 C4             2.4324    -0.0542     0.0150 C.ar    
   5 C5             2.3499     1.3363    -0.0023 C.ar    
   6 C6             1.0838     1.9458     0.0180 C.ar    
   7 N7             3.2844     2.3470    -0.0375 N.am    
   8 N8             2.6253     3.5806    -0.0400 N.2     
   9 C9             1.3283     3.3954    -0.0065 C.2     
  10 C10            0.2949     4.4554     0.0027 C.ar    
  11 C11           -1.0585     4.1126    -0.0960 C.ar    
  12 C12           -2.0224     5.0952    -0.0883 C.ar    
  13 C13           -1.6503     6.4399     0.0187 C.ar    
  14 C14           -0.2937     6.7841     0.1181 C.ar    
  15 C15            0.6709     5.7924     0.1152 C.ar    
  16 C16           -2.6806     7.4919     0.0266 C.2     
  17 O17           -2.3563     8.6595     0.1195 O.2     
  18 O18           -3.9834     7.1600    -0.0694 O.3     
  19 C19            4.6209     2.1750    -0.0651 C.2     
  20 C20            5.5124     3.3422    -0.2124 C.ar    
  21 O21            5.0920     1.0590     0.0313 O.2     
  22 C22            5.9756     3.7167    -1.4761 C.ar    
  23 C23            6.8081     4.8080    -1.6064 C.ar    
  24 C24            7.1857     5.5329    -0.4891 C.ar    
  25 C25            6.7323     5.1689     0.7656 C.ar    
  26 C26            5.8927     4.0817     0.9111 C.ar    
  27 Cl27           5.3174     3.6307     2.4857 Cl      
  28 C28            5.5666     2.9292    -2.6942 C.3     
  29 F29            6.1527     3.4931    -3.8325 F       
  30 F30            5.9936     1.6040    -2.5577 F       
  31 F31            4.1739     2.9595    -2.8231 F       
  32 F32           -1.4194     2.8148    -0.1993 F       
  33 O33            0.0711     8.0870     0.2215 O.3     
  34 H34           -0.8772    -0.6799     0.0974 H       
  35 H35            1.2829    -1.8583     0.0658 H       
  36 H36            3.3903    -0.5529     0.0008 H       
  37 H37           -3.0661     4.8284    -0.1652 H       
  38 H38            1.7155     6.0547     0.1956 H       
  39 H39           -4.6230     7.8852    -0.0599 H       
  40 H40            7.1669     5.0979    -2.5829 H       
  41 H41            7.8380     6.3867    -0.5978 H       
  42 H42            7.0312     5.7388     1.6329 H       
  43 H43            0.1266     8.4089     1.1317 H       
@<TRIPOS>BOND
   1    1    2 ar
   2    1    6 ar
   3    2    3 ar
   4    2   34 1
   5    3    4 ar
   6    3   35 1
   7    4    5 ar
   8    4   36 1
   9    5    7 1
  10    5    6 ar
  11    6    9 1
  12    7    8 1
  13    7   19 am
  14    8    9 2
  15    9   10 1
  16   10   11 ar
  17   10   15 ar
  18   11   12 ar
  19   11   32 1
  20   12   13 ar
  21   12   37 1
  22   13   14 ar
  23   13   16 1
  24   14   15 ar
  25   14   33 1
  26   15   38 1
  27   16   17 2
  28   16   18 1
  29   18   39 1
  30   19   20 1
  31   19   21 2
  32   20   22 ar
  33   20   26 ar
  34   22   23 ar
  35   22   28 1
  36   23   24 ar
  37   23   40 1
  38   24   25 ar
  39   24   41 1
  40   25   26 ar
  41   25   42 1
  42   26   27 1
  43   28   29 1
  44   28   30 1
  45   28   31 1
  46   33   43 1

#	End of record

