#	Name: ASD13490048
#	Creating user name:	WinNT
#	Creation time:	15. 06. 2019 21:30

#	Modifying user name:	WinNT
#	Modification time:	15. 06. 2019 21:30

#	Program:	/corina/corina34_cracker 3.40 0067  02.08.2006

@<TRIPOS>MOLECULE
ASD13490048
  50   52    0    0    0
SMALL
NO_CHARGES


@<TRIPOS>ATOM
   1 C1             2.0990     1.3273     0.7415 C.ar    
   2 C2             2.0377    -0.0504     0.6987 C.ar    
   3 N3             1.1465    -0.6655    -0.0548 N.ar    
   4 C4             0.2798    -0.0019    -0.7961 C.ar    
   5 C5             0.2720     1.3773    -0.8127 C.ar    
   6 C6             1.1993     2.0703    -0.0284 C.ar    
   7 C7             1.2276     3.5528    -0.0137 C.ar    
   8 C8             0.3218     4.2762    -0.7886 C.ar    
   9 C9             0.3497     5.6542    -0.7730 C.ar    
  10 C10            1.2798     6.3228     0.0144 C.ar    
  11 C11            2.1837     5.6038     0.7877 C.ar    
  12 C12            2.1562     4.2257     0.7794 C.ar    
  13 C13            3.0021    -0.8634     1.5234 C.3     
  14 N14            1.3064     7.7201     0.0282 N.am    
  15 C15            0.1561     8.4169    -0.0597 C.2     
  16 C16            0.1740     9.9190     0.0608 C.3     
  17 O17           -0.8934     7.8351    -0.2358 O.2     
  18 C18           -1.2300    10.4503    -0.0717 C.ar    
  19 C19           -2.2046    10.0594     0.8274 C.ar    
  20 C20           -1.5420    11.3329    -1.0888 C.ar    
  21 C21           -2.8298    11.8202    -1.2103 C.ar    
  22 C22           -3.8059    11.4246    -0.3150 C.ar    
  23 C23           -3.4925    10.5467     0.7059 C.ar    
  24 C24           -4.5551    10.1202     1.6857 C.3     
  25 C25           -3.1697    12.7832    -2.3186 C.3     
  26 C26            0.7423    10.3145     1.4251 C.3     
  27 F27           -4.5727    11.0052     2.7691 F       
  28 F28           -5.8034    10.1314     1.0541 F       
  29 F29           -4.2757     8.8281     2.1435 F       
  30 F30           -3.5841    12.0679    -3.4472 F       
  31 F31           -4.2003    13.6314    -1.8996 F       
  32 F32           -2.0400    13.5443    -2.6377 F       
  33 H33            2.8283     1.8244     1.3640 H       
  34 H34           -0.4328    -0.5459    -1.3983 H       
  35 H35           -0.4398     1.9140    -1.4223 H       
  36 H36           -0.4008     3.7572    -1.4009 H       
  37 H37           -0.3515     6.2149    -1.3734 H       
  38 H38            2.9057     6.1254     1.3985 H       
  39 H39            2.8558     3.6675     1.3839 H       
  40 H40            2.5693    -1.0541     2.5054 H       
  41 H41            3.1988    -1.8114     1.0227 H       
  42 H42            3.9357    -0.3127     1.6385 H       
  43 H43            2.1527     8.1883     0.1011 H       
  44 H44            0.7975    10.3394    -0.7283 H       
  45 H45           -1.9600     9.3730     1.6244 H       
  46 H46           -0.7794    11.6420    -1.7883 H       
  47 H47           -4.8120    11.8056    -0.4097 H       
  48 H48            1.7578     9.9302     1.5209 H       
  49 H49            0.7552    11.4009     1.5123 H       
  50 H50            0.1188     9.8941     2.2142 H       
@<TRIPOS>BOND
   1    1    2 ar
   2    1    6 ar
   3    1   33 1
   4    2    3 ar
   5    2   13 1
   6    3    4 ar
   7    4    5 ar
   8    4   34 1
   9    5    6 ar
  10    5   35 1
  11    6    7 1
  12    7    8 ar
  13    7   12 ar
  14    8    9 ar
  15    8   36 1
  16    9   10 ar
  17    9   37 1
  18   10   11 ar
  19   10   14 1
  20   11   12 ar
  21   11   38 1
  22   12   39 1
  23   13   40 1
  24   13   41 1
  25   13   42 1
  26   14   15 am
  27   14   43 1
  28   15   16 1
  29   15   17 2
  30   16   18 1
  31   16   26 1
  32   16   44 1
  33   18   20 ar
  34   18   19 ar
  35   19   23 ar
  36   19   45 1
  37   20   21 ar
  38   20   46 1
  39   21   22 ar
  40   21   25 1
  41   22   23 ar
  42   22   47 1
  43   23   24 1
  44   24   27 1
  45   24   28 1
  46   24   29 1
  47   25   30 1
  48   25   31 1
  49   25   32 1
  50   26   48 1
  51   26   49 1
  52   26   50 1

#	End of record

