#	Name: ASD11000176
#	Creating user name:	WinNT
#	Creation time:	15. 06. 2019 21:28

#	Modifying user name:	WinNT
#	Modification time:	15. 06. 2019 21:28

#	Program:	/corina/corina34_cracker 3.40 0067  02.08.2006

@<TRIPOS>MOLECULE
ASD11000176
  43   46    0    0    0
SMALL
NO_CHARGES


@<TRIPOS>ATOM
   1 N1            -0.0172     1.3215    -0.0111 N.ar    
   2 C2             0.0016    -0.0034    -0.0059 C.ar    
   3 N3             1.1403    -0.6810    -0.0148 N.ar    
   4 C4             2.3025    -0.0498    -0.0298 C.ar    
   5 C5             2.3192     1.3362    -0.0361 C.ar    
   6 C6             1.1099     2.0136    -0.0259 C.ar    
   7 C7             3.6239     2.0904    -0.0526 C.3     
   8 O8             4.0226     2.3228    -1.4050 O.3     
   9 C9             5.1882     2.9968    -1.5980 C.ar    
  10 C10            5.6256     3.2580    -2.8807 C.ar    
  11 N11           -1.1974    -0.6965     0.0098 N.pl3   
  12 C12           -1.2008    -2.0922    -0.1034 C.ar    
  13 C13           -2.1494    -2.8419     0.5792 C.ar    
  14 C14           -0.2591    -2.7266    -0.9029 C.ar    
  15 C15           -0.2629    -4.1033    -1.0154 C.ar    
  16 C16           -1.2067    -4.8531    -0.3304 C.ar    
  17 C17           -2.1521    -4.2201     0.4663 C.ar    
  18 O18           -1.2097    -6.2089    -0.4424 O.3     
  19 C19           -0.2121    -6.7927    -1.2825 C.3     
  20 F20           -0.3583    -6.3075    -2.5865 F       
  21 F21            1.0578    -6.4582    -0.8002 F       
  22 C22            5.9310     3.4246    -0.4998 C.ar    
  23 C23            7.1041     4.1029    -0.6710 C.ar    
  24 C24            7.5719     4.3756    -1.9536 C.ar    
  25 C25            6.8266     3.9524    -3.0707 C.ar    
  26 N26            8.6819     5.0186    -2.4409 N.pl3   
  27 N27            8.6440     4.9990    -3.8389 N.2     
  28 C28            7.5717     4.3838    -4.2489 C.2     
  29 F29           -3.0715    -4.9510     1.1340 F       
  30 Cl30           4.6948     2.7295    -4.2474 Cl      
  31 H31            3.2273    -0.6076    -0.0367 H       
  32 H32            1.0882     3.0933    -0.0308 H       
  33 H33            3.4982     3.0450     0.4583 H       
  34 H34            4.3890     1.5039     0.4561 H       
  35 H35           -2.0347    -0.2151     0.0991 H       
  36 H36           -2.8845    -2.3491     1.1982 H       
  37 H37            0.4763    -2.1433    -1.4371 H       
  38 H38            0.4696    -4.5959    -1.6376 H       
  39 H39           -0.3265    -7.8767    -1.2832 H       
  40 H40            5.5749     3.2177     0.4986 H       
  41 H41            7.6693     4.4284     0.1898 H       
  42 H42            9.3806     5.4221    -1.9024 H       
  43 H43            7.2855     4.2210    -5.2775 H       
@<TRIPOS>BOND
   1    1    2 ar
   2    1    6 ar
   3    2    3 ar
   4    2   11 1
   5    3    4 ar
   6    4    5 ar
   7    4   31 1
   8    5    6 ar
   9    5    7 1
  10    6   32 1
  11    7    8 1
  12    7   33 1
  13    7   34 1
  14    8    9 1
  15    9   22 ar
  16    9   10 ar
  17   10   30 1
  18   10   25 ar
  19   11   12 1
  20   11   35 1
  21   12   13 ar
  22   12   14 ar
  23   13   17 ar
  24   13   36 1
  25   14   15 ar
  26   14   37 1
  27   15   16 ar
  28   15   38 1
  29   16   17 ar
  30   16   18 1
  31   17   29 1
  32   18   19 1
  33   19   20 1
  34   19   21 1
  35   19   39 1
  36   22   23 ar
  37   22   40 1
  38   23   24 ar
  39   23   41 1
  40   24   25 ar
  41   24   26 1
  42   25   28 1
  43   26   27 1
  44   26   42 1
  45   27   28 2
  46   28   43 1

#	End of record

