#	Name: ASD10610132
#	Creating user name:	WinNT
#	Creation time:	15. 06. 2019 21:28

#	Modifying user name:	WinNT
#	Modification time:	15. 06. 2019 21:28

#	Program:	/corina/corina34_cracker 3.40 0067  02.08.2006

@<TRIPOS>MOLECULE
ASD10610132
  18   19    0    0    0
SMALL
NO_CHARGES


@<TRIPOS>ATOM
   1 C1            -0.0184     1.5052     0.0103 C.2     
   2 C2             0.0021    -0.0041     0.0020 C.3     
   3 C3             1.4876    -0.3899    -0.0142 C.3     
   4 C4             2.2615     0.9067    -0.0147 C.ar    
   5 C5             3.6224     1.1384    -0.0271 C.ar    
   6 C6             4.1128     2.4337    -0.0255 C.ar    
   7 C7             3.2412     3.5086    -0.0115 C.ar    
   8 C8             1.8780     3.2948     0.0011 C.ar    
   9 C9             1.3718     1.9820    -0.0004 C.ar    
  10 O10           -1.0101     2.2034     0.0190 O.2     
  11 F11            1.0294     4.3459     0.0153 F       
  12 Br12           5.9796     2.7345    -0.0421 Br      
  13 H13           -0.4794    -0.3932     0.8992 H       
  14 H14           -0.4965    -0.3836    -0.8899 H       
  15 H15            1.7330    -0.9722     0.8739 H       
  16 H16            1.7159    -0.9627    -0.9131 H       
  17 H17            4.3088     0.3047    -0.0378 H       
  18 H18            3.6287     4.5166    -0.0099 H       
@<TRIPOS>BOND
   1    1    2 1
   2    1    9 1
   3    1   10 2
   4    2    3 1
   5    2   13 1
   6    2   14 1
   7    3    4 1
   8    3   15 1
   9    3   16 1
  10    4    5 ar
  11    4    9 ar
  12    5    6 ar
  13    5   17 1
  14    6    7 ar
  15    6   12 1
  16    7    8 ar
  17    7   18 1
  18    8    9 ar
  19    8   11 1

#	End of record

