#	Name: ASD11030036
#	Creating user name:	WinNT
#	Creation time:	15. 06. 2019 21:29

#	Modifying user name:	WinNT
#	Modification time:	15. 06. 2019 21:29

#	Program:	/corina/corina34_cracker 3.40 0067  02.08.2006

@<TRIPOS>MOLECULE
ASD11030036
  76   81    0    0    0
SMALL
NO_CHARGES


@<TRIPOS>ATOM
   1 C1             2.7287     4.0568    -5.9385 C.ar    
   2 C2             1.7592     3.1460    -5.5432 C.ar    
   3 C3             1.8698     2.5286    -4.3102 C.ar    
   4 N4             2.8809     2.7937    -3.5092 N.ar    
   5 C5             3.8300     3.6587    -3.8491 C.ar    
   6 C6             3.7808     4.3174    -5.0779 C.ar    
   7 C7             4.9470     3.9255    -2.9181 C.2     
   8 C8             5.4287     3.0511    -1.9990 C.2     
   9 C9             6.4916     3.6863    -1.3125 C.ar    
  10 C10            6.6201     4.9770    -1.8644 C.ar    
  11 N11            5.6647     5.0968    -2.8516 N.pl3   
  12 C12            7.3476     3.2786    -0.2793 C.ar    
  13 C13            8.3014     4.1285     0.1903 C.ar    
  14 C14            8.4367     5.4146    -0.3527 C.ar    
  15 C15            7.5949     5.8359    -1.3793 C.ar    
  16 C16            5.4443     6.2807    -3.6859 C.3     
  17 C17            4.9225     1.6531    -1.7529 C.3     
  18 C18            9.4753     6.3257     0.1664 C.2     
  19 N19           10.2912     5.9212     1.1600 N.am    
  20 O20            9.5950     7.4412    -0.3024 O.2     
  21 C21           11.3967     6.7786     1.5949 C.3     
  22 C22           10.9271     8.0666     2.2206 C.2     
  23 N23            9.8140     8.0801     2.9805 N.am    
  24 O24           11.5509     9.0910     2.0405 O.2     
  25 C25            9.4296     9.2514     3.6337 C.ar    
  26 C26            9.7196    10.4885     3.0675 C.ar    
  27 C27            9.3423    11.6469     3.7083 C.ar    
  28 C28            8.6652    11.5793     4.9317 C.ar    
  29 C29            8.3745    10.3322     5.4984 C.ar    
  30 C30            8.7513     9.1785     4.8482 C.ar    
  31 C31           12.4581     6.0402     2.4274 C.3     
  32 C32           13.5129     6.8564     1.6618 C.3     
  33 C33           12.4827     6.9741     0.5238 C.3     
  34 C34            8.2611    12.8134     5.6193 C.2     
  35 C35            7.6076    12.7459     6.7999 C.2     
  36 C36            6.0505     0.6343    -1.9926 C.3     
  37 C37            6.2684    -0.1044    -0.6560 C.3     
  38 C38            4.9208     0.0554     0.0905 C.3     
  39 C39            4.4944     1.4979    -0.2790 C.3     
  40 Cl40           8.3919     7.6314     5.5490 Cl      
  41 C41            7.2177    13.9367     7.4633 C.2     
  42 O42            7.4714    15.0191     6.9696 O.2     
  43 O43            6.5650    13.8693     8.6424 O.3     
  44 H44            2.6660     4.5481    -6.8983 H       
  45 H45            0.9256     2.9216    -6.1922 H       
  46 H46            1.1163     1.8197    -4.0002 H       
  47 H47            4.5527     5.0206    -5.3537 H       
  48 H48            7.2499     2.2899     0.1442 H       
  49 H49            8.9581     3.8107     0.9866 H       
  50 H50            7.7008     6.8268    -1.7956 H       
  51 H51            5.9844     6.1685    -4.6260 H       
  52 H52            4.3789     6.3884    -3.8896 H       
  53 H53            5.8054     7.1662    -3.1628 H       
  54 H54            4.0806     1.4398    -2.4115 H       
  55 H55           10.1464     5.0625     1.5872 H       
  56 H56            9.2802     7.2755     3.0731 H       
  57 H57           10.2421    10.5402     2.1237 H       
  58 H58            9.5688    12.6067     3.2680 H       
  59 H59            7.8525    10.2754     6.4422 H       
  60 H60           12.4159     6.2706     3.4920 H       
  61 H61           12.5038     4.9699     2.2264 H       
  62 H62           13.7529     7.8100     2.1321 H       
  63 H63           14.3988     6.2814     1.3923 H       
  64 H64           12.5347     6.1592    -0.1982 H       
  65 H65           12.4622     7.9571     0.0533 H       
  66 H66            8.4864    13.7744     5.1809 H       
  67 H67            7.3823    11.7849     7.2382 H       
  68 H68            5.7557    -0.0739    -2.7669 H       
  69 H69            6.9640     1.1510    -2.2869 H       
  70 H70            6.4837    -1.1582    -0.8332 H       
  71 H71            7.0755     0.3609    -0.0901 H       
  72 H72            4.1904    -0.6681    -0.2717 H       
  73 H73            5.0615    -0.0420     1.1670 H       
  74 H74            5.0149     2.2220     0.3477 H       
  75 H75            3.4149     1.6135    -0.1811 H       
  76 H76            6.3409    14.7318     9.0178 H       
@<TRIPOS>BOND
   1    1    2 ar
   2    1    6 ar
   3    1   44 1
   4    2    3 ar
   5    2   45 1
   6    3    4 ar
   7    3   46 1
   8    4    5 ar
   9    5    6 ar
  10    5    7 1
  11    6   47 1
  12    7    8 2
  13    7   11 1
  14    8    9 1
  15    8   17 1
  16    9   10 ar
  17    9   12 ar
  18   10   11 1
  19   10   15 ar
  20   11   16 1
  21   12   13 ar
  22   12   48 1
  23   13   14 ar
  24   13   49 1
  25   14   15 ar
  26   14   18 1
  27   15   50 1
  28   16   51 1
  29   16   52 1
  30   16   53 1
  31   17   36 1
  32   17   39 1
  33   17   54 1
  34   18   19 am
  35   18   20 2
  36   19   21 1
  37   19   55 1
  38   21   22 1
  39   21   31 1
  40   21   33 1
  41   22   23 am
  42   22   24 2
  43   23   25 1
  44   23   56 1
  45   25   26 ar
  46   25   30 ar
  47   26   27 ar
  48   26   57 1
  49   27   28 ar
  50   27   58 1
  51   28   29 ar
  52   28   34 1
  53   29   30 ar
  54   29   59 1
  55   30   40 1
  56   31   32 1
  57   31   60 1
  58   31   61 1
  59   32   33 1
  60   32   62 1
  61   32   63 1
  62   33   64 1
  63   33   65 1
  64   34   35 2
  65   34   66 1
  66   35   41 1
  67   35   67 1
  68   36   37 1
  69   36   68 1
  70   36   69 1
  71   37   38 1
  72   37   70 1
  73   37   71 1
  74   38   39 1
  75   38   72 1
  76   38   73 1
  77   39   74 1
  78   39   75 1
  79   41   42 2
  80   41   43 1
  81   43   76 1

#	End of record

