#	Name: ASD10400001
#	Creating user name:	WinNT
#	Creation time:	15. 06. 2019 21:26

#	Modifying user name:	WinNT
#	Modification time:	15. 06. 2019 21:26

#	Program:	/corina/corina34_cracker 3.40 0067  02.08.2006

@<TRIPOS>MOLECULE
ASD10400001
  46   48    0    0    0
SMALL
NO_CHARGES


@<TRIPOS>ATOM
   1 C1             2.3402     0.7378     1.2042 C.3     
   2 N2             0.8752     0.6341     1.2340 N.3     
   3 C3             0.2510     1.6613     0.3895 C.3     
   4 C4             0.6637     1.4384    -1.0694 C.3     
   5 N5             2.1320     1.3858    -1.1368 N.pl3   
   6 C6             2.8385     0.4770    -0.2213 C.3     
   7 C7             0.3702     0.7070     2.6116 C.3     
   8 C8             2.8358     2.1766    -2.0452 C.2     
   9 C9             2.7597     3.6644    -1.9074 C.3     
  10 C10            3.9344     4.3435    -2.5614 C.2     
  11 C11            4.6484     3.7319    -3.5235 C.2     
  12 C12            4.3225     2.3447    -4.0007 C.3     
  13 C13            3.5376     1.5847    -2.9769 C.2     
  14 F14            3.5472     0.2345    -3.0228 F       
  15 F15            1.5790     4.1184    -2.5050 F       
  16 N16            4.2524     5.6034    -2.1466 N.pl3   
  17 C17            5.2737     6.3059    -2.6541 C.2     
  18 C18            6.0665     5.7637    -3.6461 C.2     
  19 C19            5.7486     4.4078    -4.1155 C.2     
  20 O20            6.4136     3.8757    -4.9901 O.2     
  21 C21            7.1925     6.5199    -4.2164 C.2     
  22 O22            7.9525     5.9698    -5.1840 O.3     
  23 O23            7.4372     7.6407    -3.8149 O.2     
  24 C24            3.4374     6.2180    -1.0957 C.3     
  25 C25            4.0311     5.8803     0.2733 C.3     
  26 F26            3.2528     6.4672     1.2768 F       
  27 H27            2.6406     1.7377     1.5173 H       
  28 H28            2.7709    -0.0004     1.8808 H       
  29 H29           -0.8334     1.5930     0.4752 H       
  30 H30            0.5805     2.6484     0.7139 H       
  31 H31            0.2468     0.4973    -1.4281 H       
  32 H32            0.2982     2.2617    -1.6832 H       
  33 H33            3.9109     0.6646    -0.2744 H       
  34 H34            2.6306    -0.5565    -0.4985 H       
  35 H35            0.6624     1.6585     3.0558 H       
  36 H36           -0.7169     0.6278     2.6047 H       
  37 H37            0.7905    -0.1113     3.1964 H       
  38 H38            2.7433     3.9232    -0.8487 H       
  39 H39            3.7427     2.4116    -4.9213 H       
  40 H40            5.2507     1.8105    -4.2038 H       
  41 H41            5.4776     7.3006    -2.2862 H       
  42 H42            8.6809     6.5051    -5.5277 H       
  43 H43            3.4265     7.2997    -1.2302 H       
  44 H44            2.4189     5.8343    -1.1547 H       
  45 H45            4.0420     4.7987     0.4078 H       
  46 H46            5.0497     6.2640     0.3323 H       
@<TRIPOS>BOND
   1    1    2 1
   2    1    6 1
   3    1   27 1
   4    1   28 1
   5    2    3 1
   6    2    7 1
   7    3    4 1
   8    3   29 1
   9    3   30 1
  10    4    5 1
  11    4   31 1
  12    4   32 1
  13    5    6 1
  14    5    8 1
  15    6   33 1
  16    6   34 1
  17    7   35 1
  18    7   36 1
  19    7   37 1
  20    8    9 1
  21    8   13 2
  22    9   10 1
  23    9   15 1
  24    9   38 1
  25   10   11 2
  26   10   16 1
  27   11   12 1
  28   11   19 1
  29   12   13 1
  30   12   39 1
  31   12   40 1
  32   13   14 1
  33   16   17 1
  34   16   24 1
  35   17   18 2
  36   17   41 1
  37   18   19 1
  38   18   21 1
  39   19   20 2
  40   21   22 1
  41   21   23 2
  42   22   42 1
  43   24   25 1
  44   24   43 1
  45   24   44 1
  46   25   26 1
  47   25   45 1
  48   25   46 1

#	End of record

