#	Name: ASD13110005
#	Creating user name:	WinNT
#	Creation time:	15. 06. 2019 21:30

#	Modifying user name:	WinNT
#	Modification time:	15. 06. 2019 21:30

#	Program:	/corina/corina34_cracker 3.40 0067  02.08.2006

@<TRIPOS>MOLECULE
ASD13110005
  53   55    0    0    0
SMALL
NO_CHARGES


@<TRIPOS>ATOM
   1 C1            -0.2983     1.2873    -0.8912 C.3     
   2 C2            -0.3206    -0.2056    -0.6870 C.2     
   3 O3             0.7048    -0.8462    -0.7834 O.2     
   4 Cl4            0.4760     1.3246    -3.8015 Cl      
   5 C5             1.5462     1.7780    -2.5120 C.ar    
   6 C6             1.1083     1.7310    -1.2007 C.ar    
   7 N7            -1.4799    -0.8289    -0.3973 N.am    
   8 C8            -1.5526    -2.2947    -0.2782 C.3     
   9 C9            -1.9190    -2.6306     1.1666 C.3     
  10 C10           -3.0777    -1.7904     1.6351 C.ar    
  11 C11           -3.4439    -0.6134     1.0210 C.ar    
  12 C12           -2.7191    -0.0741    -0.1819 C.3     
  13 C13            1.9618     2.0920    -0.1737 C.ar    
  14 C14            2.8392     2.1809    -2.7953 C.ar    
  15 C15            3.6916     2.5414    -1.7686 C.ar    
  16 C16            3.2529     2.4997    -0.4586 C.ar    
  17 C17           -3.7940    -2.2388     2.7379 C.ar    
  18 C18           -4.8613    -1.5125     3.2242 C.ar    
  19 C19           -5.2228    -0.3275     2.6114 C.ar    
  20 C20           -4.5136     0.1202     1.5149 C.ar    
  21 C21           -0.1953    -2.9102    -0.6246 C.3     
  22 C22           -3.6169    -0.2070    -1.4137 C.3     
  23 O23            0.7517    -2.5785     0.3928 O.3     
  24 Cl24           1.4129     2.0339     1.4722 Cl      
  25 C25           -3.4020    -3.5302     3.4083 C.3     
  26 C26           -2.0163    -3.3774     4.0387 C.3     
  27 C27           -4.4225    -3.8703     4.4964 C.3     
  28 O28           -3.3713    -4.5799     2.4392 O.3     
  29 H29           -0.9533     1.5502    -1.7218 H       
  30 H30           -0.6444     1.7832     0.0156 H       
  31 H31           -2.3168    -2.6821    -0.9521 H       
  32 H32           -2.1906    -3.6842     1.2319 H       
  33 H33           -1.0577    -2.4429     1.8077 H       
  34 H34           -2.4800     0.9769    -0.0197 H       
  35 H35            3.1826     2.2133    -3.8187 H       
  36 H36            4.7007     2.8559    -1.9902 H       
  37 H37            3.9193     2.7816     0.3432 H       
  38 H38           -5.4131    -1.8690     4.0814 H       
  39 H39           -6.0553     0.2469     2.9900 H       
  40 H40           -4.7961     1.0458     1.0355 H       
  41 H41           -0.2938    -3.9938    -0.6899 H       
  42 H42            0.1477    -2.5182    -1.5821 H       
  43 H43           -3.8551    -1.2579    -1.5780 H       
  44 H44           -4.5379     0.3537    -1.2542 H       
  45 H45           -3.0972     0.1885    -2.2864 H       
  46 H46            1.6366    -2.9366     0.2383 H       
  47 H47           -2.0479    -2.5994     4.8015 H       
  48 H48           -1.7185    -4.3215     4.4948 H       
  49 H49           -1.2952    -3.1024     3.2689 H       
  50 H50           -5.3929    -4.0604     4.0377 H       
  51 H51           -4.0955    -4.7589     5.0362 H       
  52 H52           -4.5062    -3.0339     5.1902 H       
  53 H53           -3.1258    -5.4423     2.8011 H       
@<TRIPOS>BOND
   1    1    2 1
   2    1    6 1
   3    1   29 1
   4    1   30 1
   5    2    3 2
   6    2    7 am
   7    4    5 1
   8    5   14 ar
   9    5    6 ar
  10    6   13 ar
  11    7    8 1
  12    7   12 1
  13    8    9 1
  14    8   21 1
  15    8   31 1
  16    9   10 1
  17    9   32 1
  18    9   33 1
  19   10   11 ar
  20   10   17 ar
  21   11   12 1
  22   11   20 ar
  23   12   22 1
  24   12   34 1
  25   13   16 ar
  26   13   24 1
  27   14   15 ar
  28   14   35 1
  29   15   16 ar
  30   15   36 1
  31   16   37 1
  32   17   18 ar
  33   17   25 1
  34   18   19 ar
  35   18   38 1
  36   19   20 ar
  37   19   39 1
  38   20   40 1
  39   21   23 1
  40   21   41 1
  41   21   42 1
  42   22   43 1
  43   22   44 1
  44   22   45 1
  45   23   46 1
  46   25   26 1
  47   25   27 1
  48   25   28 1
  49   26   47 1
  50   26   48 1
  51   26   49 1
  52   27   50 1
  53   27   51 1
  54   27   52 1
  55   28   53 1

#	End of record

