#	Name: ASD12580001
#	Creating user name:	WinNT
#	Creation time:	15. 06. 2019 21:30

#	Modifying user name:	WinNT
#	Modification time:	15. 06. 2019 21:30

#	Program:	/corina/corina34_cracker 3.40 0067  02.08.2006

@<TRIPOS>MOLECULE
ASD12580001
  52   54    0    0    0
SMALL
NO_CHARGES


@<TRIPOS>ATOM
   1 N1            -0.0159     1.3250     0.0093 N.ar    
   2 C2             0.0021    -0.0041     0.0020 C.ar    
   3 C3             1.2346    -0.6643    -0.0133 C.ar    
   4 N4             2.2992     1.4320    -0.0126 N.ar    
   5 C5             1.1175     2.0147     0.0022 C.ar    
   6 S6             1.6585    -2.3721    -0.0265 S.3     
   7 C7             3.3677    -1.9562    -0.0406 C.2     
   8 N8             3.5138    -0.6707    -0.0351 N.2     
   9 C9             2.4141     0.0848    -0.0205 C.ar    
  10 N10           -1.1824    -0.7243     0.0099 N.pl3   
  11 C11           -2.4674    -0.0208     0.0264 C.3     
  12 C12           -3.5364    -0.9259     0.6419 C.3     
  13 C13           -3.1992    -1.1874     2.1112 C.3     
  14 C14           -3.2799     0.1246     2.8942 C.3     
  15 C15           -4.1972    -2.1907     2.6928 C.3     
  16 C16           -2.8686     0.3420    -1.4047 C.3     
  17 O17           -3.1018    -0.8536    -2.1517 O.3     
  18 S18            1.0396     3.7749     0.0124 S.3     
  19 C19            2.8064     4.1678    -0.0024 C.3     
  20 C20            2.9908     5.6578     0.1277 C.ar    
  21 C21            3.4241     3.6905    -1.3182 C.3     
  22 C22            2.4472     6.5067    -0.8182 C.ar    
  23 C23            3.6986     6.1760     1.1960 C.ar    
  24 C24            3.8678     7.5428     1.3153 C.ar    
  25 C25            3.3295     8.3913     0.3661 C.ar    
  26 C26            2.6163     7.8735    -0.6989 C.ar    
  27 N27            4.4013    -2.8676    -0.0547 N.pl3   
  28 H28           -1.1604    -1.6940     0.0045 H       
  29 H29           -2.3759     0.8889     0.6199 H       
  30 H30           -4.5088    -0.4381     0.5735 H       
  31 H31           -3.5660    -1.8724     0.1019 H       
  32 H32           -2.1904    -1.5935     2.1857 H       
  33 H33           -4.2887     0.5307     2.8197 H       
  34 H34           -3.0396    -0.0617     3.9409 H       
  35 H35           -2.5689     0.8394     2.4798 H       
  36 H36           -4.1397    -3.1253     2.1349 H       
  37 H37           -3.9569    -2.3769     3.7395 H       
  38 H38           -5.2059    -1.7845     2.6183 H       
  39 H39           -3.7784     0.9420    -1.3860 H       
  40 H40           -2.0667     0.9126    -1.8733 H       
  41 H41           -3.3607    -0.6992    -3.0705 H       
  42 H42            3.2970     3.6668     0.8321 H       
  43 H43            4.4880     3.9271    -1.3271 H       
  44 H44            3.2907     2.6127    -1.4123 H       
  45 H45            2.9334     4.1915    -2.1527 H       
  46 H46            1.8907     6.1021    -1.6507 H       
  47 H47            4.1192     5.5131     1.9377 H       
  48 H48            4.4202     7.9477     2.1504 H       
  49 H49            3.4613     9.4592     0.4595 H       
  50 H50            2.1920     8.5367    -1.4381 H       
  51 H51            4.2095    -3.8184    -0.0574 H       
  52 H52            5.3206    -2.5582    -0.0618 H       
@<TRIPOS>BOND
   1    1    2 ar
   2    1    5 ar
   3    2    3 ar
   4    2   10 1
   5    3    6 1
   6    3    9 ar
   7    4    5 ar
   8    4    9 ar
   9    5   18 1
  10    6    7 1
  11    7    8 2
  12    7   27 1
  13    8    9 1
  14   10   11 1
  15   10   28 1
  16   11   12 1
  17   11   16 1
  18   11   29 1
  19   12   13 1
  20   12   30 1
  21   12   31 1
  22   13   14 1
  23   13   15 1
  24   13   32 1
  25   14   33 1
  26   14   34 1
  27   14   35 1
  28   15   36 1
  29   15   37 1
  30   15   38 1
  31   16   17 1
  32   16   39 1
  33   16   40 1
  34   17   41 1
  35   18   19 1
  36   19   20 1
  37   19   21 1
  38   19   42 1
  39   20   23 ar
  40   20   22 ar
  41   21   43 1
  42   21   44 1
  43   21   45 1
  44   22   26 ar
  45   22   46 1
  46   23   24 ar
  47   23   47 1
  48   24   25 ar
  49   24   48 1
  50   25   26 ar
  51   25   49 1
  52   26   50 1
  53   27   51 1
  54   27   52 1

#	End of record

