#	Name: ASD17290001
#	Creating user name:	WinNT
#	Creation time:	15. 06. 2019 21:31

#	Modifying user name:	WinNT
#	Modification time:	15. 06. 2019 21:31

#	Program:	/corina/corina34_cracker 3.40 0067  02.08.2006

@<TRIPOS>MOLECULE
ASD17290001
  63   65    0    0    0
SMALL
NO_CHARGES


@<TRIPOS>ATOM
   1 N1            -0.0159     1.3250     0.0093 N.ar    
   2 C2             2.4106     0.1063    -0.0204 C.ar    
   3 N3            -0.9562    -0.9859     0.0059 N.pl3   
   4 C4            -0.3109    -2.1866    -0.0067 C.2     
   5 C5            -2.4067    -0.7815     0.0208 C.3     
   6 C6            -2.9465    -0.6521    -1.4208 C.3     
   7 C7            -4.4336    -1.8578     0.0853 C.3     
   8 C8            -8.4798    -4.5388    -0.6375 C.3     
   9 C9            -9.1504    -5.9129    -0.5835 C.3     
  10 C10          -11.2742    -7.1639    -0.9921 C.3     
  11 C11          -12.7056    -7.0425    -1.4477 C.2     
  12 C12          -14.8878    -8.0154    -1.9259 C.3     
  13 C13          -15.7147    -9.1496    -1.3171 C.3     
  14 C14          -15.7583    -8.9913     0.1810 C.2     
  15 C15           -4.3106    -1.3765    -1.3774 C.3     
  16 N16            3.6575    -0.4937    -0.0355 N.pl3   
  17 C17           -5.0941    -3.2113     0.1385 C.2     
  18 C18           -7.0266    -4.6620    -0.1749 C.3     
  19 C19          -10.6036    -5.7897    -1.0461 C.3     
  20 N20            0.9769    -1.9991    -0.0180 N.2     
  21 O21          -13.1460    -5.9632    -1.7826 O.2     
  22 N22           -6.3845    -3.3462    -0.2266 N.am    
  23 O23           -4.4646    -4.1791     0.5097 O.2     
  24 O24           -3.0727    -1.9434     0.5613 O.3     
  25 O25           -5.3687    -0.4710    -1.6972 O.3     
  26 O26           -3.1206     0.7229    -1.7688 O.3     
  27 C27            1.2390    -0.6701    -0.0134 C.ar    
  28 C28            0.0021    -0.0041     0.0020 C.ar    
  29 C29            1.1072     2.0112     0.0023 C.ar    
  30 N30            2.2930     1.4299    -0.0122 N.ar    
  31 N31          -13.4963    -8.1334    -1.4830 N.am    
  32 C32          -14.9455    -8.1027    -3.4293 C.2     
  33 O33          -16.1266    -8.0184    -4.0615 O.3     
  34 O34          -13.9287    -8.2484    -4.0655 O.2     
  35 O35          -15.1867    -8.0662     0.7076 O.2     
  36 H36           -0.7967    -3.1512    -0.0069 H       
  37 H37           -2.6583     0.1051     0.6030 H       
  38 H38           -2.2754    -1.1434    -2.1254 H       
  39 H39           -4.9992    -1.1369     0.6757 H       
  40 H40           -8.5049    -4.1621    -1.6600 H       
  41 H41           -9.0122    -3.8487     0.0171 H       
  42 H42           -8.6180    -6.6030    -1.2381 H       
  43 H43           -9.1253    -6.2896     0.4390 H       
  44 H44          -11.2491    -7.5405     0.0304 H       
  45 H45          -10.7418    -7.8539    -1.6467 H       
  46 H46          -15.2922    -7.0565    -1.6018 H       
  47 H47          -16.7285    -9.1146    -1.7158 H       
  48 H48          -15.2583   -10.1072    -1.5681 H       
  49 H49           -4.3139    -2.2258    -2.0605 H       
  50 H50            3.7302    -1.4610    -0.0414 H       
  51 H51            4.4587     0.0530    -0.0402 H       
  52 H52           -7.0015    -5.0386     0.8476 H       
  53 H53           -6.4942    -5.3520    -0.8295 H       
  54 H54          -11.1360    -5.0997    -0.3915 H       
  55 H55          -10.6288    -5.4130    -2.0686 H       
  56 H56           -6.8880    -2.5721    -0.5235 H       
  57 H57           -6.2480    -0.8733    -1.6848 H       
  58 H58           -3.4578     0.8623    -2.6643 H       
  59 H59            1.0572     3.0900     0.0082 H       
  60 H60          -13.1441    -8.9966    -1.2152 H       
  61 H61          -16.1133    -8.0797    -5.0265 H       
  62 O62          -16.4322    -9.8780     0.9302 O.3     
  63 H63          -16.4316    -9.7349     1.8866 H       
@<TRIPOS>BOND
   1    1   28 ar
   2    1   29 ar
   3    2   16 1
   4    2   27 ar
   5    2   30 ar
   6    3    4 1
   7    3    5 1
   8    3   28 1
   9    4   20 2
  10    4   36 1
  11    5   24 1
  12    5   37 1
  13    5    6 1
  14    6   15 1
  15    6   38 1
  16    6   26 1
  17    7   17 1
  18    7   39 1
  19    7   15 1
  20    7   24 1
  21    8    9 1
  22    8   40 1
  23    8   41 1
  24    8   18 1
  25    9   19 1
  26    9   42 1
  27    9   43 1
  28   10   11 1
  29   10   44 1
  30   10   45 1
  31   10   19 1
  32   11   21 2
  33   11   31 am
  34   12   13 1
  35   12   46 1
  36   12   31 1
  37   12   32 1
  38   13   14 1
  39   13   47 1
  40   13   48 1
  41   14   35 2
  42   14   62 1
  43   15   49 1
  44   15   25 1
  45   16   50 1
  46   16   51 1
  47   17   23 2
  48   17   22 am
  49   18   52 1
  50   18   53 1
  51   18   22 1
  52   19   54 1
  53   19   55 1
  54   20   27 1
  55   22   56 1
  56   25   57 1
  57   26   58 1
  58   27   28 ar
  59   29   30 ar
  60   29   59 1
  61   31   60 1
  62   32   33 1
  63   32   34 2
  64   33   61 1
  65   62   63 1

#	End of record

