#	Name: ASD13690001
#	Creating user name:	WinNT
#	Creation time:	15. 06. 2019 21:30

#	Modifying user name:	WinNT
#	Modification time:	15. 06. 2019 21:30

#	Program:	/corina/corina34_cracker 3.40 0067  02.08.2006

@<TRIPOS>MOLECULE
ASD13690001
  53   56    0    0    0
SMALL
NO_CHARGES


@<TRIPOS>ATOM
   1 C1             1.1615     2.5502    -2.3552 C.ar    
   2 C2             1.2099     2.7904    -3.7146 C.ar    
   3 C3             1.2878     4.0874    -4.1869 C.ar    
   4 C4             1.3176     5.1495    -3.2995 C.ar    
   5 C5             1.2696     4.9156    -1.9384 C.ar    
   6 C6             1.1908     3.6132    -1.4617 C.ar    
   7 N7             1.1420     3.3731    -0.0866 N.am    
   8 S8             2.2026     4.1422     0.9264 S.o2    
   9 O9             2.1422     5.5231     0.5970 O.2     
  10 O10            1.9449     3.6425     2.2314 O.2     
  11 C11            3.8224     3.5983     0.4961 C.ar    
  12 C12            4.5120     4.2258    -0.5250 C.ar    
  13 C13            5.7830     3.8032    -0.8674 C.ar    
  14 C14            6.3694     2.7484    -0.1869 C.ar    
  15 C15            5.6754     2.1162     0.8422 C.ar    
  16 C16            4.4026     2.5494     1.1838 C.ar    
  17 N17            6.2634     1.0488     1.5339 N.am    
  18 C18            5.9003     0.7881     2.8053 C.2     
  19 C19            6.6027    -0.2954     3.5824 C.3     
  20 O20            5.0083     1.4255     3.3242 O.2     
  21 C21            6.0125    -0.3841     4.9662 C.2     
  22 C22            5.9562    -1.4197     7.2113 C.ar    
  23 C23            6.4324    -2.3432     8.1411 C.ar    
  24 C24            7.4603    -3.1896     7.7879 C.ar    
  25 C25            8.0237    -3.1304     6.5196 C.ar    
  26 C26            7.5722    -2.2339     5.5919 C.ar    
  27 C27            6.5319    -1.3630     5.9215 C.ar    
  28 N28            5.0457     0.4126     5.3126 N.2     
  29 N29            4.4587     0.3795     6.5778 N.am    
  30 C30            4.8645    -0.4902     7.5263 C.2     
  31 O31            4.3369    -0.5018     8.6242 O.2     
  32 O32            7.6191     2.3310    -0.5231 O.3     
  33 Cl33           1.4161     6.7764    -3.8971 Cl      
  34 C34            3.3732     1.3143     6.8848 C.3     
  35 H35            1.0966     1.5368    -1.9875 H       
  36 H36            1.1872     1.9640    -4.4095 H       
  37 H37            1.3258     4.2723    -5.2502 H       
  38 H38            1.2936     5.7442    -1.2461 H       
  39 H39            0.4870     2.7558     0.2750 H       
  40 H40            4.0563     5.0480    -1.0568 H       
  41 H41            6.3187     4.2952    -1.6657 H       
  42 H42            3.8636     2.0643     1.9841 H       
  43 H43            6.9318     0.4976     1.0976 H       
  44 H44            6.4756    -1.2497     3.0713 H       
  45 H45            7.6646    -0.0605     3.6547 H       
  46 H46            5.9995    -2.3943     9.1292 H       
  47 H47            7.8324    -3.9065     8.5048 H       
  48 H48            8.8290    -3.8026     6.2627 H       
  49 H49            8.0191    -2.1982     4.6093 H       
  50 H50            8.3266     2.7780    -0.0386 H       
  51 H51            3.1748     1.9393     6.0141 H       
  52 H52            2.4741     0.7548     7.1430 H       
  53 H53            3.6632     1.9442     7.7257 H       
@<TRIPOS>BOND
   1    1    2 ar
   2    1    6 ar
   3    1   35 1
   4    2    3 ar
   5    2   36 1
   6    3    4 ar
   7    3   37 1
   8    4    5 ar
   9    4   33 1
  10    5    6 ar
  11    5   38 1
  12    6    7 1
  13    7    8 am
  14    7   39 1
  15    8    9 2
  16    8   10 2
  17    8   11 1
  18   11   12 ar
  19   11   16 ar
  20   12   13 ar
  21   12   40 1
  22   13   14 ar
  23   13   41 1
  24   14   15 ar
  25   14   32 1
  26   15   16 ar
  27   15   17 1
  28   16   42 1
  29   17   18 am
  30   17   43 1
  31   18   19 1
  32   18   20 2
  33   19   21 1
  34   19   44 1
  35   19   45 1
  36   21   28 2
  37   21   27 1
  38   22   23 ar
  39   22   27 ar
  40   22   30 1
  41   23   24 ar
  42   23   46 1
  43   24   25 ar
  44   24   47 1
  45   25   26 ar
  46   25   48 1
  47   26   27 ar
  48   26   49 1
  49   28   29 1
  50   29   30 am
  51   29   34 1
  52   30   31 2
  53   32   50 1
  54   34   51 1
  55   34   52 1
  56   34   53 1

#	End of record

