#	Name: ASD13500001
#	Creating user name:	WinNT
#	Creation time:	15. 06. 2019 21:30

#	Modifying user name:	WinNT
#	Modification time:	15. 06. 2019 21:30

#	Program:	/corina/corina34_cracker 3.40 0067  02.08.2006

@<TRIPOS>MOLECULE
ASD13500001
  59   62    0    0    0
SMALL
NO_CHARGES


@<TRIPOS>ATOM
   1 C1            -0.1853     1.9648    -0.3799 C.ar    
   2 C2            -0.3240     0.5905    -0.4348 C.ar    
   3 C3             0.7897    -0.2249    -0.3510 C.ar    
   4 C4             2.0483     0.3293    -0.2113 C.ar    
   5 C5             2.1969     1.7073    -0.1553 C.ar    
   6 C6             1.0736     2.5297    -0.2404 C.ar    
   7 N7             1.2166     3.9220    -0.1851 N.am    
   8 N8             3.4697     2.2704    -0.0135 N.am    
   9 C9             0.2020     4.6862     0.2655 C.2     
  10 C10            0.3839     6.1460     0.4101 C.ar    
  11 O11           -0.8629     4.1750     0.5531 O.2     
  12 C12            1.7664     8.1000     0.2121 C.ar    
  13 C13            1.6034     6.7370     0.0753 C.ar    
  14 C14           -0.6649     6.9404     0.8764 C.ar    
  15 C15           -0.4886     8.3022     1.0086 C.ar    
  16 C16            0.7245     8.8810     0.6800 C.ar    
  17 C17            0.9098    10.3693     0.8268 C.3     
  18 C18            1.2479    10.9780    -0.5355 C.3     
  19 C19           -0.3818    10.9941     1.3582 C.3     
  20 C20            2.0514    10.6468     1.8069 C.3     
  21 S21            4.7744     1.5638    -0.7489 S.o2    
  22 O22            5.8735     2.4413    -0.5457 O.2     
  23 O23            4.7792     0.2038    -0.3371 O.2     
  24 C24            4.4564     1.5578    -2.4819 C.ar    
  25 C25            3.5482     0.4717    -4.4163 C.ar    
  26 C26            3.8016     0.4836    -3.0581 C.ar    
  27 C27            4.8569     2.6282    -3.2582 C.ar    
  28 C28            3.9517     1.5394    -5.2021 C.ar    
  29 N29            3.8457     1.8201    -6.5641 N.am    
  30 C30            4.6072     2.6253    -4.6212 C.ar    
  31 O31            4.8750     3.5107    -5.6122 O.3     
  32 C32            4.4161     3.0228    -6.7754 C.2     
  33 C33            3.2219     0.9669    -7.5785 C.3     
  34 O34            4.5023     3.5794    -7.8531 O.2     
  35 H35           -1.0568     2.5987    -0.4502 H       
  36 H36           -1.3051     0.1524    -0.5432 H       
  37 H37            0.6758    -1.2980    -0.3944 H       
  38 H38            2.9158    -0.3106    -0.1454 H       
  39 H39            2.0458     4.3362    -0.4710 H       
  40 H40            3.5879     3.0748     0.5155 H       
  41 H41            2.7095     8.5585    -0.0462 H       
  42 H42            2.4176     6.1285    -0.2897 H       
  43 H43           -1.6123     6.4899     1.1329 H       
  44 H44           -1.2993     8.9180     1.3689 H       
  45 H45            0.4346    10.7803    -1.2338 H       
  46 H46            1.3819    12.0545    -0.4293 H       
  47 H47            2.1680    10.5329    -0.9141 H       
  48 H48           -0.6226    10.5604     2.3288 H       
  49 H49           -0.2477    12.0706     1.4645 H       
  50 H50           -1.1951    10.7964     0.6600 H       
  51 H51            2.9716    10.2017     1.4283 H       
  52 H52            2.1855    11.7233     1.9131 H       
  53 H53            1.8106    10.2131     2.7775 H       
  54 H54            3.0373    -0.3677    -4.8644 H       
  55 H55            3.4880    -0.3480    -2.4445 H       
  56 H56            5.3637     3.4664    -2.8032 H       
  57 H57            2.1648     1.2182    -7.6645 H       
  58 H58            3.7125     1.1260    -8.5387 H       
  59 H59            3.3244    -0.0784    -7.2870 H       
@<TRIPOS>BOND
   1    1    2 ar
   2    1    6 ar
   3    1   35 1
   4    2    3 ar
   5    2   36 1
   6    3    4 ar
   7    3   37 1
   8    4    5 ar
   9    4   38 1
  10    5    6 ar
  11    5    8 1
  12    6    7 1
  13    7    9 am
  14    7   39 1
  15    8   21 am
  16    8   40 1
  17    9   10 1
  18    9   11 2
  19   10   14 ar
  20   10   13 ar
  21   12   13 ar
  22   12   16 ar
  23   12   41 1
  24   13   42 1
  25   14   15 ar
  26   14   43 1
  27   15   16 ar
  28   15   44 1
  29   16   17 1
  30   17   18 1
  31   17   19 1
  32   17   20 1
  33   18   45 1
  34   18   46 1
  35   18   47 1
  36   19   48 1
  37   19   49 1
  38   19   50 1
  39   20   51 1
  40   20   52 1
  41   20   53 1
  42   21   22 2
  43   21   23 2
  44   21   24 1
  45   24   27 ar
  46   24   26 ar
  47   25   26 ar
  48   25   28 ar
  49   25   54 1
  50   26   55 1
  51   27   30 ar
  52   27   56 1
  53   28   30 ar
  54   28   29 1
  55   29   32 am
  56   29   33 1
  57   30   31 1
  58   31   32 1
  59   32   34 2
  60   33   57 1
  61   33   58 1
  62   33   59 1

#	End of record

