#	Name: ASD10610142
#	Creating user name:	WinNT
#	Creation time:	15. 06. 2019 21:28

#	Modifying user name:	WinNT
#	Modification time:	15. 06. 2019 21:28

#	Program:	/corina/corina34_cracker 3.40 0067  02.08.2006

@<TRIPOS>MOLECULE
ASD10610142
  40   42    0    0    0
SMALL
NO_CHARGES


@<TRIPOS>ATOM
   1 C1             0.0266     1.4825     0.0459 C.3     
   2 C2             0.2264    -0.0308    -0.0590 C.3     
   3 C3             1.4400     0.8968     0.0274 C.3     
   4 C4            -0.4414     2.2098    -1.1882 C.2     
   5 O5            -0.2354     1.7365    -2.2857 O.2     
   6 N6            -1.0888     3.3862    -1.0723 N.am    
   7 C7            -1.4466     4.1467    -2.2722 C.3     
   8 C8            -2.1762     5.4498    -1.8826 C.3     
   9 C9            -1.0177     6.4665    -1.8015 C.3     
  10 C10            0.0482     5.9276    -2.7314 C.ar    
  11 C11            1.1469     6.5539    -3.2954 C.ar    
  12 C12            1.9969     5.8506    -4.1276 C.ar    
  13 C13            1.7500     4.5165    -4.3981 C.ar    
  14 C14            0.6549     3.8909    -3.8358 C.ar    
  15 C15           -0.1982     4.5946    -3.0018 C.ar    
  16 C16           -2.3274     3.3002    -3.1933 C.3     
  17 Br17           3.4953     6.7108    -4.8963 Br      
  18 N18           -0.4693     2.0127     1.3183 N.am    
  19 C19           -1.7076     1.6940     1.7444 C.2     
  20 O20           -2.3770     0.8975     1.1212 O.2     
  21 C21           -2.2604     2.3273     2.9951 C.3     
  22 F22           -3.5514     1.8431     3.2316 F       
  23 F23           -1.4373     2.0105     4.0812 F       
  24 F24           -2.3055     3.7162     2.8338 F       
  25 H25           -0.0112    -0.6319     0.8187 H       
  26 H26            0.0193    -0.5003    -1.0207 H       
  27 H27            2.0313     1.0376    -0.8773 H       
  28 H28            2.0009     0.9061     0.9620 H       
  29 H29           -1.3178     3.7293    -0.1944 H       
  30 H30           -2.8917     5.7384    -2.6525 H       
  31 H31           -2.6676     5.3444    -0.9154 H       
  32 H32           -1.3517     7.4481    -2.1377 H       
  33 H33           -0.6361     6.5246    -0.7821 H       
  34 H34            1.3400     7.5954    -3.0845 H       
  35 H35            2.4128     3.9651    -5.0485 H       
  36 H36            0.4624     2.8496    -4.0477 H       
  37 H37           -3.2441     3.0281    -2.6701 H       
  38 H38           -2.5754     3.8734    -4.0866 H       
  39 H39           -1.7903     2.3959    -3.4793 H       
  40 H40            0.0936     2.5932     1.8542 H       
@<TRIPOS>BOND
   1    1    2 1
   2    1    3 1
   3    1    4 1
   4    1   18 1
   5    2    3 1
   6    2   25 1
   7    2   26 1
   8    3   27 1
   9    3   28 1
  10    4    5 2
  11    4    6 am
  12    6    7 1
  13    6   29 1
  14    7    8 1
  15    7   15 1
  16    7   16 1
  17    8    9 1
  18    8   30 1
  19    8   31 1
  20    9   10 1
  21    9   32 1
  22    9   33 1
  23   10   11 ar
  24   10   15 ar
  25   11   12 ar
  26   11   34 1
  27   12   13 ar
  28   12   17 1
  29   13   14 ar
  30   13   35 1
  31   14   15 ar
  32   14   36 1
  33   16   37 1
  34   16   38 1
  35   16   39 1
  36   18   19 am
  37   18   40 1
  38   19   20 2
  39   19   21 1
  40   21   22 1
  41   21   23 1
  42   21   24 1

#	End of record

