#	Name: ASD13950003
#	Creating user name:	WinNT
#	Creation time:	15. 06. 2019 21:30

#	Modifying user name:	WinNT
#	Modification time:	15. 06. 2019 21:30

#	Program:	/corina/corina34_cracker 3.40 0067  02.08.2006

@<TRIPOS>MOLECULE
ASD13950003
 132  135    0    0    0
SMALL
NO_CHARGES


@<TRIPOS>ATOM
   1 O1            -4.6977     0.2520     5.0861 O.3     
   2 O2             7.4616   -19.1824    -6.6643 O.3     
   3 O3            -5.3108    -2.4661     0.8515 O.3     
   4 O4             5.3264   -16.6199   -10.4814 O.3     
   5 O5            -4.4893    -1.2781     3.3364 O.3     
   6 O6             6.1513   -17.7677    -7.9789 O.3     
   7 O7            -6.7915     0.8765     0.6081 O.3     
   8 O8             6.7963   -19.7968   -11.5640 O.3     
   9 O9            -3.2257    -3.1032     5.1255 O.3     
  10 O10            5.8851   -16.0019    -5.7563 O.3     
  11 O11           -2.1863    -1.9567     7.5311 O.3     
  12 O12            6.4815   -17.1350    -3.1986 O.3     
  13 O13           -7.6459    -0.3445    -1.8334 O.3     
  14 O14            6.0187   -18.6108   -14.0479 O.3     
  15 O15           -3.7126     0.2059     8.6150 O.3     
  16 O16            8.5863   -19.0717    -3.1789 O.3     
  17 O17           -6.0340    -2.5265    -2.7399 O.3     
  18 O18            3.9386   -16.6553   -13.8723 O.3     
  19 O19           -4.9235    -4.1718    -0.6934 O.3     
  20 O20            3.9611   -15.0398   -11.5232 O.3     
  21 O21           -6.1966     2.4651     6.1427 O.3     
  22 O22            9.5344   -21.1734    -6.6531 O.3     
  23 O23           -3.0632    -4.0506     0.5203 O.2     
  24 O24            3.1057   -15.2973    -9.4860 O.2     
  25 C25           -5.4606    -1.0731     1.1330 C.3     
  26 C26            5.7636   -17.9746   -10.3553 C.3     
  27 C27           -6.6736    -0.5283     0.3743 C.3     
  28 C28            6.4103   -18.4248   -11.6678 C.3     
  29 C29           -3.3167    -1.7051     5.4070 C.3     
  30 C30            6.2743   -17.3677    -5.5977 C.3     
  31 C31           -3.3925    -1.4918     6.9220 C.3     
  32 C32            7.1959   -17.4995    -4.3814 C.3     
  33 C33           -6.4856    -0.7838    -1.1243 C.3     
  34 C34            5.4002   -18.2622   -12.8078 C.3     
  35 C35           -4.5783    -1.1331     4.7552 C.3     
  36 C36            7.0232   -17.8348    -6.8486 C.3     
  37 C37           -3.5680     0.0027     7.2079 C.3     
  38 C38            7.6684   -18.9521    -4.2675 C.3     
  39 C39           -4.8199     0.5088     6.4866 C.3     
  40 C40            8.3634   -19.3580    -5.5697 C.3     
  41 C41           -6.2826    -2.2846    -1.3537 C.3     
  42 C42            4.9354   -16.8035   -12.8592 C.3     
  43 C43           -5.6680    -0.8757     2.6359 C.3     
  44 C44            6.7857   -18.0774    -9.2214 C.3     
  45 C45           -5.0848    -2.7616    -0.5282 C.3     
  46 C46            4.3457   -16.4158   -11.5006 C.3     
  47 C47           -4.9689     2.0138     6.7182 C.3     
  48 C48            8.7853   -20.8263    -5.4867 C.3     
  49 C49           -3.8449    -4.7379    -0.1108 C.2     
  50 C50            3.3261   -14.5627   -10.4312 C.2     
  51 C51           -3.6237    -6.1274    -0.2336 C.2     
  52 C52            2.9176   -13.2115   -10.3858 C.2     
  53 C53           -3.9890    -7.0516     0.8993 C.3     
  54 C54            3.1905   -12.3021   -11.5561 C.3     
  55 C55           -3.0801    -6.6323    -1.3764 C.2     
  56 C56            2.2769   -12.7301    -9.2839 C.2     
  57 C57           -2.8258    -5.7848    -2.4671 C.2     
  58 C58            1.8707   -11.3864    -9.2388 C.2     
  59 C59           -2.1836    -6.2672    -3.5714 C.2     
  60 C60            1.2285   -10.9040    -8.1345 C.2     
  61 C61           -1.9296    -5.4208    -4.6607 C.2     
  62 C62            0.8228    -9.5620    -8.0894 C.2     
  63 C63           -2.3654    -3.9790    -4.6123 C.3     
  64 C64            1.0957    -8.6526    -9.2597 C.3     
  65 C65           -1.2825    -5.9069    -5.7735 C.2     
  66 C66            0.1757    -9.0759    -6.9766 C.2     
  67 C67           -0.8770    -7.2483    -5.8186 C.2     
  68 C68           -0.2298    -7.7345    -6.9316 C.2     
  69 H69           -4.5643    -0.5398     0.8164 H       
  70 H70            4.9088   -18.6133   -10.1334 H       
  71 H71           -7.5761    -1.0322     0.7202 H       
  72 H72            7.2898   -17.8132   -11.8692 H       
  73 H73           -2.4380    -1.1959     5.0110 H       
  74 H74            5.3875   -17.9845    -5.4514 H       
  75 H75           -4.2412    -2.0438     7.3259 H       
  76 H76            8.0574   -16.8430    -4.5038 H       
  77 H77           -5.6121    -0.2377    -1.4806 H       
  78 H78            4.5438   -18.9131   -12.6318 H       
  79 H79           -5.4527    -1.6710     5.1214 H       
  80 H80            7.8867   -17.1914    -7.0169 H       
  81 H81           -2.6945     0.5473     6.8491 H       
  82 H82            6.8105   -19.6016    -4.0936 H       
  83 H83           -5.6973    -0.0077     6.8757 H       
  84 H84            9.2446   -18.7345    -5.7211 H       
  85 H85           -7.1775    -2.8247    -1.0444 H       
  86 H86            5.7842   -16.1585   -13.0863 H       
  87 H87           -6.5123    -1.4795     2.9686 H       
  88 H88           -5.8706     0.1758     2.8397 H       
  89 H89            7.5984   -17.3732    -9.3998 H       
  90 H90            7.1849   -19.0909    -9.1829 H       
  91 H91           -4.1835    -2.2504    -0.8665 H       
  92 H92            3.4723   -17.0342   -11.2937 H       
  93 H93           -4.1347     2.5376     6.2515 H       
  94 H94           -4.9729     2.2180     7.7889 H       
  95 H95            7.8980   -21.4563    -5.4240 H       
  96 H96            9.4017   -20.9777    -4.6006 H       
  97 H97           -7.5408     1.2888     0.1567 H       
  98 H98            7.2139   -20.1494   -12.3617 H       
  99 H99           -3.1742    -3.3120     4.1828 H       
 100 H100           5.2993   -15.8448    -6.5095 H       
 101 H101          -2.0081    -2.8957     7.3844 H       
 102 H102           6.1466   -16.2279    -3.2052 H       
 103 H103          -7.5956    -0.4763    -2.7900 H       
 104 H104           5.4350   -18.5307   -14.8148 H       
 105 H105          -2.9563    -0.0969     9.1359 H       
 106 H106           8.2137   -18.8253    -2.3213 H       
 107 H107          -5.8958    -3.4584    -2.9580 H       
 108 H108           3.5983   -15.7545   -13.9605 H       
 109 H109          -6.3574     3.4123     6.2519 H       
 110 H110           9.8352   -22.0923    -6.6684 H       
 111 H111          -5.0180    -7.3891     0.7755 H       
 112 H112          -3.3211    -7.9130     0.8952 H       
 113 H113          -3.8920    -6.5212     1.8466 H       
 114 H114           2.3517   -12.3425   -12.2510 H       
 115 H115           3.3184   -11.2799   -11.1999 H       
 116 H116           4.0989   -12.6262   -12.0640 H       
 117 H117          -2.8447    -7.6842    -1.4436 H       
 118 H118           2.0813   -13.3818    -8.4452 H       
 119 H119          -3.1381    -4.7515    -2.4324 H       
 120 H120           2.0662   -10.7347   -10.0775 H       
 121 H121          -1.8712    -7.3004    -3.6061 H       
 122 H122           1.0329   -11.5557    -7.2958 H       
 123 H123          -1.5659    -3.3717    -4.1880 H       
 124 H124          -2.5882    -3.6326    -5.6215 H       
 125 H125          -3.2575    -3.8897    -3.9924 H       
 126 H126           0.2568    -8.6930    -9.9545 H       
 127 H127           1.2236    -7.6304    -8.9035 H       
 128 H128           2.0041    -8.9767    -9.7676 H       
 129 H129          -1.0869    -5.2552    -6.6122 H       
 130 H130          -0.0198    -9.7276    -6.1379 H       
 131 H131          -1.0726    -7.9000    -4.9799 H       
 132 H132          -0.0342    -7.0828    -7.7703 H       
@<TRIPOS>BOND
   1    1   35 1
   2    1   39 1
   3    2   36 1
   4    2   40 1
   5    3   25 1
   6    3   45 1
   7    4   26 1
   8    4   46 1
   9    5   43 1
  10    5   35 1
  11    6   44 1
  12    6   36 1
  13    7   97 1
  14    7   27 1
  15    8   98 1
  16    8   28 1
  17    9   99 1
  18    9   29 1
  19   10  100 1
  20   10   30 1
  21   11  101 1
  22   11   31 1
  23   12  102 1
  24   12   32 1
  25   13  103 1
  26   13   33 1
  27   14  104 1
  28   14   34 1
  29   15  105 1
  30   15   37 1
  31   16  106 1
  32   16   38 1
  33   17  107 1
  34   17   41 1
  35   18  108 1
  36   18   42 1
  37   19   49 1
  38   19   45 1
  39   20   50 1
  40   20   46 1
  41   21   47 1
  42   21  109 1
  43   22   48 1
  44   22  110 1
  45   23   49 2
  46   24   50 2
  47   25   27 1
  48   25   43 1
  49   25   69 1
  50   26   28 1
  51   26   44 1
  52   26   70 1
  53   27   33 1
  54   27   71 1
  55   28   34 1
  56   28   72 1
  57   29   31 1
  58   29   73 1
  59   29   35 1
  60   30   32 1
  61   30   74 1
  62   30   36 1
  63   31   37 1
  64   31   75 1
  65   32   38 1
  66   32   76 1
  67   33   41 1
  68   33   77 1
  69   34   42 1
  70   34   78 1
  71   35   79 1
  72   36   80 1
  73   37   39 1
  74   37   81 1
  75   38   40 1
  76   38   82 1
  77   39   47 1
  78   39   83 1
  79   40   48 1
  80   40   84 1
  81   41   45 1
  82   41   85 1
  83   42   46 1
  84   42   86 1
  85   43   87 1
  86   43   88 1
  87   44   89 1
  88   44   90 1
  89   45   91 1
  90   46   92 1
  91   47   93 1
  92   47   94 1
  93   48   95 1
  94   48   96 1
  95   49   51 1
  96   50   52 1
  97   51   53 1
  98   51   55 2
  99   52   54 1
 100   52   56 2
 101   53  111 1
 102   53  112 1
 103   53  113 1
 104   54  114 1
 105   54  115 1
 106   54  116 1
 107   55   57 1
 108   55  117 1
 109   56   58 1
 110   56  118 1
 111   57   59 2
 112   57  119 1
 113   58   60 2
 114   58  120 1
 115   59   61 1
 116   59  121 1
 117   60   62 1
 118   60  122 1
 119   61   63 1
 120   61   65 2
 121   62   64 1
 122   62   66 2
 123   63  123 1
 124   63  124 1
 125   63  125 1
 126   64  126 1
 127   64  127 1
 128   64  128 1
 129   65   67 1
 130   65  129 1
 131   66   68 1
 132   66  130 1
 133   67   68 2
 134   67  131 1
 135   68  132 1

#	End of record

