#	Name: ASD11920053
#	Creating user name:	WinNT
#	Creation time:	15. 06. 2019 21:29

#	Modifying user name:	WinNT
#	Modification time:	15. 06. 2019 21:29

#	Program:	/corina/corina34_cracker 3.40 0067  02.08.2006

@<TRIPOS>MOLECULE
ASD11920053
  65   68    0    0    0
SMALL
NO_CHARGES


@<TRIPOS>ATOM
   1 C1            -0.0173     1.4248     0.0099 C.3     
   2 C2            -0.6781    -0.4171     5.1911 C.3     
   3 C3            -1.1676    -0.5948    -2.4959 C.3     
   4 C4            -1.0164   -10.2077     2.3000 C.3     
   5 C5            -7.4037    -0.6652     3.9143 C.3     
   6 C6            -9.9296    -0.6396    -1.7151 C.3     
   7 C7            -5.0745    -3.8592    -0.4807 C.2     
   8 C8            -3.0431    -1.5957    -1.1841 C.ar    
   9 C9            -6.2302    -1.6313     1.9305 C.ar    
  10 C10           -3.0414    -1.6189     1.2296 C.ar    
  11 C11           -7.2306    -1.6138    -0.2664 C.ar    
  12 C12           -3.8579    -4.5499    -1.0410 C.3     
  13 C13           -3.6713    -5.8992    -0.3443 C.3     
  14 C14           -2.4362    -6.6005    -0.9131 C.3     
  15 C15           -1.1450    -0.6343     2.5036 C.2     
  16 C16           -4.9705    -2.6223     0.0203 C.2     
  17 C17           -1.8238    -0.9535    -1.1875 C.ar    
  18 C18           -1.6457    -9.4707     1.1459 C.2     
  19 N19           -2.3929    -9.9912     0.2143 N.2     
  20 N20           -2.7558    -9.0694    -0.6067 N.2     
  21 O21           -0.0687    -0.0678     2.4996 O.2     
  22 O22          -11.3746     0.5125     0.5484 O.2     
  23 O23            0.0021    -0.0041     0.0020 O.3     
  24 O24           -1.5438    -8.1552     0.8922 O.3     
  25 O25           -9.5938    -0.0618     1.8380 O.3     
  26 S26           -1.9135    -1.0550     4.0323 S.3     
  27 C27           -7.3414    -0.9991     2.4461 C.ar    
  28 C28           -3.6583    -1.9317     0.0239 C.ar    
  29 C29           -6.1675    -1.9427     0.5716 C.ar    
  30 C30           -2.2525    -7.9295    -0.2268 C.2     
  31 C31           -1.8072    -0.9693     1.2281 C.ar    
  32 C32           -1.1979    -0.6362     0.0101 C.ar    
  33 C33          -10.2711     0.0195     0.6821 C.2     
  34 C34           -8.3443    -0.9792     0.2551 C.ar    
  35 C35           -8.4028    -0.6701     1.6150 C.ar    
  36 N36           -9.5399    -0.5310    -0.3070 N.am    
  37 H37            1.0053     1.8021     0.0021 H       
  38 H38           -0.5445     1.7859    -0.8732 H       
  39 H39           -0.5275     1.7763     0.9067 H       
  40 H40           -1.0089    -0.6020     6.2131 H       
  41 H41            0.2738    -0.9200     5.0207 H       
  42 H42           -0.5551     0.6550     5.0374 H       
  43 H43           -1.4883     0.4009    -2.8023 H       
  44 H44           -0.0845    -0.6062    -2.3743 H       
  45 H45           -1.4554    -1.3196    -3.2574 H       
  46 H46           -0.0286   -10.5643     2.0081 H       
  47 H47           -0.9226    -9.5352     3.1527 H       
  48 H48           -1.6429   -11.0566     2.5740 H       
  49 H49           -6.9870     0.3285     4.0790 H       
  50 H50           -8.4414    -0.6838     4.2474 H       
  51 H51           -6.8278    -1.3988     4.4785 H       
  52 H52          -10.9180    -0.2015    -1.8533 H       
  53 H53           -9.2068    -0.1082    -2.3342 H       
  54 H54           -9.9538    -1.6900    -2.0053 H       
  55 H55           -6.0302    -4.3621    -0.4834 H       
  56 H56           -3.5269    -1.8361    -2.1192 H       
  57 H57           -5.4041    -1.8824     2.5792 H       
  58 H58           -3.5163    -1.8779     2.1643 H       
  59 H59           -7.1857    -1.8528    -1.3186 H       
  60 H60           -3.9910    -4.7089    -2.1111 H       
  61 H61           -2.9779    -3.9292    -0.8726 H       
  62 H62           -3.5383    -5.7402     0.7258 H       
  63 H63           -4.5514    -6.5199    -0.5127 H       
  64 H64           -2.5693    -6.7595    -1.9832 H       
  65 H65           -1.5562    -5.9798    -0.7447 H       
@<TRIPOS>BOND
   1    1   23 1
   2    1   37 1
   3    1   38 1
   4    1   39 1
   5    2   26 1
   6    2   40 1
   7    2   41 1
   8    2   42 1
   9    3   17 1
  10    3   43 1
  11    3   44 1
  12    3   45 1
  13    4   18 1
  14    4   46 1
  15    4   47 1
  16    4   48 1
  17    5   27 1
  18    5   49 1
  19    5   50 1
  20    5   51 1
  21    6   36 1
  22    6   52 1
  23    6   53 1
  24    6   54 1
  25    7   12 1
  26    7   16 2
  27    7   55 1
  28    8   17 ar
  29    8   28 ar
  30    8   56 1
  31    9   27 ar
  32    9   29 ar
  33    9   57 1
  34   10   28 ar
  35   10   31 ar
  36   10   58 1
  37   11   29 ar
  38   11   34 ar
  39   11   59 1
  40   12   13 1
  41   12   60 1
  42   12   61 1
  43   13   14 1
  44   13   62 1
  45   13   63 1
  46   14   30 1
  47   14   64 1
  48   14   65 1
  49   15   21 2
  50   15   26 1
  51   15   31 1
  52   16   28 1
  53   16   29 1
  54   17   32 ar
  55   18   19 2
  56   18   24 1
  57   19   20 1
  58   20   30 2
  59   22   33 2
  60   23   32 1
  61   24   30 1
  62   25   33 1
  63   25   35 1
  64   27   35 ar
  65   31   32 ar
  66   33   36 am
  67   34   35 ar
  68   34   36 1

#	End of record

