#	Name: ASD10220178
#	Creating user name:	WinNT
#	Creation time:	15. 06. 2019 21:26

#	Modifying user name:	WinNT
#	Modification time:	15. 06. 2019 21:26

#	Program:	/corina/corina34_cracker 3.40 0067  02.08.2006

@<TRIPOS>MOLECULE
ASD10220178
  36   38    0    0    0
SMALL
NO_CHARGES


@<TRIPOS>ATOM
   1 C1             0.2645     3.4650    -0.3608 C.ar    
   2 C2             0.6358     4.6778    -0.9334 C.ar    
   3 C3            -0.3209     5.6012    -1.3037 C.ar    
   4 C4            -1.6688     5.3237    -1.1057 C.ar    
   5 C5            -2.0413     4.1013    -0.5287 C.ar    
   6 C6            -1.0728     3.1726    -0.1625 C.ar    
   7 O7            -2.7989     6.0168    -1.3618 O.3     
   8 C8            -3.8858     5.3307    -0.9914 C.2     
   9 C9            -3.5166     4.1299    -0.4636 C.2     
  10 C10           -4.4023     3.0814     0.0619 C.2     
  11 O11           -3.9395     2.0092     0.4043 O.2     
  12 C12           -5.8533     3.3288     0.1743 C.ar    
  13 C13           -6.7549     2.2669     0.0672 C.ar    
  14 C14           -8.1092     2.4996     0.1724 C.ar    
  15 C15           -8.5809     3.7877     0.3853 C.ar    
  16 C16           -7.6864     4.8522     0.4936 C.ar    
  17 C17           -6.3280     4.6253     0.3939 C.ar    
  18 O18            1.2173     2.5640    -0.0011 O.3     
  19 Cl19           2.3167     5.0325    -1.1836 Cl      
  20 Cl20           0.1590     7.1097    -2.0162 Cl      
  21 O21           -8.1518     6.1130     0.7016 O.3     
  22 C22           -7.1793     7.1551     0.8026 C.3     
  23 O23           -9.9164     4.0118     0.4878 O.3     
  24 C24          -10.7759     2.8766     0.3668 C.3     
  25 H25           -1.3629     2.2318     0.2814 H       
  26 H26           -4.9036     5.6766    -1.0952 H       
  27 H27           -6.3906     1.2638    -0.0983 H       
  28 H28           -8.8051     1.6780     0.0888 H       
  29 H29           -5.6342     5.4487     0.4776 H       
  30 H30            1.5358     2.6693     0.9059 H       
  31 H31           -6.5105     6.9482     1.6380 H       
  32 H32           -6.6025     7.2045    -0.1210 H       
  33 H33           -7.6831     8.1075     0.9676 H       
  34 H34          -10.5388     2.1563     1.1499 H       
  35 H35          -11.8137     3.1943     0.4675 H       
  36 H36          -10.6307     2.4133    -0.6091 H       
@<TRIPOS>BOND
   1    1    2 ar
   2    1   18 1
   3    1    6 ar
   4    2    3 ar
   5    2   19 1
   6    3    4 ar
   7    3   20 1
   8    4    5 ar
   9    4    7 1
  10    5    6 ar
  11    5    9 1
  12    6   25 1
  13    7    8 1
  14    8    9 2
  15    8   26 1
  16    9   10 1
  17   10   11 2
  18   10   12 1
  19   12   13 ar
  20   12   17 ar
  21   13   14 ar
  22   13   27 1
  23   14   15 ar
  24   14   28 1
  25   15   16 ar
  26   15   23 1
  27   16   17 ar
  28   16   21 1
  29   17   29 1
  30   18   30 1
  31   21   22 1
  32   22   31 1
  33   22   32 1
  34   22   33 1
  35   23   24 1
  36   24   34 1
  37   24   35 1
  38   24   36 1

#	End of record

