#	Name: ASD10610169
#	Creating user name:	WinNT
#	Creation time:	15. 06. 2019 21:28

#	Modifying user name:	WinNT
#	Modification time:	15. 06. 2019 21:28

#	Program:	/corina/corina34_cracker 3.40 0067  02.08.2006

@<TRIPOS>MOLECULE
ASD10610169
  38   40    0    0    0
SMALL
NO_CHARGES


@<TRIPOS>ATOM
   1 N1            -0.0178     1.4648     0.0101 N.3     
   2 C2             0.0021    -0.0041     0.0020 C.3     
   3 C3             0.7421    -0.5109     1.2415 C.3     
   4 C4             2.0037    -1.3826    -3.5176 C.ar    
   5 C5             1.0682    -2.1976    -2.8823 C.ar    
   6 C6             0.4240    -1.7480    -1.7452 C.ar    
   7 C7             0.7074    -0.4901    -1.2379 C.ar    
   8 C8             1.6349     0.3210    -1.8655 C.ar    
   9 C9             2.2839    -0.1183    -3.0017 C.ar    
  10 C10            2.7028    -1.8612    -4.7342 C.ar    
  11 C11            2.7535    -1.0543    -5.8823 C.ar    
  12 C12            3.4139    -1.5156    -7.0204 C.ar    
  13 C13            4.0140    -2.7616    -7.0131 C.ar    
  14 C14            3.9629    -3.5558    -5.8799 C.ar    
  15 C15            3.3168    -3.1098    -4.7422 C.ar    
  16 O16            1.0540     1.9270    -5.2148 O.3     
  17 N17            1.4598     0.8309    -4.8906 N.2     
  18 C18            2.1083     0.2798    -5.8845 C.2     
  19 N19            2.0798     1.1565    -6.9144 N.2     
  20 C20            1.4098     2.1928    -6.4756 C.2     
  21 C21            1.0984     3.4491    -7.2474 C.3     
  22 F22            3.4673    -0.7461    -8.1295 F       
  23 F23           -0.4832    -2.5360    -1.1276 F       
  24 Cl24           4.7207    -5.1176    -5.8858 Cl      
  25 H25            0.9191     1.8392     0.0032 H       
  26 H26           -0.5563     1.8234    -0.7642 H       
  27 H27           -1.0205    -0.3814     0.0098 H       
  28 H28            0.2319    -0.1594     2.1383 H       
  29 H29            0.7568    -1.6008     1.2356 H       
  30 H30            1.7647    -0.1336     1.2338 H       
  31 H31            0.8470    -3.1779    -3.2780 H       
  32 H32            1.8517     1.3007    -1.4660 H       
  33 H33            3.0083     0.5166    -3.4903 H       
  34 H34            4.5247    -3.1171    -7.8958 H       
  35 H35            3.2850    -3.7325    -3.8604 H       
  36 H36            0.5271     4.1305    -6.6171 H       
  37 H37            2.0288     3.9290    -7.5511 H       
  38 H38            0.5142     3.1966    -8.1323 H       
@<TRIPOS>BOND
   1    1    2 1
   2    1   25 1
   3    1   26 1
   4    2    3 1
   5    2    7 1
   6    2   27 1
   7    3   28 1
   8    3   29 1
   9    3   30 1
  10    4    5 ar
  11    4    9 ar
  12    4   10 1
  13    5    6 ar
  14    5   31 1
  15    6    7 ar
  16    6   23 1
  17    7    8 ar
  18    8    9 ar
  19    8   32 1
  20    9   33 1
  21   10   11 ar
  22   10   15 ar
  23   11   12 ar
  24   11   18 1
  25   12   13 ar
  26   12   22 1
  27   13   14 ar
  28   13   34 1
  29   14   15 ar
  30   14   24 1
  31   15   35 1
  32   16   17 1
  33   16   20 1
  34   17   18 2
  35   18   19 1
  36   19   20 2
  37   20   21 1
  38   21   36 1
  39   21   37 1
  40   21   38 1

#	End of record

