#	Name: ASD11000326
#	Creating user name:	WinNT
#	Creation time:	15. 06. 2019 21:29

#	Modifying user name:	WinNT
#	Modification time:	15. 06. 2019 21:29

#	Program:	/corina/corina34_cracker 3.40 0067  02.08.2006

@<TRIPOS>MOLECULE
ASD11000326
  30   31    0    0    0
SMALL
NO_CHARGES


@<TRIPOS>ATOM
   1 C1            -0.0910     1.5210     0.5960 C.ar    
   2 C2             1.1136     2.2270     0.5759 C.ar    
   3 C3             2.2187     1.6431     1.1668 C.ar    
   4 C4             2.0608     0.3785     1.7493 C.ar    
   5 N5             0.8749    -0.2173     1.7199 N.ar    
   6 N6            -0.1489     0.3278     1.1704 N.ar    
   7 N7            -1.2296     2.0714     0.0191 N.pl3   
   8 C8             3.2102    -0.2895     2.3933 C.2     
   9 C9             3.0583    -1.4865     2.9440 C.2     
  10 C10           -2.4036     1.3147    -0.0721 C.ar    
  11 C11           -3.6408     1.9345     0.0463 C.ar    
  12 C12           -4.7985     1.1872    -0.0443 C.ar    
  13 C13           -4.7260    -0.1822    -0.2530 C.ar    
  14 C14           -3.4908    -0.8021    -0.3714 C.ar    
  15 C15           -2.3321    -0.0555    -0.2868 C.ar    
  16 O16           -5.8666    -0.9175    -0.3412 O.3     
  17 C17           -5.7178    -2.3223    -0.5569 C.3     
  18 F18           -5.0363    -2.5399    -1.7592 F       
  19 F19           -4.9906    -2.8818     0.4992 F       
  20 H20            1.1801     3.2002     0.1123 H       
  21 H21            3.1744     2.1461     1.1788 H       
  22 H22           -1.2107     2.9800    -0.3202 H       
  23 H23            4.1743     0.1968     2.4158 H       
  24 H24            2.0942    -1.9728     2.9215 H       
  25 H25            3.8986    -1.9749     3.4148 H       
  26 H26           -3.6974     3.0006     0.2096 H       
  27 H27           -5.7607     1.6690     0.0478 H       
  28 H28           -3.4352    -1.8684    -0.5340 H       
  29 H29           -1.3706    -0.5377    -0.3835 H       
  30 H30           -6.7018    -2.7883    -0.6075 H       
@<TRIPOS>BOND
   1    1    2 ar
   2    1    6 ar
   3    1    7 1
   4    2    3 ar
   5    2   20 1
   6    3    4 ar
   7    3   21 1
   8    4    5 ar
   9    4    8 1
  10    5    6 ar
  11    7   10 1
  12    7   22 1
  13    8    9 2
  14    8   23 1
  15    9   24 1
  16    9   25 1
  17   10   11 ar
  18   10   15 ar
  19   11   12 ar
  20   11   26 1
  21   12   13 ar
  22   12   27 1
  23   13   14 ar
  24   13   16 1
  25   14   15 ar
  26   14   28 1
  27   15   29 1
  28   16   17 1
  29   17   18 1
  30   17   19 1
  31   17   30 1

#	End of record

