#	Name: ASD13490044
#	Creating user name:	WinNT
#	Creation time:	15. 06. 2019 21:30

#	Modifying user name:	WinNT
#	Modification time:	15. 06. 2019 21:30

#	Program:	/corina/corina34_cracker 3.40 0067  02.08.2006

@<TRIPOS>MOLECULE
ASD13490044
  55   59    0    0    0
SMALL
NO_CHARGES


@<TRIPOS>ATOM
   1 C1            -0.0166     1.3753     0.0096 C.ar    
   2 C2             0.0021    -0.0041     0.0020 C.ar    
   3 C3             1.2150    -0.6855    -0.0133 C.ar    
   4 C4             2.3793     0.0403    -0.0182 C.ar    
   5 C5             2.3572     1.4470    -0.0071 C.ar    
   6 C6             1.1596     2.1387     0.0025 C.ar    
   7 N7            -1.2001    -0.7186     0.0102 N.pl3   
   8 C8            -2.4530    -0.1922     0.0250 C.2     
   9 N9            -3.3150    -1.1718     0.0286 N.2     
  10 C10           -2.6588    -2.3419     0.0163 C.2     
  11 C11           -1.3377    -2.0833    -0.0013 C.2     
  12 C12           -3.2914    -3.7097     0.0157 C.3     
  13 C13            0.8622     3.6228     0.0018 C.3     
  14 C14            3.6817     2.1039     0.0013 C.2     
  15 C15            2.0394     4.5094    -0.3368 C.3     
  16 C16            3.8971     3.2928     0.8431 C.2     
  17 C17            3.1407     4.3816     0.6782 C.2     
  18 N18            3.5598     5.2975     1.5793 N.pl3   
  19 N19            4.7840     3.5170     1.8322 N.2     
  20 C20            4.5830     4.7294     2.2802 C.2     
  21 C21            5.3560     5.3910     3.3919 C.3     
  22 C22            4.6837     5.1057     4.7101 C.ar    
  23 C23            3.0886     5.7011     6.3937 C.ar    
  24 C24            3.7064     5.9604     5.1856 C.ar    
  25 C25            5.0412     3.9867     5.4393 C.ar    
  26 C26            4.4261     3.7227     6.6477 C.ar    
  27 C27            3.4492     4.5818     7.1297 C.ar    
  28 O28            4.5875     1.6651    -0.6821 O.2     
  29 C29            3.0181     6.6456     1.7674 C.3     
  30 O30            2.8429     4.3245     8.3185 O.3     
  31 C31            3.2645     3.1543     9.0219 C.3     
  32 H32           -0.9691     1.8843     0.0168 H       
  33 H33            1.2396    -1.7652    -0.0208 H       
  34 H34            3.3276    -0.4763    -0.0304 H       
  35 H35           -2.6947     0.8604     0.0330 H       
  36 H36           -0.5396    -2.8106    -0.0189 H       
  37 H37           -3.4535    -4.0345    -1.0121 H       
  38 H38           -2.6314    -4.4155     0.5199 H       
  39 H39           -4.2469    -3.6683     0.5387 H       
  40 H40            0.0688     3.8141    -0.7207 H       
  41 H41            0.4958     3.9004     0.9901 H       
  42 H42            2.4251     4.2294    -1.3171 H       
  43 H43            1.7055     5.5464    -0.3704 H       
  44 H44            6.3730     4.9992     3.4104 H       
  45 H45            5.3844     6.4676     3.2240 H       
  46 H46            2.3255     6.3692     6.7649 H       
  47 H47            3.4260     6.8317     4.6122 H       
  48 H48            5.8017     3.3182     5.0636 H       
  49 H49            4.7052     2.8481     7.2166 H       
  50 H50            2.2108     6.6139     2.4991 H       
  51 H51            3.8068     7.3074     2.1251 H       
  52 H52            2.6336     7.0184     0.8181 H       
  53 H53            4.3286     3.2287     9.2460 H       
  54 H54            2.7026     3.0672     9.9519 H       
  55 H55            3.0838     2.2744     8.4045 H       
@<TRIPOS>BOND
   1    1    2 ar
   2    1    6 ar
   3    1   32 1
   4    2    3 ar
   5    2    7 1
   6    3    4 ar
   7    3   33 1
   8    4    5 ar
   9    4   34 1
  10    5    6 ar
  11    5   14 1
  12    6   13 1
  13    7    8 1
  14    7   11 1
  15    8    9 2
  16    8   35 1
  17    9   10 1
  18   10   11 2
  19   10   12 1
  20   11   36 1
  21   12   37 1
  22   12   38 1
  23   12   39 1
  24   13   15 1
  25   13   40 1
  26   13   41 1
  27   14   16 1
  28   14   28 2
  29   15   17 1
  30   15   42 1
  31   15   43 1
  32   16   19 1
  33   16   17 2
  34   17   18 1
  35   18   20 1
  36   18   29 1
  37   19   20 2
  38   20   21 1
  39   21   22 1
  40   21   44 1
  41   21   45 1
  42   22   25 ar
  43   22   24 ar
  44   23   24 ar
  45   23   27 ar
  46   23   46 1
  47   24   47 1
  48   25   26 ar
  49   25   48 1
  50   26   27 ar
  51   26   49 1
  52   27   30 1
  53   29   50 1
  54   29   51 1
  55   29   52 1
  56   30   31 1
  57   31   53 1
  58   31   54 1
  59   31   55 1

#	End of record

