#	Name: ASD11000098
#	Creating user name:	WinNT
#	Creation time:	15. 06. 2019 21:28

#	Modifying user name:	WinNT
#	Modification time:	15. 06. 2019 21:28

#	Program:	/corina/corina34_cracker 3.40 0067  02.08.2006

@<TRIPOS>MOLECULE
ASD11000098
  69   73    0    0    0
SMALL
NO_CHARGES


@<TRIPOS>ATOM
   1 C1             0.0965     1.2853     0.1372 C.3     
   2 C2            -0.4347    -0.1192    -0.1564 C.3     
   3 N3             0.0185    -0.5444    -1.4850 N.am    
   4 C4             0.0800    -1.0788     0.8873 C.ar    
   5 C5             0.6520    -2.2878     0.5581 C.ar    
   6 C6            -0.0399    -0.7082     2.2200 C.ar    
   7 C7             1.0934    -3.1365     1.5664 C.ar    
   8 C8             0.9730    -2.7738     2.8950 C.ar    
   9 C9             0.4040    -1.5476     3.2255 C.ar    
  10 C10           -0.0867    -1.9769    -1.8083 C.3     
  11 C11            0.8420    -2.7406    -0.8658 C.3     
  12 O12            1.4083    -3.6112     3.8741 O.3     
  13 C13            1.9812    -4.8527     3.4586 C.3     
  14 C14            0.5110     0.3406    -2.3742 C.2     
  15 O15            0.4793     1.5306    -2.1285 O.2     
  16 C16            1.0899    -0.1360    -3.6484 C.ar    
  17 C17            1.6826    -1.3973    -3.7203 C.ar    
  18 C18            1.0407     0.6715    -4.7859 C.ar    
  19 C19            1.5832     0.2203    -5.9725 C.ar    
  20 C20            2.1749    -1.0303    -6.0350 C.ar    
  21 C21            2.2213    -1.8368    -4.9123 C.ar    
  22 O22            1.5249     1.2715     0.1012 O.3     
  23 C23            2.1600     2.4494     0.3431 C.ar    
  24 C24            3.5456     2.5069     0.3237 C.ar    
  25 C25            1.4219     3.5944     0.6037 C.ar    
  26 C26            2.0670     4.7909     0.8495 C.ar    
  27 C27            3.4528     4.8471     0.8361 C.ar    
  28 C28            4.1907     3.7034     0.5695 C.ar    
  29 O29            4.0878     6.0252     1.0771 O.3     
  30 C30            5.5164     6.0100     1.0476 C.3     
  31 O31            0.2850    -1.1773     4.5286 O.3     
  32 C32           -0.3093     0.0958     4.7896 C.3     
  33 Cl33           1.5230     1.2221    -7.3890 Cl      
  34 C34            6.0395     7.3938     1.3348 C.ar    
  35 C35            6.3009     7.7774     2.6369 C.ar    
  36 C36            6.2633     8.2776     0.2958 C.ar    
  37 C37            6.7431     9.5469     0.5593 C.ar    
  38 C38            6.9988     9.9326     1.8619 C.ar    
  39 C39            6.7807     9.0467     2.9004 C.ar    
  40 H40           -0.2792     1.9802    -0.6138 H       
  41 H41           -0.2391     1.6015     1.1249 H       
  42 H42           -1.5243    -0.1074    -0.1315 H       
  43 H43           -0.4832     0.2435     2.4735 H       
  44 H44            1.5342    -4.0883     1.3095 H       
  45 H45           -1.1139    -2.3126    -1.6659 H       
  46 H46            0.2170    -2.1450    -2.8416 H       
  47 H47            1.8762    -2.5660    -1.1625 H       
  48 H48            0.6252    -3.8066    -0.9349 H       
  49 H49            2.2862    -5.4237     4.3356 H       
  50 H50            1.2436    -5.4220     2.8929 H       
  51 H51            2.8508    -4.6594     2.8304 H       
  52 H52            1.7200    -2.0282    -2.8446 H       
  53 H53            0.5791     1.6467    -4.7380 H       
  54 H54            2.5980    -1.3791    -6.9655 H       
  55 H55            2.6845    -2.8108    -4.9675 H       
  56 H56            4.1202     1.6162     0.1167 H       
  57 H57            0.3429     3.5506     0.6142 H       
  58 H58            1.4923     5.6826     1.0517 H       
  59 H59            5.2698     3.7471     0.5594 H       
  60 H60            5.8881     5.3171     1.8025 H       
  61 H61            5.8561     5.6904     0.0624 H       
  62 H62            0.2842     0.8778     4.3160 H       
  63 H63           -1.3218     0.1137     4.3864 H       
  64 H64           -0.3436     0.2671     5.8655 H       
  65 H65            6.1300     7.0855     3.4484 H       
  66 H66            6.0635     7.9763    -0.7219 H       
  67 H67            6.9186    10.2372    -0.2526 H       
  68 H68            7.3740    10.9242     2.0677 H       
  69 H69            6.9805     9.3480     3.9181 H       
@<TRIPOS>BOND
   1    1    2 1
   2    1   22 1
   3    1   40 1
   4    1   41 1
   5    2    3 1
   6    2    4 1
   7    2   42 1
   8    3   10 1
   9    3   14 am
  10    4    5 ar
  11    4    6 ar
  12    5    7 ar
  13    5   11 1
  14    6    9 ar
  15    6   43 1
  16    7    8 ar
  17    7   44 1
  18    8    9 ar
  19    8   12 1
  20    9   31 1
  21   10   11 1
  22   10   45 1
  23   10   46 1
  24   11   47 1
  25   11   48 1
  26   12   13 1
  27   13   49 1
  28   13   50 1
  29   13   51 1
  30   14   15 2
  31   14   16 1
  32   16   18 ar
  33   16   17 ar
  34   17   21 ar
  35   17   52 1
  36   18   19 ar
  37   18   53 1
  38   19   20 ar
  39   19   33 1
  40   20   21 ar
  41   20   54 1
  42   21   55 1
  43   22   23 1
  44   23   24 ar
  45   23   25 ar
  46   24   28 ar
  47   24   56 1
  48   25   26 ar
  49   25   57 1
  50   26   27 ar
  51   26   58 1
  52   27   28 ar
  53   27   29 1
  54   28   59 1
  55   29   30 1
  56   30   34 1
  57   30   60 1
  58   30   61 1
  59   31   32 1
  60   32   62 1
  61   32   63 1
  62   32   64 1
  63   34   35 ar
  64   34   36 ar
  65   35   39 ar
  66   35   65 1
  67   36   37 ar
  68   36   66 1
  69   37   38 ar
  70   37   67 1
  71   38   39 ar
  72   38   68 1
  73   39   69 1

#	End of record

