#	Name: ASD11920012
#	Creating user name:	WinNT
#	Creation time:	15. 06. 2019 21:29

#	Modifying user name:	WinNT
#	Modification time:	15. 06. 2019 21:29

#	Program:	/corina/corina34_cracker 3.40 0067  02.08.2006

@<TRIPOS>MOLECULE
ASD11920012
  33   35    0    0    0
SMALL
NO_CHARGES


@<TRIPOS>ATOM
   1 C1            -0.0167     1.3798     0.0096 C.ar    
   2 C2             0.0021    -0.0041     0.0020 C.ar    
   3 C3             1.2110    -0.6796    -0.0132 C.ar    
   4 C4             2.3982     0.0275    -0.0202 C.ar    
   5 C5             2.3807     1.4097    -0.0126 C.ar    
   6 C6             1.1733     2.0872     0.0021 C.ar    
   7 C7             3.6762     2.1795    -0.0199 C.3     
   8 C8             3.9698     2.6557    -1.4192 C.ar    
   9 C9             3.5016     3.8900    -1.8405 C.ar    
  10 C10            3.7710     4.3220    -3.1166 C.ar    
  11 C11            4.5141     3.5252    -3.9932 C.ar    
  12 C12            4.9824     2.2841    -3.5616 C.ar    
  13 C13            4.7107     1.8610    -2.2764 C.ar    
  14 C14            3.2803     5.6597    -3.6181 C.3     
  15 C15            3.6315     6.0401    -5.0401 C.2     
  16 N16            4.3531     5.1962    -5.7977 N.am    
  17 C17            4.7906     4.0081    -5.3581 C.2     
  18 O18            5.4376     3.3059    -6.1096 O.2     
  19 O19            4.6656     5.5808    -7.1242 O.3     
  20 O20            3.2631     7.1020    -5.4945 O.2     
  21 F21           -1.1584    -0.6957     0.0098 F       
  22 F22            1.1565     3.4380     0.0090 F       
  23 H23           -0.9590     1.9074     0.0170 H       
  24 H24            1.2259    -1.7595    -0.0191 H       
  25 H25            3.3405    -0.5001    -0.0313 H       
  26 H26            3.5923     3.0383     0.6461 H       
  27 H27            4.4849     1.5330     0.3210 H       
  28 H28            2.9268     4.5099    -1.1684 H       
  29 H29            5.5575     1.6591    -4.2287 H       
  30 H30            5.0721     0.9005    -1.9399 H       
  31 H31            2.1942     5.6733    -3.5267 H       
  32 H32            3.6773     6.4307    -2.9578 H       
  33 H33            5.1861     4.9271    -7.6109 H       
@<TRIPOS>BOND
   1    1    2 ar
   2    1    6 ar
   3    1   23 1
   4    2    3 ar
   5    2   21 1
   6    3    4 ar
   7    3   24 1
   8    4    5 ar
   9    4   25 1
  10    5    6 ar
  11    5    7 1
  12    6   22 1
  13    7    8 1
  14    7   26 1
  15    7   27 1
  16    8    9 ar
  17    8   13 ar
  18    9   10 ar
  19    9   28 1
  20   10   11 ar
  21   10   14 1
  22   11   12 ar
  23   11   17 1
  24   12   13 ar
  25   12   29 1
  26   13   30 1
  27   14   15 1
  28   14   31 1
  29   14   32 1
  30   15   16 am
  31   15   20 2
  32   16   17 am
  33   16   19 1
  34   17   18 2
  35   19   33 1

#	End of record

