#	Name: ASD10438010
#	Creating user name:	WinNT
#	Creation time:	15. 06. 2019 21:27

#	Modifying user name:	WinNT
#	Modification time:	15. 06. 2019 21:27

#	Program:	/corina/corina34_cracker 3.40 0067  02.08.2006

@<TRIPOS>MOLECULE
ASD10438010
  47   50    0    0    0
SMALL
NO_CHARGES


@<TRIPOS>ATOM
   1 C1            -0.0144     1.2121     0.0087 C.2     
   2 O2             0.1989     0.1307     0.5230 O.2     
   3 C3             1.1127     2.0474    -0.4468 C.ar    
   4 C4             2.3862     1.8648     0.1027 C.ar    
   5 C5             3.4291     2.6386    -0.3203 C.ar    
   6 C6             3.2245     3.6119    -1.3006 C.ar    
   7 C7             1.9537     3.7955    -1.8496 C.ar    
   8 C8             0.9104     3.0189    -1.4328 C.ar    
   9 C9             5.6036     4.3234    -1.2692 C.2     
  10 C10            4.3562     4.4505    -1.7580 C.2     
  11 C11            4.2202     5.4401    -2.7337 C.2     
  12 C12            5.3536     6.0831    -3.0068 C.2     
  13 S13            6.6549     5.4412    -2.0155 S.3     
  14 C14           -1.4008     1.6856    -0.1650 C.ar    
  15 C15           -2.4560     0.7687    -0.1975 C.ar    
  16 C16           -3.7482     1.2149    -0.3593 C.ar    
  17 C17           -4.0048     2.5751    -0.4903 C.ar    
  18 C18           -2.9586     3.4902    -0.4590 C.ar    
  19 C19           -1.6639     3.0531    -0.2918 C.ar    
  20 O20           -5.2801     3.0107    -0.6496 O.3     
  21 C21           -5.4727     4.4208    -0.7782 C.3     
  22 N22           -7.4403     4.1764    -2.2337 N.3     
  23 C23           -6.9638     4.7185    -0.9480 C.3     
  24 C24           -7.1942     6.2440    -0.9815 C.3     
  25 C25           -8.3064     6.4061    -2.0509 C.3     
  26 C26           -7.9298     5.2970    -3.0646 C.3     
  27 H27            2.5444     1.1126     0.8613 H       
  28 H28            4.4123     2.4979     0.1037 H       
  29 H29            1.7967     4.5491    -2.6071 H       
  30 H30           -0.0713     3.1578    -1.8610 H       
  31 H31            5.8973     3.6159    -0.5079 H       
  32 H32            3.2829     5.6628    -3.2219 H       
  33 H33            5.4577     6.8791    -3.7293 H       
  34 H34           -2.2575    -0.2880    -0.0962 H       
  35 H35           -4.5638     0.5074    -0.3849 H       
  36 H36           -3.1622     4.5459    -0.5618 H       
  37 H37           -0.8522     3.7650    -0.2631 H       
  38 H38           -5.1019     4.9212     0.1164 H       
  39 H39           -4.9282     4.7839    -1.6498 H       
  40 H40           -6.7071     3.6692    -2.7062 H       
  41 H41           -7.5283     4.2762    -0.1271 H       
  42 H42           -7.5370     6.6034    -0.0113 H       
  43 H43           -6.2865     6.7642    -1.2876 H       
  44 H44           -9.2912     6.2239    -1.6207 H       
  45 H45           -8.2610     7.3912    -2.5152 H       
  46 H46           -7.1428     5.6455    -3.7334 H       
  47 H47           -8.8065     4.9913    -3.6357 H       
@<TRIPOS>BOND
   1    1    2 2
   2    1    3 1
   3    1   14 1
   4    3    4 ar
   5    3    8 ar
   6    4    5 ar
   7    4   27 1
   8    5    6 ar
   9    5   28 1
  10    6    7 ar
  11    6   10 1
  12    7    8 ar
  13    7   29 1
  14    8   30 1
  15    9   10 2
  16    9   13 1
  17    9   31 1
  18   10   11 1
  19   11   12 2
  20   11   32 1
  21   12   13 1
  22   12   33 1
  23   14   15 ar
  24   14   19 ar
  25   15   16 ar
  26   15   34 1
  27   16   17 ar
  28   16   35 1
  29   17   18 ar
  30   17   20 1
  31   18   19 ar
  32   18   36 1
  33   19   37 1
  34   20   21 1
  35   21   23 1
  36   21   38 1
  37   21   39 1
  38   22   23 1
  39   22   26 1
  40   22   40 1
  41   23   24 1
  42   23   41 1
  43   24   25 1
  44   24   42 1
  45   24   43 1
  46   25   26 1
  47   25   44 1
  48   25   45 1
  49   26   46 1
  50   26   47 1

#	End of record

