#	Name: ASD13390019
#	Creating user name:	WinNT
#	Creation time:	15. 06. 2019 21:30

#	Modifying user name:	WinNT
#	Modification time:	15. 06. 2019 21:30

#	Program:	/corina/corina34_cracker 3.40 0067  02.08.2006

@<TRIPOS>MOLECULE
ASD13390019
  30   30    0    0    0
SMALL
NO_CHARGES


@<TRIPOS>ATOM
   1 C1            -0.0168     1.3831    -0.0004 C.ar    
   2 C2             0.0020    -0.0040    -0.0080 C.ar    
   3 C3             1.2102    -0.6950    -0.0132 C.ar    
   4 C4             2.4552     0.0729    -0.0103 C.ar    
   5 C5             2.3857     1.4875    -0.0025 C.ar    
   6 C6             1.1299     2.1176     0.0024 C.ar    
   7 C7             1.2346    -2.1621    -0.0208 C.2     
   8 N8             2.3717    -2.7962    -0.1337 N.2     
   9 N9             2.3931    -4.0859    -0.1404 N.2     
  10 C10            3.5406    -4.7258    -0.2543 C.2     
  11 N11            4.7109    -4.0201    -0.3656 N.pl3   
  12 N12            3.5634    -6.0967    -0.2614 N.pl3   
  13 C13            3.7040    -0.5584    -0.0146 C.ar    
  14 C14            4.8402     0.1953    -0.0113 C.ar    
  15 C15            4.7757     1.5866    -0.0033 C.ar    
  16 C16            3.5773     2.2330     0.0002 C.ar    
  17 H17           -0.9678     1.8950    -0.0011 H       
  18 H18           -0.9285    -0.5522    -0.0097 H       
  19 H19            1.0734     3.1961     0.0083 H       
  20 H20            0.3128    -2.7179     0.0668 H       
  21 H21            4.6948    -3.0502    -0.3605 H       
  22 H22            5.5549    -4.4907    -0.4493 H       
  23 H23            2.7354    -6.5959    -0.1827 H       
  24 H24            4.4074    -6.5673    -0.3452 H       
  25 H25            3.7675    -1.6365    -0.0202 H       
  26 H26            5.8034    -0.2932    -0.0147 H       
  27 H27            5.6900     2.1614    -0.0005 H       
  28 H28            3.5426     3.3124     0.0058 H       
  29 Cl29          10.8034     8.3124     5.0668 Cl      
  30 H30           10.8034     9.6824     5.0668 H       
@<TRIPOS>BOND
   1    1    2 ar
   2    1    6 ar
   3    1   17 1
   4    2    3 ar
   5    2   18 1
   6    3    4 ar
   7    3    7 1
   8    4    5 ar
   9    4   13 ar
  10    5    6 ar
  11    5   16 ar
  12    6   19 1
  13    7    8 2
  14    7   20 1
  15    8    9 1
  16    9   10 2
  17   10   11 1
  18   10   12 1
  19   11   21 1
  20   11   22 1
  21   12   23 1
  22   12   24 1
  23   13   14 ar
  24   13   25 1
  25   14   15 ar
  26   14   26 1
  27   15   16 ar
  28   15   27 1
  29   16   28 1
  30   29   30 1

#	End of record

