#	Name: ASD10420173
#	Creating user name:	WinNT
#	Creation time:	15. 06. 2019 21:27

#	Modifying user name:	WinNT
#	Modification time:	15. 06. 2019 21:27

#	Program:	/corina/corina34_cracker 3.40 0067  02.08.2006

@<TRIPOS>MOLECULE
ASD10420173
  28   29    0    0    0
SMALL
NO_CHARGES


@<TRIPOS>ATOM
   1 C1            -0.0144     1.2119     0.0087 C.2     
   2 O2             0.0302     0.0009    -0.0927 O.2     
   3 C3             1.2262     1.9800     0.2332 C.ar    
   4 C4             1.5116     2.5005     1.5007 C.ar    
   5 C5             2.6760     3.2181     1.7017 C.ar    
   6 C6             3.5557     3.4210     0.6545 C.ar    
   7 C7             3.2783     2.9088    -0.6015 C.ar    
   8 C8             2.1242     2.1861    -0.8169 C.ar    
   9 F9             0.6520     2.3027     2.5240 F       
  10 C10           -1.3073     1.9139    -0.0987 C.ar    
  11 C11           -1.3482     3.3120    -0.0958 C.ar    
  12 C12           -2.5609     3.9641    -0.1965 C.ar    
  13 C13           -3.7417     3.2288    -0.3005 C.ar    
  14 C14           -3.7012     1.8410    -0.3029 C.ar    
  15 C15           -2.4939     1.1836    -0.2094 C.ar    
  16 N16           -4.9575     1.0659    -0.4125 N.pl3   
  17 O17           -4.9237    -0.1516    -0.4148 O.2     
  18 O18           -6.0251     1.6456    -0.5004 O.2     
  19 O19           -4.9335     3.8718    -0.3990 O.3     
  20 O20           -2.6042     5.3234    -0.1940 O.3     
  21 H21            2.8988     3.6213     2.6786 H       
  22 H22            4.4640     3.9824     0.8170 H       
  23 H23            3.9706     3.0721    -1.4142 H       
  24 H24            1.9128     1.7836    -1.7965 H       
  25 H25           -0.4333     3.8801    -0.0145 H       
  26 H26           -2.4649     0.1040    -0.2168 H       
  27 H27           -5.2038     4.0621    -1.3078 H       
  28 H28           -2.5415     5.7205    -1.0734 H       
@<TRIPOS>BOND
   1    1    2 2
   2    1    3 1
   3    1   10 1
   4    3    4 ar
   5    3    8 ar
   6    4    5 ar
   7    4    9 1
   8    5    6 ar
   9    5   21 1
  10    6    7 ar
  11    6   22 1
  12    7    8 ar
  13    7   23 1
  14    8   24 1
  15   10   11 ar
  16   10   15 ar
  17   11   12 ar
  18   11   25 1
  19   12   13 ar
  20   12   20 1
  21   13   14 ar
  22   13   19 1
  23   14   15 ar
  24   14   16 1
  25   15   26 1
  26   16   17 2
  27   16   18 2
  28   19   27 1
  29   20   28 1

#	End of record

