#	Name: ASD10410186
#	Creating user name:	WinNT
#	Creation time:	15. 06. 2019 21:27

#	Modifying user name:	WinNT
#	Modification time:	15. 06. 2019 21:27

#	Program:	/corina/corina34_cracker 3.40 0067  02.08.2006

@<TRIPOS>MOLECULE
ASD10410186
  70   76    0    0    0
SMALL
NO_CHARGES


@<TRIPOS>ATOM
   1 C1            -0.0142     1.2930    -0.3679 C.ar    
   2 C2             0.0368    -0.0541    -0.0393 C.ar    
   3 C3             1.2547    -0.6470     0.2768 C.ar    
   4 C4             2.4133     0.1064     0.2633 C.ar    
   5 C5             2.3605     1.4550    -0.0658 C.ar    
   6 C6             1.1444     2.0457    -0.3812 C.ar    
   7 F7             1.3050    -1.9584     0.5972 F       
   8 N8             3.5341     2.2187    -0.0791 N.pl3   
   9 C9             3.6666     3.2779    -0.9765 C.2     
  10 N10            4.6655     4.1268    -1.0081 N.2     
  11 N11            2.7974     3.5864    -1.9461 N.2     
  12 C12            3.2257     4.6401    -2.6074 C.2     
  13 N13            4.4071     5.0260    -2.0554 N.pl3   
  14 C14            5.2027     6.0990    -2.4505 C.ar    
  15 N15            2.5902     5.2448    -3.6746 N.pl3   
  16 N16           -1.1386    -0.8171    -0.0255 N.3     
  17 C17           -2.1054    -0.2774     0.9407 C.3     
  18 C18           -3.4015    -1.0882     0.8684 C.3     
  19 N19           -3.1096    -2.5002     1.1525 N.3     
  20 C20           -2.1427    -3.0398     0.1863 C.3     
  21 C21           -0.8466    -2.2290     0.2586 C.3     
  22 C22           -4.3957    -0.5546     1.9017 C.3     
  23 N23            4.8366     6.8729    -3.4641 N.ar    
  24 C24            5.5872     7.8916    -3.8428 C.ar    
  25 N25            6.7165     8.1930    -3.2524 N.ar    
  26 C26            7.1756     7.4651    -2.2101 C.ar    
  27 C27            6.4013     6.3828    -1.7798 C.ar    
  28 C28           -4.3417    -3.3000     1.1670 C.3     
  29 C29           -4.0021    -4.8217     1.1491 C.3     
  30 C30           -5.1075    -3.0860     2.4926 C.3     
  31 C31           -5.1586    -4.4986     3.1508 C.3     
  32 C32           -2.9221    -4.9938     2.2605 C.3     
  33 C33           -3.6880    -4.7798     3.5861 C.3     
  34 C34           -5.2630    -5.4088     1.8764 C.3     
  35 C35            8.3463     7.6224    -1.4516 C.2     
  36 C36            8.5263     6.7409    -0.4808 C.2     
  37 S37            7.1962     5.5962    -0.4241 S.3     
  38 C38            9.3362     8.7251    -1.7257 C.3     
  39 H39           -0.9592     1.7523    -0.6177 H       
  40 H40            3.3593    -0.3531     0.5090 H       
  41 H41            1.1039     3.0942    -0.6370 H       
  42 H42            4.2549     2.0110     0.5359 H       
  43 H43            1.7467     4.8928    -3.9996 H       
  44 H44            2.9874     6.0214    -4.0990 H       
  45 H45           -1.6904    -0.3442     1.9464 H       
  46 H46           -2.3149     0.7652     0.7018 H       
  47 H47           -3.8309    -0.9993    -0.1296 H       
  48 H48           -1.9332    -4.0825     0.4251 H       
  49 H49           -2.5577    -2.9731    -0.8194 H       
  50 H50           -0.1383    -2.6092    -0.4776 H       
  51 H51           -0.4172    -2.3179     1.2565 H       
  52 H52           -4.5153     0.5207     1.7693 H       
  53 H53           -5.3590    -1.0466     1.7669 H       
  54 H54           -4.0212    -0.7577     2.9049 H       
  55 H55            5.2569     8.4995    -4.6721 H       
  56 H56           -4.9717    -3.0412     0.3160 H       
  57 H57           -3.7547    -5.2433     0.1748 H       
  58 H58           -4.5698    -2.3873     3.1335 H       
  59 H59           -6.1158    -2.7224     2.2944 H       
  60 H60           -5.9182    -4.6387     3.9198 H       
  61 H61           -2.4968    -5.9968     2.2250 H       
  62 H62           -2.1390    -4.2439     2.1488 H       
  63 H63           -3.2814    -3.9247     4.1261 H       
  64 H64           -3.6392    -5.6776     4.2023 H       
  65 H65           -6.1802    -5.2251     1.3169 H       
  66 H66           -5.1412    -6.4649     2.1173 H       
  67 H67            9.3747     6.7289     0.1872 H       
  68 H68            9.0704     9.6056    -1.1407 H       
  69 H69           10.3365     8.3928    -1.4481 H       
  70 H70            9.3176     8.9746    -2.7866 H       
@<TRIPOS>BOND
   1    1    2 ar
   2    1    6 ar
   3    1   39 1
   4    2    3 ar
   5    2   16 1
   6    3    4 ar
   7    3    7 1
   8    4    5 ar
   9    4   40 1
  10    5    6 ar
  11    5    8 1
  12    6   41 1
  13    8    9 1
  14    8   42 1
  15    9   10 2
  16    9   11 1
  17   10   13 1
  18   11   12 2
  19   12   13 1
  20   12   15 1
  21   13   14 1
  22   14   23 ar
  23   14   27 ar
  24   15   43 1
  25   15   44 1
  26   16   17 1
  27   16   21 1
  28   17   18 1
  29   17   45 1
  30   17   46 1
  31   18   19 1
  32   18   22 1
  33   18   47 1
  34   19   20 1
  35   19   28 1
  36   20   21 1
  37   20   48 1
  38   20   49 1
  39   21   50 1
  40   21   51 1
  41   22   52 1
  42   22   53 1
  43   22   54 1
  44   23   24 ar
  45   24   25 ar
  46   24   55 1
  47   25   26 ar
  48   26   27 ar
  49   26   35 1
  50   27   37 1
  51   28   29 1
  52   28   30 1
  53   28   56 1
  54   29   32 1
  55   29   34 1
  56   29   57 1
  57   30   31 1
  58   30   58 1
  59   30   59 1
  60   31   33 1
  61   31   34 1
  62   31   60 1
  63   32   33 1
  64   32   61 1
  65   32   62 1
  66   33   63 1
  67   33   64 1
  68   34   65 1
  69   34   66 1
  70   35   36 2
  71   35   38 1
  72   36   37 1
  73   36   67 1
  74   38   68 1
  75   38   69 1
  76   38   70 1

#	End of record

