#	Name: ASD10410251
#	Creating user name:	WinNT
#	Creation time:	15. 06. 2019 21:27

#	Modifying user name:	WinNT
#	Modification time:	15. 06. 2019 21:27

#	Program:	/corina/corina34_cracker 3.40 0067  02.08.2006

@<TRIPOS>MOLECULE
ASD10410251
  58   62    0    0    0
SMALL
NO_CHARGES


@<TRIPOS>ATOM
   1 C1            -0.0183     1.3924    -0.0811 C.ar    
   2 C2            -0.0057     0.0094     0.0247 C.ar    
   3 C3             1.2007    -0.6691     0.1154 C.ar    
   4 C4             2.3904     0.0319     0.1009 C.ar    
   5 C5             2.3788     1.4166    -0.0050 C.ar    
   6 C6             1.1705     2.0950    -0.0962 C.ar    
   7 O7            -1.1769    -0.6816     0.0400 O.3     
   8 N8             3.5843     2.1280    -0.0197 N.pl3   
   9 C9             3.6712     3.3387    -0.7070 C.2     
  10 N10            4.7093     4.1402    -0.7091 N.2     
  11 N11            2.7110     3.8668    -1.4750 N.2     
  12 C12            3.1222     5.0135    -1.9725 C.2     
  13 N13            4.3788     5.2368    -1.5215 N.pl3   
  14 C14            5.1865     6.3400    -1.8072 C.ar    
  15 N15            2.3998     5.8421    -2.8100 N.pl3   
  16 C16            6.1962     6.7172    -0.9249 C.ar    
  17 C17           -1.0897    -2.1036     0.1511 C.3     
  18 C18           -2.4976    -2.7024     0.1518 C.3     
  19 N19           -3.1366    -2.4526    -1.1472 N.3     
  20 C20           -4.3934    -3.2133    -1.2728 C.3     
  21 C21           -5.5166    -2.1958    -1.5632 C.3     
  22 C22           -4.7466    -0.9828    -2.1485 C.3     
  23 C23           -3.4366    -1.0156    -1.3224 C.3     
  24 N24            5.0013     7.0316    -2.9216 N.ar    
  25 N25            5.7224     8.0486    -3.2206 N.ar    
  26 C26            6.7009     8.4792    -2.4405 C.ar    
  27 C27            6.9706     7.8206    -1.2566 C.ar    
  28 C28            7.5067     9.6766    -2.8733 C.3     
  29 C29            8.2698    10.2490    -1.6780 C.3     
  30 N30            8.9960     9.1548    -1.0144 N.3     
  31 C31            8.0599     8.2646    -0.3216 C.3     
  32 H32           -0.9579     1.9196    -0.1561 H       
  33 H33            1.2096    -1.7459     0.1977 H       
  34 H34            3.3296    -0.4965     0.1722 H       
  35 H35            1.1605     3.1718    -0.1789 H       
  36 H36            4.3591     1.7790     0.4479 H       
  37 H37            1.5021     5.5942    -3.0812 H       
  38 H38            2.7905     6.6715    -3.1267 H       
  39 H39            6.3709     6.1687    -0.0112 H       
  40 H40           -0.5266    -2.5003    -0.6937 H       
  41 H41           -0.5832    -2.3651     1.0802 H       
  42 H42           -2.4355    -3.7767     0.3255 H       
  43 H43           -3.0887    -2.2401     0.9424 H       
  44 H44           -4.3157    -3.9246    -2.0951 H       
  45 H45           -4.6023    -3.7406    -0.3420 H       
  46 H46           -6.2192    -2.5955    -2.2945 H       
  47 H47           -6.0321    -1.9179    -0.6439 H       
  48 H48           -4.5426    -1.1250    -3.2098 H       
  49 H49           -5.2924    -0.0548    -1.9783 H       
  50 H50           -3.5867    -0.5384    -0.3539 H       
  51 H51           -2.6314    -0.5236    -1.8680 H       
  52 H52            8.2152     9.3765    -3.6453 H       
  53 H53            6.8373    10.4380    -3.2739 H       
  54 H54            8.9786    11.0017    -2.0232 H       
  55 H55            7.5670    10.6993    -0.9771 H       
  56 H56            9.5570     8.6396    -1.6760 H       
  57 H57            7.6151     8.7941     0.5210 H       
  58 H58            8.5985     7.3920     0.0480 H       
@<TRIPOS>BOND
   1    1    2 ar
   2    1    6 ar
   3    1   32 1
   4    2    3 ar
   5    2    7 1
   6    3    4 ar
   7    3   33 1
   8    4    5 ar
   9    4   34 1
  10    5    6 ar
  11    5    8 1
  12    6   35 1
  13    7   17 1
  14    8    9 1
  15    8   36 1
  16    9   10 2
  17    9   11 1
  18   10   13 1
  19   11   12 2
  20   12   13 1
  21   12   15 1
  22   13   14 1
  23   14   16 ar
  24   14   24 ar
  25   15   37 1
  26   15   38 1
  27   16   27 ar
  28   16   39 1
  29   17   18 1
  30   17   40 1
  31   17   41 1
  32   18   19 1
  33   18   42 1
  34   18   43 1
  35   19   20 1
  36   19   23 1
  37   20   21 1
  38   20   44 1
  39   20   45 1
  40   21   22 1
  41   21   46 1
  42   21   47 1
  43   22   23 1
  44   22   48 1
  45   22   49 1
  46   23   50 1
  47   23   51 1
  48   24   25 ar
  49   25   26 ar
  50   26   27 ar
  51   26   28 1
  52   27   31 1
  53   28   29 1
  54   28   52 1
  55   28   53 1
  56   29   30 1
  57   29   54 1
  58   29   55 1
  59   30   31 1
  60   30   56 1
  61   31   57 1
  62   31   58 1

#	End of record

