#	Name: ASD10950069
#	Creating user name:	WinNT
#	Creation time:	15. 06. 2019 21:28

#	Modifying user name:	WinNT
#	Modification time:	15. 06. 2019 21:28

#	Program:	/corina/corina34_cracker 3.40 0067  02.08.2006

@<TRIPOS>MOLECULE
ASD10950069
  52   54    0    0    0
SMALL
NO_CHARGES


@<TRIPOS>ATOM
   1 C1            -0.0176     1.4478     0.0100 C.3     
   2 O2             0.0021    -0.0041     0.0020 O.3     
   3 C3             0.6204    -0.6130     1.0324 C.2     
   4 O4             1.1291     0.0507     1.9134 O.2     
   5 C5             0.6796    -2.0879     1.0909 C.ar    
   6 C6             1.3197    -2.7223     2.1574 C.ar    
   7 C7             1.3714    -4.0999     2.2057 C.ar    
   8 C8             0.7909    -4.8529     1.2004 C.ar    
   9 C9             0.1550    -4.2307     0.1406 C.ar    
  10 C10            0.0909    -2.8539     0.0828 C.ar    
  11 C11            0.8519    -6.3575     1.2598 C.3     
  12 N12           -0.4256    -6.9317     0.8218 N.am    
  13 C13           -1.7299    -6.7122     1.4519 C.3     
  14 C14           -2.4043    -5.4942     0.8174 C.3     
  15 C15           -3.7459    -5.2685     1.4656 C.ar    
  16 C16           -3.8476    -4.4556     2.5788 C.ar    
  17 C17           -5.0785    -4.2486     3.1734 C.ar    
  18 C18           -6.2073    -4.8541     2.6545 C.ar    
  19 C19           -6.1057    -5.6665     1.5404 C.ar    
  20 C20           -4.8760    -5.8701     0.9434 C.ar    
  21 C21           -7.3365    -6.3272     0.9749 C.3     
  22 C22           -0.1883    -7.6947    -0.2605 C.2     
  23 O23           -1.0326    -8.3159    -0.8744 O.2     
  24 C24            1.2532    -7.6646    -0.5929 C.2     
  25 C25            1.8981    -6.8731     0.2994 C.2     
  26 C26            3.2833    -6.5855     0.3260 C.2     
  27 O27            4.0195    -7.0683    -0.5095 O.2     
  28 C28            3.8445    -5.6798     1.3918 C.3     
  29 O29            1.8342    -8.3209    -1.6219 O.3     
  30 H30            1.0050     1.8251     0.0023 H       
  31 H31           -0.5448     1.8089    -0.8731 H       
  32 H32           -0.5278     1.7993     0.9068 H       
  33 H33            1.7735    -2.1358     2.9425 H       
  34 H34            1.8665    -4.5919     3.0299 H       
  35 H35           -0.2957    -4.8244    -0.6409 H       
  36 H36           -0.4057    -2.3695    -0.7449 H       
  37 H37            1.0806    -6.6830     2.2746 H       
  38 H38           -2.3567    -7.5919     1.3056 H       
  39 H39           -1.5930    -6.5370     2.5190 H       
  40 H40           -1.7775    -4.6146     0.9637 H       
  41 H41           -2.5412    -5.6695    -0.2496 H       
  42 H42           -2.9655    -3.9824     2.9843 H       
  43 H43           -5.1578    -3.6139     4.0437 H       
  44 H44           -7.1687    -4.6929     3.1194 H       
  45 H45           -4.7966    -6.5047     0.0731 H       
  46 H46           -7.7907    -5.6728     0.2308 H       
  47 H47           -7.0594    -7.2719     0.5071 H       
  48 H48           -8.0496    -6.5146     1.7776 H       
  49 H49            3.6456    -6.1080     2.3742 H       
  50 H50            4.9206    -5.5769     1.2515 H       
  51 H51            3.3734    -4.6995     1.3205 H       
  52 H52            1.2171    -8.8389    -2.1566 H       
@<TRIPOS>BOND
   1    1    2 1
   2    1   30 1
   3    1   31 1
   4    1   32 1
   5    2    3 1
   6    3    4 2
   7    3    5 1
   8    5    6 ar
   9    5   10 ar
  10    6    7 ar
  11    6   33 1
  12    7    8 ar
  13    7   34 1
  14    8    9 ar
  15    8   11 1
  16    9   10 ar
  17    9   35 1
  18   10   36 1
  19   11   12 1
  20   11   25 1
  21   11   37 1
  22   12   13 1
  23   12   22 am
  24   13   14 1
  25   13   38 1
  26   13   39 1
  27   14   15 1
  28   14   40 1
  29   14   41 1
  30   15   16 ar
  31   15   20 ar
  32   16   17 ar
  33   16   42 1
  34   17   18 ar
  35   17   43 1
  36   18   19 ar
  37   18   44 1
  38   19   20 ar
  39   19   21 1
  40   20   45 1
  41   21   46 1
  42   21   47 1
  43   21   48 1
  44   22   23 2
  45   22   24 1
  46   24   25 2
  47   24   29 1
  48   25   26 1
  49   26   27 2
  50   26   28 1
  51   28   49 1
  52   28   50 1
  53   28   51 1
  54   29   52 1

#	End of record

