#	Name: ASD14870003
#	Creating user name:	WinNT
#	Creation time:	15. 06. 2019 21:31

#	Modifying user name:	WinNT
#	Modification time:	15. 06. 2019 21:31

#	Program:	/corina/corina34_cracker 3.40 0067  02.08.2006

@<TRIPOS>MOLECULE
ASD14870003
  63   67    0    0    0
SMALL
NO_CHARGES


@<TRIPOS>ATOM
   1 C1             4.6288    -0.8636     4.1638 C.ar    
   2 C2             3.4133    -0.3767     3.7064 C.ar    
   3 C3             3.1580    -0.3196     2.3503 C.ar    
   4 C4             4.1187    -0.7498     1.4447 C.ar    
   5 C5             5.3353    -1.2372     1.9035 C.ar    
   6 C6             5.5889    -1.2936     3.2599 C.ar    
   7 O7             4.8815    -0.9143     5.4992 O.3     
   8 C8             6.1537    -1.4272     5.8997 C.3     
   9 N9             3.8607    -0.6928     0.0705 N.am    
  10 S10            4.9959    -0.0665    -0.9598 S.o2    
  11 O11            6.2215    -0.7146    -0.6483 O.2     
  12 O12            4.4147    -0.0847    -2.2563 O.2     
  13 C13            5.2079     1.6300    -0.5334 C.ar    
  14 C14            4.4828     2.6048    -1.1934 C.ar    
  15 C15            6.0954     1.9866     0.4657 C.ar    
  16 C16            6.2587     3.3133     0.8068 C.ar    
  17 C17            4.6434     3.9332    -0.8642 C.ar    
  18 C18            5.5334     4.3009     0.1511 C.ar    
  19 C19            3.9166     5.0175    -1.5601 C.3     
  20 N20            5.6904     5.6372     0.5380 N.pl3   
  21 C21            4.9523     6.7238    -0.1422 C.3     
  22 C22            1.8914     5.9057    -2.1431 C.2     
  23 C23            2.6018     4.7864    -2.2123 C.2     
  24 C24            3.6041     6.1289    -0.5135 C.3     
  25 C25            2.6811     6.9811    -1.3943 C.3     
  26 C26            4.7612     7.8889     0.7942 C.ar    
  27 C27            3.5351     8.0957     1.3994 C.ar    
  28 C28            3.3564     9.1634     2.2587 C.ar    
  29 C29            4.4028    10.0298     2.5167 C.ar    
  30 C30            5.6336     9.8284     1.9138 C.ar    
  31 C31            5.8153     8.7496     1.0532 C.ar    
  32 O32            7.0233     8.5444     0.4632 O.3     
  33 C33            7.2883     9.2669    -0.7409 C.3     
  34 O34            6.6637    10.6796     2.1665 O.3     
  35 C35            6.4063    11.7610     3.0644 C.3     
  36 H36            2.6661    -0.0424     4.4110 H       
  37 H37            2.2114     0.0593     1.9944 H       
  38 H38            6.0829    -1.5724     1.1998 H       
  39 H39            6.5352    -1.6723     3.6169 H       
  40 H40            6.2253    -1.4126     6.9873 H       
  41 H41            6.2615    -2.4512     5.5422 H       
  42 H42            6.9447    -0.8090     5.4752 H       
  43 H43            3.0170    -1.0200    -0.2786 H       
  44 H44            3.7877     2.3239    -1.9708 H       
  45 H45            6.6617     1.2245     0.9803 H       
  46 H46            6.9533     3.5858     1.5876 H       
  47 H47            4.5818     5.4459    -2.3098 H       
  48 H48            6.2940     5.8545     1.2656 H       
  49 H49            5.4891     7.0415    -1.0361 H       
  50 H50            0.9016     6.0376    -2.5544 H       
  51 H51            2.2780     3.8619    -2.6670 H       
  52 H52            3.0891     5.7303     0.3605 H       
  53 H53            3.2583     7.5946    -2.0861 H       
  54 H54            2.0203     7.5981    -0.7854 H       
  55 H55            2.7152     7.4217     1.1998 H       
  56 H56            2.3974     9.3215     2.7294 H       
  57 H57            4.2604    10.8638     3.1880 H       
  58 H58            6.5999     8.9394    -1.5201 H       
  59 H59            7.1534    10.3335    -0.5618 H       
  60 H60            8.3136     9.0787    -1.0594 H       
  61 H61            7.3088    12.3616     3.1780 H       
  62 H62            5.6045    12.3820     2.6649 H       
  63 H63            6.1093    11.3643     4.0352 H       
@<TRIPOS>BOND
   1    1    2 ar
   2    1    6 ar
   3    1    7 1
   4    2    3 ar
   5    2   36 1
   6    3    4 ar
   7    3   37 1
   8    4    5 ar
   9    4    9 1
  10    5    6 ar
  11    5   38 1
  12    6   39 1
  13    7    8 1
  14    8   40 1
  15    8   41 1
  16    8   42 1
  17    9   10 am
  18    9   43 1
  19   10   11 2
  20   10   12 2
  21   10   13 1
  22   13   15 ar
  23   13   14 ar
  24   14   17 ar
  25   14   44 1
  26   15   16 ar
  27   15   45 1
  28   16   18 ar
  29   16   46 1
  30   17   18 ar
  31   17   19 1
  32   18   20 1
  33   19   24 1
  34   19   23 1
  35   19   47 1
  36   20   21 1
  37   20   48 1
  38   21   24 1
  39   21   26 1
  40   21   49 1
  41   22   23 2
  42   22   25 1
  43   22   50 1
  44   23   51 1
  45   24   25 1
  46   24   52 1
  47   25   53 1
  48   25   54 1
  49   26   27 ar
  50   26   31 ar
  51   27   28 ar
  52   27   55 1
  53   28   29 ar
  54   28   56 1
  55   29   30 ar
  56   29   57 1
  57   30   31 ar
  58   30   34 1
  59   31   32 1
  60   32   33 1
  61   33   58 1
  62   33   59 1
  63   33   60 1
  64   34   35 1
  65   35   61 1
  66   35   62 1
  67   35   63 1

#	End of record

