#	Name: ASD14870006
#	Creating user name:	WinNT
#	Creation time:	15. 06. 2019 21:31

#	Modifying user name:	WinNT
#	Modification time:	15. 06. 2019 21:31

#	Program:	/corina/corina34_cracker 3.40 0067  02.08.2006

@<TRIPOS>MOLECULE
ASD14870006
  63   67    0    0    0
SMALL
NO_CHARGES


@<TRIPOS>ATOM
   1 C1             0.1032     1.5410    -0.0765 C.ar    
   2 C2             0.1197     0.1789    -0.3437 C.ar    
   3 C3             1.2992    -0.5307    -0.2512 C.ar    
   4 C4             2.4790     0.1191     0.1109 C.ar    
   5 C5             2.4656     1.4882     0.3796 C.ar    
   6 C6             1.2812     2.1970     0.2864 C.ar    
   7 N7            -1.0922     2.2574    -0.1764 N.3     
   8 C8            -1.5417     2.7178     1.1436 C.3     
   9 C9            -2.7686     3.6178     0.9808 C.3     
  10 C10           -3.8841     2.8312     0.2868 C.3     
  11 C11           -3.3743     2.3220    -1.0642 C.3     
  12 C12           -2.1297     1.4595    -0.8422 C.3     
  13 C13            3.7447    -0.6434     0.2105 C.2     
  14 C14            4.0584    -1.6835    -0.7802 C.ar    
  15 C15            5.2745    -2.3907    -0.6541 C.ar    
  16 C16            6.1654    -2.0499     0.4630 C.2     
  17 N17            5.7928    -1.0800     1.3229 N.am    
  18 N18            4.5893    -0.3894     1.1775 N.2     
  19 C19            3.1914    -1.9838    -1.8291 C.ar    
  20 C20            3.5309    -2.9680    -2.7318 C.ar    
  21 C21            4.7262    -3.6632    -2.6072 C.ar    
  22 C22            5.5989    -3.3819    -1.5788 C.ar    
  23 C23            6.6794    -0.7382     2.4379 C.3     
  24 O24            7.2239    -2.6344     0.6105 O.2     
  25 N25            1.2639     3.5725     0.5556 N.am    
  26 C26            2.1274     4.0953     1.4486 C.2     
  27 C27            2.0478     5.5569     1.8070 C.3     
  28 O28            2.9687     3.3895     1.9636 O.2     
  29 O29            3.0605     5.8680     2.7660 O.3     
  30 C30            3.1265     7.1547     3.1983 C.ar    
  31 C31            2.3004     9.4046     3.1547 C.ar    
  32 C32            2.2312     8.0972     2.7138 C.ar    
  33 C33            4.0856     7.5267     4.1291 C.ar    
  34 C34            4.1507     8.8353     4.5669 C.ar    
  35 C35            3.2609     9.7740     4.0782 C.ar    
  36 H36           -0.7926    -0.3264    -0.6243 H       
  37 H37            1.3089    -1.5905    -0.4590 H       
  38 H38            3.3778     1.9934     0.6605 H       
  39 H39           -1.8019     1.8568     1.7593 H       
  40 H40           -0.7407     3.2792     1.6246 H       
  41 H41           -3.1114     3.9467     1.9618 H       
  42 H42           -2.5055     4.4861     0.3767 H       
  43 H43           -4.1744     1.9848     0.9091 H       
  44 H44           -4.7448     3.4813     0.1298 H       
  45 H45           -4.1498     1.7251    -1.5443 H       
  46 H46           -3.1207     3.1698    -1.7006 H       
  47 H47           -1.7559     1.1070    -1.8035 H       
  48 H48           -2.3872     0.6044    -0.2172 H       
  49 H49            2.2591    -1.4488    -1.9337 H       
  50 H50            2.8596    -3.2014    -3.5450 H       
  51 H51            4.9748    -4.4318    -3.3241 H       
  52 H52            6.5270    -3.9268    -1.4887 H       
  53 H53            7.3679     0.0476     2.1269 H       
  54 H54            6.0843    -0.3871     3.2809 H       
  55 H55            7.2458    -1.6207     2.7355 H       
  56 H56            0.6303     4.1480     0.0992 H       
  57 H57            2.1983     6.1594     0.9113 H       
  58 H58            1.0673     5.7742     2.2306 H       
  59 H59            1.6037    10.1387     2.7778 H       
  60 H60            1.4811     7.8092     1.9922 H       
  61 H61            4.7806     6.7937     4.5114 H       
  62 H62            4.8969     9.1253     5.2918 H       
  63 H63            3.3136    10.7967     4.4214 H       
@<TRIPOS>BOND
   1    1    2 ar
   2    1    6 ar
   3    1    7 1
   4    2    3 ar
   5    2   36 1
   6    3    4 ar
   7    3   37 1
   8    4    5 ar
   9    4   13 1
  10    5    6 ar
  11    5   38 1
  12    6   25 1
  13    7    8 1
  14    7   12 1
  15    8    9 1
  16    8   39 1
  17    8   40 1
  18    9   10 1
  19    9   41 1
  20    9   42 1
  21   10   11 1
  22   10   43 1
  23   10   44 1
  24   11   12 1
  25   11   45 1
  26   11   46 1
  27   12   47 1
  28   12   48 1
  29   13   14 1
  30   13   18 2
  31   14   15 ar
  32   14   19 ar
  33   15   16 1
  34   15   22 ar
  35   16   17 am
  36   16   24 2
  37   17   18 1
  38   17   23 1
  39   19   20 ar
  40   19   49 1
  41   20   21 ar
  42   20   50 1
  43   21   22 ar
  44   21   51 1
  45   22   52 1
  46   23   53 1
  47   23   54 1
  48   23   55 1
  49   25   26 am
  50   25   56 1
  51   26   27 1
  52   26   28 2
  53   27   29 1
  54   27   57 1
  55   27   58 1
  56   29   30 1
  57   30   33 ar
  58   30   32 ar
  59   31   32 ar
  60   31   35 ar
  61   31   59 1
  62   32   60 1
  63   33   34 ar
  64   33   61 1
  65   34   35 ar
  66   34   62 1
  67   35   63 1

#	End of record

