#	Name: ASD10650001
#	Creating user name:	WinNT
#	Creation time:	15. 06. 2019 21:28

#	Modifying user name:	WinNT
#	Modification time:	15. 06. 2019 21:28

#	Program:	/corina/corina34_cracker 3.40 0067  02.08.2006

@<TRIPOS>MOLECULE
ASD10650001
  83   86    0    0    0
SMALL
NO_CHARGES


@<TRIPOS>ATOM
   1 C1             0.3232     1.5256    -0.6240 C.3     
   2 C2            -0.0502     0.0531    -0.3642 C.3     
   3 C3            -0.5863     0.0586     1.0501 C.2     
   4 C4            -0.5377     1.2810     1.5224 C.2     
   5 N5            -0.0272     2.2051     0.6322 N.pl3   
   6 C6             1.8210     1.6581    -0.9065 C.3     
   7 C7            -0.9980     1.6445     2.9106 C.3     
   8 C8             0.2141     1.7522     3.8380 C.3     
   9 C9            -0.2303     2.1103     5.2376 C.2     
  10 C10            0.1608     1.0947     6.0397 C.2     
  11 C11            0.8423     0.0802     5.2446 C.2     
  12 N12            0.8824     0.4496     3.9516 N.am    
  13 C13            2.4745    -4.3683    -1.8928 C.2     
  14 C14            3.2193    -5.1144    -2.9091 C.2     
  15 C15            3.5495    -4.2092    -3.9074 C.2     
  16 C16            3.0349    -2.9606    -3.5301 C.2     
  17 N17            2.3847    -3.0902    -2.3076 N.am    
  18 C18            3.1513    -1.7906    -4.2580 C.2     
  19 C19            2.7426    -0.5657    -3.6932 C.2     
  20 C20            2.4757     0.6083    -4.3829 C.2     
  21 C21            2.1048     1.5645    -3.4357 C.2     
  22 C22            2.1478     0.9803    -2.2122 C.2     
  23 N23            2.5286    -0.3154    -2.3548 N.pl3   
  24 C24            4.3205    -4.5123    -5.1662 C.3     
  25 C25            3.5535    -6.5495    -2.8777 C.2     
  26 C26            3.1683    -7.2991    -1.8501 C.2     
  27 C27           -0.0711     1.0227     7.5270 C.3     
  28 C28           -0.9448     3.3207     5.6452 C.2     
  29 C29           -1.2883     4.2316     4.7330 C.2     
  30 C30           -1.0956    -1.1474     1.7965 C.3     
  31 C31           -1.1293    -0.4084    -1.3457 C.3     
  32 C32           -0.5544    -0.4283    -2.7634 C.3     
  33 C33           -1.5803    -0.9903    -3.7136 C.2     
  34 O34           -1.2941    -1.1034    -5.0202 O.3     
  35 O35           -2.6604    -1.3391    -3.2994 O.2     
  36 C36            2.5696     0.8130    -5.8730 C.3     
  37 C37            1.7239     2.9942    -3.7220 C.3     
  38 C38            0.2084     3.0907    -3.9082 C.3     
  39 C39           -0.1587     4.4929    -4.3208 C.2     
  40 O40           -1.4495     4.8405    -4.4425 O.3     
  41 O41            0.7089     5.3042    -4.5421 O.2     
  42 O42            2.0140    -4.8233    -0.8599 O.2     
  43 O43            1.3087    -0.9531     5.6875 O.2     
  44 H44           -0.2585     1.9271    -1.4538 H       
  45 H45            0.8316    -0.5836    -0.4365 H       
  46 H46            0.0825     3.1528     0.8077 H       
  47 H47            2.0872     2.7132    -0.9682 H       
  48 H48            2.3856     1.1874    -0.1016 H       
  49 H49           -1.5195     2.6012     2.8816 H       
  50 H50           -1.6731     0.8739     3.2829 H       
  51 H51            0.9100     2.5016     3.4610 H       
  52 H52            1.2810    -0.0542     3.2248 H       
  53 H53            1.9419    -2.3730    -1.8275 H       
  54 H54            3.5554    -1.8154    -5.2592 H       
  55 H55            2.6341    -0.9569    -1.6349 H       
  56 H56            4.5883    -5.5687    -5.1828 H       
  57 H57            3.7039    -4.2801    -6.0346 H       
  58 H58            5.2267    -3.9072    -5.1918 H       
  59 H59            4.1114    -6.9919    -3.6897 H       
  60 H60            2.6104    -6.8567    -1.0380 H       
  61 H61            3.4132    -8.3507    -1.8270 H       
  62 H62           -1.0241     0.5312     7.7227 H       
  63 H63            0.7335     0.4539     7.9931 H       
  64 H64           -0.0904     2.0308     7.9410 H       
  65 H65           -1.1940     3.4766     6.6844 H       
  66 H66           -0.9581     4.1229     3.7104 H       
  67 H67           -1.8966     5.0776     5.0170 H       
  68 H68           -0.2592    -1.6616     2.2699 H       
  69 H69           -1.8055    -0.8290     2.5600 H       
  70 H70           -1.5906    -1.8237     1.0996 H       
  71 H71           -1.4626    -1.4102    -1.0746 H       
  72 H72           -1.9745     0.2788    -1.3059 H       
  73 H73           -0.2971     0.5869    -3.0654 H       
  74 H74            0.3398    -1.0513    -2.7842 H       
  75 H75           -1.9838    -1.4695    -5.5906 H       
  76 H76            1.6091     0.5802    -6.3329 H       
  77 H77            2.8303     1.8506    -6.0815 H       
  78 H78            3.3371     0.1561    -6.2823 H       
  79 H79            2.0284     3.6254    -2.8872 H       
  80 H80            2.2237     3.3282    -4.6313 H       
  81 H81           -0.1082     2.3900    -4.6807 H       
  82 H82           -0.2893     2.8461    -2.9698 H       
  83 H83           -1.6354     5.7270    -4.7810 H       
@<TRIPOS>BOND
   1    1    2 1
   2    1    6 1
   3    1    5 1
   4    1   44 1
   5    2    3 1
   6    2   31 1
   7    2   45 1
   8    3    4 2
   9    3   30 1
  10    4    5 1
  11    4    7 1
  12    5   46 1
  13    6   22 1
  14    6   47 1
  15    6   48 1
  16    7    8 1
  17    7   49 1
  18    7   50 1
  19    8    9 1
  20    8   12 1
  21    8   51 1
  22    9   10 2
  23    9   28 1
  24   10   11 1
  25   10   27 1
  26   11   12 am
  27   11   43 2
  28   12   52 1
  29   13   14 1
  30   13   42 2
  31   13   17 am
  32   14   15 2
  33   14   25 1
  34   15   16 1
  35   15   24 1
  36   16   17 1
  37   16   18 2
  38   17   53 1
  39   18   19 1
  40   18   54 1
  41   19   20 2
  42   19   23 1
  43   20   21 1
  44   20   36 1
  45   21   22 2
  46   21   37 1
  47   22   23 1
  48   23   55 1
  49   24   56 1
  50   24   57 1
  51   24   58 1
  52   25   26 2
  53   25   59 1
  54   26   60 1
  55   26   61 1
  56   27   62 1
  57   27   63 1
  58   27   64 1
  59   28   29 2
  60   28   65 1
  61   29   66 1
  62   29   67 1
  63   30   68 1
  64   30   69 1
  65   30   70 1
  66   31   32 1
  67   31   71 1
  68   31   72 1
  69   32   33 1
  70   32   73 1
  71   32   74 1
  72   33   34 1
  73   33   35 2
  74   34   75 1
  75   36   76 1
  76   36   77 1
  77   36   78 1
  78   37   38 1
  79   37   79 1
  80   37   80 1
  81   38   39 1
  82   38   81 1
  83   38   82 1
  84   39   40 1
  85   39   41 2
  86   40   83 1

#	End of record

