#	Name: ASD14570001
#	Creating user name:	WinNT
#	Creation time:	15. 06. 2019 21:31

#	Modifying user name:	WinNT
#	Modification time:	15. 06. 2019 21:31

#	Program:	/corina/corina34_cracker 3.40 0067  02.08.2006

@<TRIPOS>MOLECULE
ASD14570001
  44   47    0    0    0
SMALL
NO_CHARGES


@<TRIPOS>ATOM
   1 Cl1            0.0256    -4.5130    -0.2734 Cl      
   2 N2            -0.0169     1.3799    -0.0299 N.pl3   
   3 N3             4.3655     1.5930    -1.4651 N.3     
   4 N4             0.3903     3.4912     0.0546 N.2     
   5 N5            -0.8886     3.3578     0.0486 N.2     
   6 C6             0.0016    -0.0020    -0.0865 C.ar    
   7 C7             0.9678     2.3188     0.0053 C.2     
   8 C8            -1.2096    -0.7127    -0.1122 C.ar    
   9 C9             2.4516     2.0557    -0.0090 C.3     
  10 C10           -1.2006     2.0718    -0.0043 C.2     
  11 C11           -2.4789     0.0333    -0.0776 C.2     
  12 C12            2.9191     1.8495    -1.4512 C.3     
  13 C13           -2.4397     1.3974    -0.0340 C.2     
  14 C14            1.2047    -0.6975    -0.1188 C.ar    
  15 C15           -3.7743    -0.6825    -0.1032 C.ar    
  16 C16           -1.1975    -2.1075    -0.1702 C.ar    
  17 C17            1.2023    -2.0747    -0.1756 C.ar    
  18 C18            0.0057    -2.7786    -0.2019 C.ar    
  19 C19           -4.6374    -0.5304    -1.1889 C.ar    
  20 C20           -4.1348    -1.5166     0.9556 C.ar    
  21 C21            4.8102     1.1577    -2.7958 C.3     
  22 C22            5.1143     2.7761    -1.0208 C.3     
  23 C23           -5.8434    -1.2003    -1.2067 C.ar    
  24 C24           -5.3436    -2.1810     0.9258 C.ar    
  25 C25           -6.1978    -2.0212    -0.1508 C.ar    
  26 H26            2.9758     2.9073     0.4246 H       
  27 H27            2.6675     1.1607     0.5744 H       
  28 H28            2.7032     2.7445    -2.0346 H       
  29 H29            2.3949     0.9979    -1.8848 H       
  30 H30           -3.3602     1.9619    -0.0126 H       
  31 H31            2.1408    -0.1591    -0.0998 H       
  32 H32           -2.1265    -2.6580    -0.1897 H       
  33 H33            2.1394    -2.6110    -0.2005 H       
  34 H34           -4.3623     0.1106    -2.0133 H       
  35 H35           -3.4689    -1.6422     1.7965 H       
  36 H36            4.5860     1.9352    -3.5262 H       
  37 H37            5.8845     0.9747    -2.7781 H       
  38 H38            4.8151     3.0352    -0.0052 H       
  39 H39            6.1822     2.5589    -1.0407 H       
  40 H40            4.9012     3.6123    -1.6869 H       
  41 H41            4.2898     0.2402    -3.0707 H       
  42 H42           -6.5124    -1.0834    -2.0464 H       
  43 H43           -5.6236    -2.8272     1.7445 H       
  44 H44           -7.1431    -2.5432    -0.1693 H       
@<TRIPOS>BOND
   1    1   18 1
   2    2    6 1
   3    2    7 1
   4    2   10 1
   5    3   12 1
   6    3   21 1
   7    3   22 1
   8    4    5 1
   9    4    7 2
  10    5   10 2
  11    6    8 ar
  12    6   14 ar
  13    7    9 1
  14    8   11 1
  15    8   16 ar
  16    9   12 1
  17    9   26 1
  18    9   27 1
  19   10   13 1
  20   11   13 2
  21   11   15 1
  22   12   28 1
  23   12   29 1
  24   13   30 1
  25   14   17 ar
  26   14   31 1
  27   15   19 ar
  28   15   20 ar
  29   16   18 ar
  30   16   32 1
  31   17   18 ar
  32   17   33 1
  33   19   23 ar
  34   19   34 1
  35   20   24 ar
  36   20   35 1
  37   21   36 1
  38   21   37 1
  39   21   41 1
  40   22   38 1
  41   22   39 1
  42   22   40 1
  43   23   25 ar
  44   23   42 1
  45   24   25 ar
  46   24   43 1
  47   25   44 1

#	End of record

