#	Name: ASD11920011
#	Creating user name:	WinNT
#	Creation time:	15. 06. 2019 21:29

#	Modifying user name:	WinNT
#	Modification time:	15. 06. 2019 21:29

#	Program:	/corina/corina34_cracker 3.40 0067  02.08.2006

@<TRIPOS>MOLECULE
ASD11920011
  36   38    0    0    0
SMALL
NO_CHARGES


@<TRIPOS>ATOM
   1 C1            -0.0167     1.3781     0.0096 C.ar    
   2 C2             0.0021    -0.0041     0.0020 C.ar    
   3 C3             1.2084    -0.6789    -0.0132 C.ar    
   4 C4             2.3960     0.0285    -0.0212 C.ar    
   5 C5             2.3773     1.4107    -0.0145 C.ar    
   6 C6             1.1710     2.0855     0.0021 C.ar    
   7 C7             3.6720     2.1819    -0.0228 C.3     
   8 C8             4.0905     2.4457    -1.4463 C.ar    
   9 C9             3.6673     3.5989    -2.0876 C.ar    
  10 C10            4.0506     3.8371    -3.3853 C.ar    
  11 C11            4.8646     2.9245    -4.0634 C.ar    
  12 C12            5.2870     1.7662    -3.4110 C.ar    
  13 C13            4.9006     1.5381    -2.1059 C.ar    
  14 C14            3.6124     5.0803    -4.1230 C.3     
  15 C15            4.0899     5.2464    -5.5494 C.2     
  16 N16            4.8718     4.3049    -6.1053 N.am    
  17 C17            5.2631     3.1999    -5.4555 C.2     
  18 O18            5.9708     2.3986    -6.0331 O.2     
  19 O19            5.3022     4.4891    -7.4416 O.3     
  20 O20            3.7681     6.2250    -6.1886 O.2     
  21 C21           -1.2926    -0.7753     0.0108 C.3     
  22 F22           -1.7064    -1.0068    -1.3054 F       
  23 F23           -1.1022    -1.9988     0.6619 F       
  24 F24           -2.2712    -0.0361     0.6840 F       
  25 H25           -0.9592     1.9054     0.0170 H       
  26 H26            1.2231    -1.7588    -0.0184 H       
  27 H27            3.3386    -0.4987    -0.0324 H       
  28 H28            1.1563     3.1654     0.0069 H       
  29 H29            3.5335     3.1300     0.4968 H       
  30 H30            4.4443     1.6008     0.4812 H       
  31 H31            3.0381     4.3075    -1.5695 H       
  32 H32            5.9160     1.0533    -3.9234 H       
  33 H33            5.2264     0.6420    -1.5986 H       
  34 H34            2.5226     5.0981    -4.1309 H       
  35 H35            3.9530     5.9450    -3.5534 H       
  36 H36            5.8607     3.7744    -7.7770 H       
@<TRIPOS>BOND
   1    1    2 ar
   2    1    6 ar
   3    1   25 1
   4    2    3 ar
   5    2   21 1
   6    3    4 ar
   7    3   26 1
   8    4    5 ar
   9    4   27 1
  10    5    6 ar
  11    5    7 1
  12    6   28 1
  13    7    8 1
  14    7   29 1
  15    7   30 1
  16    8    9 ar
  17    8   13 ar
  18    9   10 ar
  19    9   31 1
  20   10   11 ar
  21   10   14 1
  22   11   12 ar
  23   11   17 1
  24   12   13 ar
  25   12   32 1
  26   13   33 1
  27   14   15 1
  28   14   34 1
  29   14   35 1
  30   15   16 am
  31   15   20 2
  32   16   17 am
  33   16   19 1
  34   17   18 2
  35   19   36 1
  36   21   22 1
  37   21   23 1
  38   21   24 1

#	End of record

