#	Name: ASD10860001
#	Creating user name:	WinNT
#	Creation time:	15. 06. 2019 21:28

#	Modifying user name:	WinNT
#	Modification time:	15. 06. 2019 21:28

#	Program:	/corina/corina34_cracker 3.40 0067  02.08.2006

@<TRIPOS>MOLECULE
ASD10860001
  72   78    0    0    0
SMALL
NO_CHARGES


@<TRIPOS>ATOM
   1 C1            -0.0180     1.4776     0.0102 C.3     
   2 C2             0.0021    -0.0041     0.0020 C.2     
   3 N3             0.9211    -0.5798    -0.7961 N.2     
   4 C4             1.8235     0.1153    -1.4749 C.2     
   5 N5             1.9740     1.4785    -1.2875 N.pl3   
   6 N6             1.2280     3.3562     0.2341 N.pl3   
   7 C7             0.2206     3.3349     1.1966 C.2     
   8 N8            -0.5191     2.2536     1.1198 N.2     
   9 C9             1.4784     1.9378    -0.0016 C.3     
  10 C10            1.8751     4.5145    -0.3869 C.3     
  11 O11            2.3798     5.3892     0.6258 O.3     
  12 C12            1.0635     6.7745    -0.8160 C.3     
  13 C13            0.8480     5.3042    -1.2148 C.3     
  14 O14            1.4408     7.5532    -1.9532 O.3     
  15 C15            2.2083     6.7455     0.2089 C.3     
  16 C16            1.8499     7.6174     1.4146 C.3     
  17 O17            2.9369     8.4946     1.7083 O.3     
  18 C18            1.8432    11.3067    -1.2900 C.3     
  19 O19            2.0156    10.1151    -2.0571 O.3     
  20 P20            0.8512     9.0203    -2.2521 P.3     
  21 C21            3.1870    11.7318    -0.6952 C.3     
  22 C22            4.3041    13.7570    -0.3900 C.3     
  23 O23            3.6519    12.9175    -1.3464 O.3     
  24 C24            3.0180    12.0583     0.7977 C.3     
  25 C25            3.7614    13.3899     1.0002 C.3     
  26 O26            3.6071    11.0316     1.5977 O.3     
  27 P27            2.7426     9.9357     2.3992 P.3     
  28 O28            1.3118    10.3121     2.3625 O.2     
  29 O29            3.2426     9.8704     3.9282 O.3     
  30 O30            0.3489     9.0763    -3.6431 O.2     
  31 O31           -0.3551     9.3320    -1.2324 O.3     
  32 N32            4.0123    15.1627    -0.6819 N.pl3   
  33 C33            4.7659    16.2342    -0.3130 C.2     
  34 C34            4.1133    17.3595    -0.8014 C.2     
  35 N35            2.9994    16.9349    -1.4419 N.2     
  36 C36            2.9391    15.6356    -1.3781 C.2     
  37 C37            4.7115    18.6726    -0.5416 C.2     
  38 N38            5.9357    16.3972     0.3838 N.pl3   
  39 C39            6.4472    17.6383     0.5932 C.2     
  40 N40            5.8612    18.7292     0.1486 N.2     
  41 O41            4.1755    19.6929    -0.9449 O.2     
  42 O42            4.8375    13.2227     1.9255 O.3     
  43 O43            1.0931     5.1268    -2.6114 O.3     
  44 O44           -0.7665    -0.6614     0.6761 O.2     
  45 N45            2.6195    -0.5259    -2.3755 N.pl3   
  46 N46            7.6170    17.7585     1.2946 N.pl3   
  47 H47           -0.5012     1.8318    -0.9004 H       
  48 H48            2.3706     2.0677    -1.9482 H       
  49 H49            0.0665     4.1187     1.9234 H       
  50 H50            2.0381     1.4966     0.8230 H       
  51 H51            2.6910     4.1822    -1.0288 H       
  52 H52            0.1611     7.1799    -0.3600 H       
  53 H53           -0.1646     4.9879    -0.9644 H       
  54 H54            3.1273     7.1101    -0.2485 H       
  55 H55            0.9605     8.2049     1.1865 H       
  56 H56            1.6532     6.9811     2.2774 H       
  57 H57            1.4634    12.1007    -1.9330 H       
  58 H58            1.1324    11.1206    -0.4849 H       
  59 H59            3.9167    10.9323    -0.8201 H       
  60 H60            5.3804    13.5882    -0.4231 H       
  61 H61            1.9633    12.1742     1.0417 H       
  62 H62            3.0737    14.1581     1.3537 H       
  63 H63            2.7643     9.2290     4.4714 H       
  64 H64           -0.7585    10.2023    -1.3547 H       
  65 H65            2.1577    15.0264    -1.8079 H       
  66 H66            6.4015    15.6201     0.7302 H       
  67 H67            5.3701    14.0189     2.0574 H       
  68 H68            0.4748     5.6026    -3.1827 H       
  69 H69            2.5229    -1.4810    -2.5146 H       
  70 H70            3.2830    -0.0274    -2.8776 H       
  71 H71            8.0642    16.9663     1.6313 H       
  72 H72            7.9985    18.6358     1.4548 H       
@<TRIPOS>BOND
   1    1    2 1
   2    1    9 1
   3    1    8 1
   4    1   47 1
   5    2    3 1
   6    2   44 2
   7    3    4 2
   8    4    5 1
   9    4   45 1
  10    5    9 1
  11    5   48 1
  12    6    7 1
  13    6    9 1
  14    6   10 1
  15    7    8 2
  16    7   49 1
  17    9   50 1
  18   10   11 1
  19   10   13 1
  20   10   51 1
  21   11   15 1
  22   12   13 1
  23   12   15 1
  24   12   14 1
  25   12   52 1
  26   13   43 1
  27   13   53 1
  28   14   20 1
  29   15   16 1
  30   15   54 1
  31   16   17 1
  32   16   55 1
  33   16   56 1
  34   17   27 1
  35   18   19 1
  36   18   21 1
  37   18   57 1
  38   18   58 1
  39   19   20 1
  40   20   30 2
  41   20   31 1
  42   21   24 1
  43   21   23 1
  44   21   59 1
  45   22   23 1
  46   22   25 1
  47   22   32 1
  48   22   60 1
  49   24   25 1
  50   24   26 1
  51   24   61 1
  52   25   42 1
  53   25   62 1
  54   26   27 1
  55   27   28 2
  56   27   29 1
  57   29   63 1
  58   31   64 1
  59   32   33 1
  60   32   36 1
  61   33   38 1
  62   33   34 2
  63   34   35 1
  64   34   37 1
  65   35   36 2
  66   36   65 1
  67   37   40 1
  68   37   41 2
  69   38   39 1
  70   38   66 1
  71   39   40 2
  72   39   46 1
  73   42   67 1
  74   43   68 1
  75   45   69 1
  76   45   70 1
  77   46   71 1
  78   46   72 1

#	End of record

