#	Name: ASD10220183
#	Creating user name:	WinNT
#	Creation time:	15. 06. 2019 21:26

#	Modifying user name:	WinNT
#	Modification time:	15. 06. 2019 21:26

#	Program:	/corina/corina34_cracker 3.40 0067  02.08.2006

@<TRIPOS>MOLECULE
ASD10220183
  38   38    0    0    0
SMALL
NO_CHARGES


@<TRIPOS>ATOM
   1 C1            -0.0168     1.3881     0.0097 C.ar    
   2 C2             0.0021    -0.0041     0.0020 C.ar    
   3 C3            -1.1928    -0.7187     0.0096 C.ar    
   4 C4            -2.4011    -0.0471     0.0252 C.ar    
   5 C5            -2.4225     1.3493     0.0334 C.ar    
   6 C6            -1.2226     2.0640     0.0306 C.ar    
   7 C7            -3.7130     2.0697     0.0495 C.2     
   8 O8            -4.7592     1.4453     0.0557 O.2     
   9 C9            -3.7335     3.4825     0.0577 C.2     
  10 C10           -4.9135     4.1412     0.0725 C.2     
  11 N11           -4.9332     5.5067     0.0805 N.pl3   
  12 C12           -3.6753     6.2575     0.0730 C.3     
  13 C13           -6.2124     6.2207     0.0965 C.3     
  14 O14            1.1519     2.0835     0.0022 O.3     
  15 C15            1.0584     3.5094     0.0108 C.3     
  16 O16            1.1887    -0.6665    -0.0133 O.3     
  17 C17            1.7678    -0.9895     1.2525 C.3     
  18 O18           -1.1713    -2.0785     0.0012 O.3     
  19 C19           -2.4341    -2.7473     0.0097 C.3     
  20 H20           -3.3277    -0.6018     0.0307 H       
  21 H21           -1.2367     3.1439     0.0372 H       
  22 H22           -2.8061     4.0360     0.0523 H       
  23 H23           -5.8409     3.5877     0.0780 H       
  24 H24           -3.3729     6.4496    -0.9564 H       
  25 H25           -3.8146     7.2050     0.5936 H       
  26 H26           -2.9025     5.6766     0.5764 H       
  27 H27           -6.7718     5.9440     0.9901 H       
  28 H28           -6.0287     7.2951     0.1009 H       
  29 H29           -6.7883     5.9542    -0.7897 H       
  30 H30            2.0601     3.9393     0.0035 H       
  31 H31            0.5135     3.8431    -0.8722 H       
  32 H32            0.5305     3.8335     0.9076 H       
  33 H33            1.9514    -0.0726     1.8127 H       
  34 H34            1.0839    -1.6268     1.8129 H       
  35 H35            2.7099    -1.5154     1.0975 H       
  36 H36           -3.0045    -2.4580    -0.8729 H       
  37 H37           -2.2743    -3.8255     0.0016 H       
  38 H38           -2.9868    -2.4687     0.9069 H       
@<TRIPOS>BOND
   1    1    2 ar
   2    1   14 1
   3    1    6 ar
   4    2    3 ar
   5    2   16 1
   6    3    4 ar
   7    3   18 1
   8    4    5 ar
   9    4   20 1
  10    5    6 ar
  11    5    7 1
  12    6   21 1
  13    7    8 2
  14    7    9 1
  15    9   10 2
  16    9   22 1
  17   10   11 1
  18   10   23 1
  19   11   12 1
  20   11   13 1
  21   12   24 1
  22   12   25 1
  23   12   26 1
  24   13   27 1
  25   13   28 1
  26   13   29 1
  27   14   15 1
  28   15   30 1
  29   15   31 1
  30   15   32 1
  31   16   17 1
  32   17   33 1
  33   17   34 1
  34   17   35 1
  35   18   19 1
  36   19   36 1
  37   19   37 1
  38   19   38 1

#	End of record

