#	Name: ASD13490066
#	Creating user name:	WinNT
#	Creation time:	15. 06. 2019 21:30

#	Modifying user name:	WinNT
#	Modification time:	15. 06. 2019 21:30

#	Program:	/corina/corina34_cracker 3.40 0067  02.08.2006

@<TRIPOS>MOLECULE
ASD13490066
  58   61    0    0    0
SMALL
NO_CHARGES


@<TRIPOS>ATOM
   1 C1            -0.0169     1.3925     0.0097 C.ar    
   2 C2             0.0021    -0.0041     0.0020 C.ar    
   3 C3             1.2098    -0.6758    -0.0131 C.ar    
   4 C4             2.4059     0.0413    -0.0207 C.ar    
   5 C5             2.3860     1.4303    -0.0130 C.ar    
   6 C6             1.1848     2.1049     0.0021 C.ar    
   7 N7             3.6288    -0.6399    -0.0356 N.pl3   
   8 C8             4.6780    -0.4131    -0.8889 C.2     
   9 C9             5.6474    -1.2861    -0.5556 C.2     
  10 N10            5.2081    -2.0279     0.4721 N.2     
  11 C11            4.0028    -1.6467     0.7966 C.2     
  12 C12            6.9932    -1.4091    -1.2225 C.3     
  13 O13            1.2319    -2.0352    -0.0202 O.3     
  14 C14           -0.0306    -2.7045    -0.0113 C.3     
  15 C15           -1.3049     2.1147     0.0197 C.2     
  16 N16           -1.3217     3.4624     0.0271 N.am    
  17 O17           -2.3500     1.4937     0.0213 O.2     
  18 C18           -2.5995     4.1788     0.0371 C.3     
  19 C19           -4.4023     5.1173     1.4854 C.3     
  20 C20           -3.0977     4.3156     1.4785 C.3     
  21 C21           -2.4086     5.5724    -0.5659 C.3     
  22 N22           -3.6846     6.2987    -0.5369 N.3     
  23 C23           -4.1591     6.4837     0.8404 C.3     
  24 C24           -3.5726     7.5876    -1.2327 C.3     
  25 C25           -4.9440     8.1900    -1.3981 C.ar    
  26 C26           -6.9510     8.4563    -2.6763 C.ar    
  27 C27           -5.6933     7.9037    -2.5240 C.ar    
  28 C28           -5.4547     9.0242    -0.4212 C.ar    
  29 C29           -6.7125     9.5770    -0.5724 C.ar    
  30 C30           -7.4603     9.2953    -1.7015 C.ar    
  31 Br31          -9.1809    10.0517    -1.9093 Br      
  32 H32           -0.9251    -0.5579     0.0083 H       
  33 H33            3.3141     1.9825    -0.0189 H       
  34 H34            1.1722     3.1848     0.0080 H       
  35 H35            4.7189     0.3241    -1.6771 H       
  36 H36            3.4022    -2.0637     1.5915 H       
  37 H37            7.7073    -0.7542    -0.7233 H       
  38 H38            7.3385    -2.4409    -1.1562 H       
  39 H39            6.9071    -1.1214    -2.2703 H       
  40 H40           -0.6009    -2.4163    -0.8943 H       
  41 H41            0.1297    -3.7826    -0.0183 H       
  42 H42           -0.5836    -2.4252     0.8856 H       
  43 H43           -0.4879     3.9579     0.0259 H       
  44 H44           -3.3318     3.6252    -0.5507 H       
  45 H45           -5.1634     4.5787     0.9208 H       
  46 H46           -4.7395     5.2547     2.5127 H       
  47 H47           -3.2765     3.3254     1.8976 H       
  48 H48           -2.3479     4.8349     2.0753 H       
  49 H49           -1.6656     6.1202     0.0137 H       
  50 H50           -2.0676     5.4784    -1.5969 H       
  51 H51           -5.0894     7.0515     0.8308 H       
  52 H52           -3.4079     7.0272     1.4134 H       
  53 H53           -2.9472     8.2627    -0.6486 H       
  54 H54           -3.1229     7.4332    -2.2136 H       
  55 H55           -7.5360     8.2332    -3.5563 H       
  56 H56           -5.2957     7.2484    -3.2849 H       
  57 H57           -4.8709     9.2438     0.4605 H       
  58 H58           -7.1115    10.2284     0.1910 H       
@<TRIPOS>BOND
   1    1    2 ar
   2    1    6 ar
   3    1   15 1
   4    2    3 ar
   5    2   32 1
   6    3    4 ar
   7    3   13 1
   8    4    5 ar
   9    4    7 1
  10    5    6 ar
  11    5   33 1
  12    6   34 1
  13    7    8 1
  14    7   11 1
  15    8    9 2
  16    8   35 1
  17    9   10 1
  18    9   12 1
  19   10   11 2
  20   11   36 1
  21   12   37 1
  22   12   38 1
  23   12   39 1
  24   13   14 1
  25   14   40 1
  26   14   41 1
  27   14   42 1
  28   15   16 am
  29   15   17 2
  30   16   18 1
  31   16   43 1
  32   18   21 1
  33   18   20 1
  34   18   44 1
  35   19   20 1
  36   19   23 1
  37   19   45 1
  38   19   46 1
  39   20   47 1
  40   20   48 1
  41   21   22 1
  42   21   49 1
  43   21   50 1
  44   22   23 1
  45   22   24 1
  46   23   51 1
  47   23   52 1
  48   24   25 1
  49   24   53 1
  50   24   54 1
  51   25   28 ar
  52   25   27 ar
  53   26   27 ar
  54   26   30 ar
  55   26   55 1
  56   27   56 1
  57   28   29 ar
  58   28   57 1
  59   29   30 ar
  60   29   58 1
  61   30   31 1

#	End of record

