#	Name: ASD10370003
#	Creating user name:	WinNT
#	Creation time:	15. 06. 2019 21:26

#	Modifying user name:	WinNT
#	Modification time:	15. 06. 2019 21:26

#	Program:	/corina/corina34_cracker 3.40 0067  02.08.2006

@<TRIPOS>MOLECULE
ASD10370003
  30   30    0    0    0
SMALL
NO_CHARGES


@<TRIPOS>ATOM
   1 C1            -0.0188     1.5364     0.0105 C.3     
   2 C2             0.0021    -0.0041     0.0020 C.3     
   3 N3             1.3565    -0.5546    -0.1051 N.4     
   4 C4             2.3478     0.3374     0.5588 C.3     
   5 S5             1.7614     1.9894    -0.0041 S.3     
   6 C6             3.7658     0.0554     0.0582 C.3     
   7 C7             4.7642     0.9013     0.8510 C.3     
   8 O8             4.0674    -1.3299     0.2371 O.3     
   9 C9             6.1895     0.5290     0.4377 C.3     
  10 C10            7.1878     1.3749     1.2306 C.3     
  11 O11            7.0975     1.0430     2.6176 O.3     
  12 O12            4.5936     0.6547     2.2482 O.3     
  13 O13            6.3601     0.7756    -0.9595 O.3     
  14 O14            8.5123     1.1115     0.7630 O.3     
  15 H15           -0.5193     1.9184    -0.8793 H       
  16 H16           -0.5022     1.9088     0.9137 H       
  17 H17           -0.4530    -0.3669     0.9236 H       
  18 H18           -0.5895    -0.3590    -0.8419 H       
  19 H19            1.3811    -1.4626     0.3342 H       
  20 H20            1.5987    -0.6521    -1.0798 H       
  21 H21            2.2912     0.2490     1.6437 H       
  22 H22            3.8347     0.3085    -0.9998 H       
  23 H23            4.5902     1.9573     0.6446 H       
  24 H24            4.0253    -1.6260     1.1567 H       
  25 H25            6.3635    -0.5271     0.6442 H       
  26 H26            6.9578     2.4315     1.0941 H       
  27 H27            7.2902     0.1159     2.8135 H       
  28 H28            4.7335    -0.2671     2.5049 H       
  29 H29            6.2201     1.6973    -1.2161 H       
  30 H30            9.1987     1.6146     1.2221 H       
@<TRIPOS>BOND
   1    1    2 1
   2    1    5 1
   3    1   15 1
   4    1   16 1
   5    2    3 1
   6    2   17 1
   7    2   18 1
   8    3    4 1
   9    3   19 1
  10    3   20 1
  11    4    5 1
  12    4    6 1
  13    4   21 1
  14    6    7 1
  15    6    8 1
  16    6   22 1
  17    7    9 1
  18    7   12 1
  19    7   23 1
  20    8   24 1
  21    9   10 1
  22    9   13 1
  23    9   25 1
  24   10   11 1
  25   10   14 1
  26   10   26 1
  27   11   27 1
  28   12   28 1
  29   13   29 1
  30   14   30 1

#	End of record

