#	Name: ASD10420160
#	Creating user name:	WinNT
#	Creation time:	15. 06. 2019 21:27

#	Modifying user name:	WinNT
#	Modification time:	15. 06. 2019 21:27

#	Program:	/corina/corina34_cracker 3.40 0067  02.08.2006

@<TRIPOS>MOLECULE
ASD10420160
  30   31    0    0    0
SMALL
NO_CHARGES


@<TRIPOS>ATOM
   1 C1            -0.0161     1.3388     0.0094 C.2     
   2 C2             0.0021    -0.0041     0.0020 C.2     
   3 C3             3.6550     2.1224    -0.0210 C.ar    
   4 C4             3.6387     3.5046    -0.0129 C.ar    
   5 C5             2.4712     1.4134    -0.0139 C.ar    
   6 C6             1.2342     3.4894     0.0095 C.ar    
   7 C7            -1.2465    -2.1559     0.0024 C.ar    
   8 C8            -2.4845    -0.0771     0.0258 C.ar    
   9 C9             2.4293     4.1909     0.0023 C.ar    
  10 C10           -2.4326    -2.8578     0.0104 C.ar    
  11 C11           -3.6667    -0.7858     0.0338 C.ar    
  12 C12           -3.6458    -2.1769     0.0256 C.ar    
  13 C13            1.2501     2.0930     0.0014 C.ar    
  14 C14           -1.2635    -0.7579     0.0101 C.ar    
  15 N15            2.4192     5.5878     0.0113 N.pl3   
  16 N16           -4.8450    -2.8912     0.0332 N.pl3   
  17 Br17          -2.4109    -4.7487     0.0000 Br      
  18 Br18          -5.3188     0.1338     0.0557 Br      
  19 H19           -0.9587     1.8660     0.0167 H       
  20 H20            0.9446    -0.5313    -0.0098 H       
  21 H21            4.5976     1.5955    -0.0370 H       
  22 H22            4.5687     4.0535    -0.0185 H       
  23 H23            2.4884     0.3335    -0.0206 H       
  24 H24            0.2940     4.0206     0.0213 H       
  25 H25           -0.3051    -2.6851    -0.0054 H       
  26 H26           -2.5015     1.0027     0.0314 H       
  27 H27            3.2557     6.0789     0.0069 H       
  28 H28            1.5757     6.0667     0.0219 H       
  29 H29           -4.8319    -3.8611     0.0279 H       
  30 H30           -5.6915    -2.4177     0.0439 H       
@<TRIPOS>BOND
   1    1    2 2
   2    1   13 1
   3    1   19 1
   4    2   14 1
   5    2   20 1
   6    3    4 ar
   7    3    5 ar
   8    3   21 1
   9    4    9 ar
  10    4   22 1
  11    5   13 ar
  12    5   23 1
  13    6    9 ar
  14    6   13 ar
  15    6   24 1
  16    7   10 ar
  17    7   14 ar
  18    7   25 1
  19    8   11 ar
  20    8   14 ar
  21    8   26 1
  22    9   15 1
  23   10   12 ar
  24   10   17 1
  25   11   12 ar
  26   11   18 1
  27   12   16 1
  28   15   27 1
  29   15   28 1
  30   16   29 1
  31   16   30 1

#	End of record

