#	Name: ASD10220073
#	Creating user name:	WinNT
#	Creation time:	15. 06. 2019 21:26

#	Modifying user name:	WinNT
#	Modification time:	15. 06. 2019 21:26

#	Program:	/corina/corina34_cracker 3.40 0067  02.08.2006

@<TRIPOS>MOLECULE
ASD10220073
  31   33    0    0    0
SMALL
NO_CHARGES


@<TRIPOS>ATOM
   1 C1            -0.0065     1.4605    -0.1678 C.2     
   2 C2             0.0231     0.0533    -0.3121 C.2     
   3 C3            -1.1146    -0.6742    -0.3671 C.2     
   4 C4            -2.4364    -0.0553    -0.2809 C.2     
   5 C5            -2.5499     1.3187    -0.1381 C.2     
   6 C6            -1.3372     2.1493    -0.0679 C.2     
   7 O7            -3.6806    -0.5694    -0.3117 O.3     
   8 C8            -4.6054     0.3860    -0.1976 C.2     
   9 C9            -3.9876     1.6031    -0.0837 C.2     
  10 C10           -4.6316     2.9203     0.0630 C.2     
  11 O11           -3.9534     3.9100     0.2637 O.2     
  12 C12           -6.0992     3.0389    -0.0336 C.ar    
  13 C13           -6.7679     4.0518     0.6605 C.ar    
  14 C14           -8.1372     4.1592     0.5673 C.ar    
  15 C15           -8.8551     3.2621    -0.2157 C.ar    
  16 C16           -8.1941     2.2534    -0.9075 C.ar    
  17 C17           -6.8245     2.1422    -0.8240 C.ar    
  18 Br18          -0.9930    -2.5512    -0.5622 Br      
  19 Br19           1.6914    -0.8289    -0.4313 Br      
  20 O20            1.0259     2.0994    -0.1205 O.2     
  21 O21           -1.4103     3.3536     0.0573 O.2     
  22 O22          -10.2048     3.3711    -0.3045 O.3     
  23 C23          -10.8801     2.4167    -1.1262 C.3     
  24 H24           -5.6733     0.2247    -0.1950 H       
  25 H25           -6.2111     4.7488     1.2692 H       
  26 H26           -8.6546     4.9411     1.1033 H       
  27 H27           -8.7555     1.5586    -1.5146 H       
  28 H28           -6.3118     1.3583    -1.3617 H       
  29 H29          -11.9515     2.6165    -1.1095 H       
  30 H30          -10.5121     2.4932    -2.1493 H       
  31 H31          -10.6918     1.4125    -0.7464 H       
@<TRIPOS>BOND
   1    1    2 1
   2    1   20 2
   3    1    6 1
   4    2    3 2
   5    2   19 1
   6    3    4 1
   7    3   18 1
   8    4    5 2
   9    4    7 1
  10    5    6 1
  11    5    9 1
  12    6   21 2
  13    7    8 1
  14    8    9 2
  15    8   24 1
  16    9   10 1
  17   10   11 2
  18   10   12 1
  19   12   13 ar
  20   12   17 ar
  21   13   14 ar
  22   13   25 1
  23   14   15 ar
  24   14   26 1
  25   15   16 ar
  26   15   22 1
  27   16   17 ar
  28   16   27 1
  29   17   28 1
  30   22   23 1
  31   23   29 1
  32   23   30 1
  33   23   31 1

#	End of record

