#	Name: ASD10160123
#	Creating user name:	WinNT
#	Creation time:	15. 06. 2019 21:25

#	Modifying user name:	WinNT
#	Modification time:	15. 06. 2019 21:25

#	Program:	/corina/corina34_cracker 3.40 0067  02.08.2006

@<TRIPOS>MOLECULE
ASD10160123
  42   44    0    0    0
SMALL
NO_CHARGES


@<TRIPOS>ATOM
   1 C1            -0.3993     1.1094    -1.9472 C.2     
   2 C2            -0.2790    -0.2701    -1.4404 C.ar    
   3 C3             0.9048    -0.9906    -1.6394 C.ar    
   4 C4             1.0122    -2.2814    -1.1625 C.ar    
   5 C5            -0.0519    -2.8646    -0.4871 C.ar    
   6 C6            -1.2303    -2.1513    -0.2880 C.ar    
   7 C7            -1.3446    -0.8606    -0.7547 C.ar    
   8 O8             0.5307     1.6229    -2.5390 O.2     
   9 N9            -1.5418     1.7991    -1.7593 N.am    
  10 S10           -1.6769     3.3483    -2.3284 S.o2    
  11 O11           -2.9793     3.7551    -1.9317 O.2     
  12 O12           -0.5203     4.0067    -1.8303 O.2     
  13 C13           -1.5851     3.1776    -4.1320 C.3     
  14 F14            1.9398    -0.4238    -2.2972 F       
  15 O15            0.0574    -4.1342    -0.0202 O.3     
  16 C16            1.5467    -5.5236    -1.2599 C.ar    
  17 C17            1.2596    -4.7565    -0.1396 C.ar    
  18 C18            2.2199    -4.6334     0.8592 C.ar    
  19 C19            3.4317    -5.2866     0.6921 C.ar    
  20 C20            3.6437    -6.0332    -0.4532 C.ar    
  21 N21            2.7113    -6.1289    -1.3808 N.ar    
  22 C22            4.9577    -6.7461    -0.6434 C.3     
  23 C23            4.8167    -8.2710    -0.7828 C.3     
  24 C24            5.9016    -8.1930    -1.8699 C.3     
  25 C25            5.4578    -6.7383    -2.0976 C.3     
  26 Cl26           4.6680    -5.1686     1.9051 Cl      
  27 Cl27          -2.5562    -2.8876     0.5568 Cl      
  28 H28            1.9246    -2.8387    -1.3151 H       
  29 H29           -2.2581    -0.3070    -0.5954 H       
  30 H30           -2.2850     1.3880    -1.2907 H       
  31 H31           -2.4013     2.5440    -4.4790 H       
  32 H32           -1.6666     4.1612    -4.5947 H       
  33 H33           -0.6321     2.7250    -4.4061 H       
  34 H34            0.8063    -5.6293    -2.0390 H       
  35 H35            2.0267    -4.0432     1.7428 H       
  36 H36            5.7131    -6.4419     0.0811 H       
  37 H37            5.1273    -8.8213     0.1053 H       
  38 H38            3.8436    -8.5870    -1.1589 H       
  39 H39            6.9160    -8.2844    -1.4817 H       
  40 H40            5.7132    -8.8455    -2.7224 H       
  41 H41            4.6601    -6.6353    -2.8332 H       
  42 H42            6.2861    -6.0512    -2.2708 H       
@<TRIPOS>BOND
   1    1    2 1
   2    1    8 2
   3    1    9 am
   4    2    3 ar
   5    2    7 ar
   6    3    4 ar
   7    3   14 1
   8    4    5 ar
   9    4   28 1
  10    5    6 ar
  11    5   15 1
  12    6    7 ar
  13    6   27 1
  14    7   29 1
  15    9   10 am
  16    9   30 1
  17   10   11 2
  18   10   12 2
  19   10   13 1
  20   13   31 1
  21   13   32 1
  22   13   33 1
  23   15   17 1
  24   16   17 ar
  25   16   21 ar
  26   16   34 1
  27   17   18 ar
  28   18   19 ar
  29   18   35 1
  30   19   20 ar
  31   19   26 1
  32   20   21 ar
  33   20   22 1
  34   22   23 1
  35   22   25 1
  36   22   36 1
  37   23   24 1
  38   23   37 1
  39   23   38 1
  40   24   25 1
  41   24   39 1
  42   24   40 1
  43   25   41 1
  44   25   42 1

#	End of record

