#	Name: ASD10950019
#	Creating user name:	WinNT
#	Creation time:	15. 06. 2019 21:28

#	Modifying user name:	WinNT
#	Modification time:	15. 06. 2019 21:28

#	Program:	/corina/corina34_cracker 3.40 0067  02.08.2006

@<TRIPOS>MOLECULE
ASD10950019
  53   56    0    0    0
SMALL
NO_CHARGES


@<TRIPOS>ATOM
   1 C1            -1.1644     0.1216    -3.5975 C.3     
   2 O2            -0.8248    -0.8245    -2.5498 O.3     
   3 C3            -1.8488    -1.4093    -1.8985 C.2     
   4 O4            -2.9940    -1.1363    -2.1976 O.2     
   5 C5            -1.5790    -2.3826    -0.8204 C.ar    
   6 C6            -0.4032    -3.1352    -0.8334 C.ar    
   7 C7            -0.1576    -4.0425     0.1766 C.ar    
   8 C8            -1.0734    -4.2077     1.2002 C.ar    
   9 C9            -2.2409    -3.4649     1.2192 C.ar    
  10 C10           -2.4962    -2.5499     0.2192 C.ar    
  11 C11           -3.7679    -1.7416     0.2418 C.3     
  12 N12           -4.8797    -2.5354    -0.2943 N.am    
  13 C13           -4.9661    -3.0942    -1.6458 C.3     
  14 C14           -4.3098    -4.4761    -1.6692 C.3     
  15 C15           -4.3406    -5.0231    -3.0731 C.2     
  16 C16           -5.2667    -5.8466    -3.5890 C.2     
  17 N17           -4.9649    -6.1290    -4.8934 N.pl3   
  18 C18           -3.8080    -5.4776    -5.2578 C.ar    
  19 C19           -3.3691    -4.7520    -4.1354 C.ar    
  20 C20           -2.2045    -3.9857    -4.2131 C.ar    
  21 C21           -1.4962    -3.9446    -5.3807 C.ar    
  22 C22           -1.9253    -4.6585    -6.4913 C.ar    
  23 C23           -3.0732    -5.4182    -6.4377 C.ar    
  24 C24           -5.8053    -2.6600     0.6739 C.2     
  25 O25           -6.8551    -3.2609     0.5618 O.2     
  26 C26           -5.3552    -1.9576     1.8959 C.2     
  27 C27           -4.1408    -1.4000     1.6655 C.2     
  28 C28           -3.3715    -0.6440     2.5814 C.2     
  29 O29           -3.7381    -0.5301     3.7329 O.2     
  30 C30           -2.0969     0.0196     2.1273 C.3     
  31 O31           -6.0440    -1.8840     3.0565 O.3     
  32 H32           -0.2502     0.5179    -4.0395 H       
  33 H33           -1.7508    -0.3822    -4.3660 H       
  34 H34           -1.7472     0.9394    -3.1737 H       
  35 H35            0.3122    -3.0078    -1.6323 H       
  36 H36            0.7516    -4.6254     0.1678 H       
  37 H37           -0.8765    -4.9198     1.9880 H       
  38 H38           -2.9517    -3.5987     2.0213 H       
  39 H39           -3.6424    -0.8301    -0.3426 H       
  40 H40           -6.0130    -3.1843    -1.9355 H       
  41 H41           -4.4510    -2.4355    -2.3449 H       
  42 H42           -3.2759    -4.3930    -1.3343 H       
  43 H43           -4.8539    -5.1480    -1.0054 H       
  44 H44           -6.1228    -6.2299    -3.0537 H       
  45 H45           -5.4880    -6.7029    -5.4747 H       
  46 H46           -1.8649    -3.4272    -3.3533 H       
  47 H47           -0.5954    -3.3518    -5.4402 H       
  48 H48           -1.3549    -4.6158    -7.4074 H       
  49 H49           -3.3988    -5.9700    -7.3071 H       
  50 H50           -2.3295     0.9876     1.6835 H       
  51 H51           -1.4364     0.1614     2.9827 H       
  52 H52           -1.6031    -0.6102     1.3874 H       
  53 H53           -6.8948    -2.3435     3.0388 H       
@<TRIPOS>BOND
   1    1    2 1
   2    1   32 1
   3    1   33 1
   4    1   34 1
   5    2    3 1
   6    3    4 2
   7    3    5 1
   8    5    6 ar
   9    5   10 ar
  10    6    7 ar
  11    6   35 1
  12    7    8 ar
  13    7   36 1
  14    8    9 ar
  15    8   37 1
  16    9   10 ar
  17    9   38 1
  18   10   11 1
  19   11   12 1
  20   11   27 1
  21   11   39 1
  22   12   13 1
  23   12   24 am
  24   13   14 1
  25   13   40 1
  26   13   41 1
  27   14   15 1
  28   14   42 1
  29   14   43 1
  30   15   16 2
  31   15   19 1
  32   16   17 1
  33   16   44 1
  34   17   18 1
  35   17   45 1
  36   18   19 ar
  37   18   23 ar
  38   19   20 ar
  39   20   21 ar
  40   20   46 1
  41   21   22 ar
  42   21   47 1
  43   22   23 ar
  44   22   48 1
  45   23   49 1
  46   24   25 2
  47   24   26 1
  48   26   27 2
  49   26   31 1
  50   27   28 1
  51   28   29 2
  52   28   30 1
  53   30   50 1
  54   30   51 1
  55   30   52 1
  56   31   53 1

#	End of record

