#	Name: ASD10610103
#	Creating user name:	WinNT
#	Creation time:	15. 06. 2019 21:28

#	Modifying user name:	WinNT
#	Modification time:	15. 06. 2019 21:28

#	Program:	/corina/corina34_cracker 3.40 0067  02.08.2006

@<TRIPOS>MOLECULE
ASD10610103
  64   68    0    0    0
SMALL
NO_CHARGES


@<TRIPOS>ATOM
   1 C1             0.9732     2.9677    -1.4599 C.ar    
   2 N2             1.7877     2.9741    -2.5046 N.ar    
   3 C3             2.9258     2.3055    -2.4815 C.ar    
   4 C4             3.2654     1.5832    -1.3306 C.ar    
   5 C5             2.3757     1.6034    -0.2490 C.ar    
   6 N6             1.2576     2.2976    -0.3532 N.ar    
   7 C7             4.5274     0.8204    -1.2595 C.2     
   8 O8             5.2878     0.8137    -2.2081 O.2     
   9 N9             4.8364     0.1316    -0.1431 N.am    
  10 O10            7.3339     0.2332     1.1917 O.3     
  11 C11            7.3569     0.0509    -0.2300 C.3     
  12 C12            6.0326    -0.7136    -0.1115 C.3     
  13 C13            6.5848    -0.9848     1.2934 C.3     
  14 C14            5.9318    -1.9323    -0.9922 C.2     
  15 N15            4.7522    -2.5700    -1.1278 N.am    
  16 O16            6.9122    -2.3393    -1.5789 O.2     
  17 C17            4.6771    -3.8160    -1.8946 C.3     
  18 C18            4.5054    -3.4913    -3.3799 C.3     
  19 C19            1.3372    -6.1216    -0.5438 C.ar    
  20 C20            2.4221    -6.7533    -1.1496 C.ar    
  21 C21            3.4993    -6.0044    -1.5841 C.ar    
  22 C22            3.5004    -4.6285    -1.4188 C.ar    
  23 C23            2.4259    -3.9986    -0.8183 C.ar    
  24 C24            1.3453    -4.7373    -0.3804 C.ar    
  25 C25            0.1759    -6.9185    -0.0810 C.ar    
  26 C26           -0.3209    -6.7504     1.2209 C.ar    
  27 C27           -1.4136    -7.5050     1.6444 C.ar    
  28 C28           -2.0015    -8.4130     0.7828 C.ar    
  29 C29           -1.5099    -8.5779    -0.5012 C.ar    
  30 C30           -0.4307    -7.8327    -0.9372 C.ar    
  31 N31           -0.0457    -5.5157     3.3829 N.2     
  32 N32            0.7505    -4.6126     3.8425 N.pl3   
  33 N33            1.6023    -4.2921     2.9322 N.2     
  34 N34            1.3642    -4.9871     1.8720 N.2     
  35 C35            0.3135    -5.7758     2.1409 C.2     
  36 C36            0.6949    -4.0404     5.1900 C.3     
  37 F37           -1.8979    -7.3498     2.8961 F       
  38 F38            4.5520    -6.6142    -2.1715 F       
  39 Cl39          -2.2574    -9.7224    -1.5713 Cl      
  40 O40           -0.1808     3.6710    -1.5231 O.3     
  41 C41           -1.0269     3.6340    -0.3721 C.3     
  42 H42            3.5847     2.3150    -3.3371 H       
  43 H43            2.6008     1.0592     0.6562 H       
  44 H44            4.2669     0.1954     0.6395 H       
  45 H45            7.2697     0.9836    -0.7873 H       
  46 H46            8.1851    -0.5688    -0.5735 H       
  47 H47            7.2115    -1.8750     1.3477 H       
  48 H48            5.8212    -0.9596     2.0708 H       
  49 H49            3.9530    -2.2040    -0.7177 H       
  50 H50            5.5945    -4.3868    -1.7512 H       
  51 H51            3.5879    -2.9205    -3.5233 H       
  52 H52            5.3564    -2.9036    -3.7240 H       
  53 H53            4.4494    -4.4184    -3.9504 H       
  54 H54            2.4212    -7.8256    -1.2784 H       
  55 H55            2.4324    -2.9261    -0.6913 H       
  56 H56            0.5072    -4.2434     0.0887 H       
  57 H57           -2.8481    -8.9966     1.1131 H       
  58 H58           -0.0553    -7.9629    -1.9415 H       
  59 H59            1.3176    -4.6313     5.8617 H       
  60 H60            1.0608    -3.0140     5.1643 H       
  61 H61           -0.3351    -4.0501     5.5467 H       
  62 H62           -1.3222     2.6042    -0.1712 H       
  63 H63           -0.4882     4.0319     0.4878 H       
  64 H64           -1.9158     4.2377    -0.5551 H       
@<TRIPOS>BOND
   1    1    2 ar
   2    1    6 ar
   3    1   40 1
   4    2    3 ar
   5    3    4 ar
   6    3   42 1
   7    4    5 ar
   8    4    7 1
   9    5    6 ar
  10    5   43 1
  11    7    8 2
  12    7    9 am
  13    9   12 1
  14    9   44 1
  15   10   11 1
  16   10   13 1
  17   11   12 1
  18   11   45 1
  19   11   46 1
  20   12   13 1
  21   12   14 1
  22   13   47 1
  23   13   48 1
  24   14   15 am
  25   14   16 2
  26   15   17 1
  27   15   49 1
  28   17   18 1
  29   17   22 1
  30   17   50 1
  31   18   51 1
  32   18   52 1
  33   18   53 1
  34   19   20 ar
  35   19   24 ar
  36   19   25 1
  37   20   21 ar
  38   20   54 1
  39   21   22 ar
  40   21   38 1
  41   22   23 ar
  42   23   24 ar
  43   23   55 1
  44   24   56 1
  45   25   26 ar
  46   25   30 ar
  47   26   27 ar
  48   26   35 1
  49   27   28 ar
  50   27   37 1
  51   28   29 ar
  52   28   57 1
  53   29   30 ar
  54   29   39 1
  55   30   58 1
  56   31   32 1
  57   31   35 2
  58   32   33 1
  59   32   36 1
  60   33   34 2
  61   34   35 1
  62   36   59 1
  63   36   60 1
  64   36   61 1
  65   40   41 1
  66   41   62 1
  67   41   63 1
  68   41   64 1

#	End of record

