#	Name: ASD10420176
#	Creating user name:	WinNT
#	Creation time:	15. 06. 2019 21:27

#	Modifying user name:	WinNT
#	Modification time:	15. 06. 2019 21:27

#	Program:	/corina/corina34_cracker 3.40 0067  02.08.2006

@<TRIPOS>MOLECULE
ASD10420176
  33   35    0    0    0
SMALL
NO_CHARGES


@<TRIPOS>ATOM
   1 C1            -0.0166     1.3762     0.0096 C.ar    
   2 C2             0.0021    -0.0041     0.0020 C.ar    
   3 C3             1.2326    -0.6652    -0.0133 C.ar    
   4 C4             2.3967     0.1070    -0.0202 C.ar    
   5 C5             2.2877     1.4831    -0.0118 C.ar    
   6 N6             1.1060     2.0684     0.0026 N.ar    
   7 O7             0.6708    -4.1205    -0.0259 O.3     
   8 N8             0.2842    -2.9711    -0.0161 N.2     
   9 C9             1.3013    -2.1487    -0.0214 C.2     
  10 N10            2.4242    -2.8963    -0.0361 N.2     
  11 C11            2.0128    -4.1511    -0.0389 C.2     
  12 C12            2.8652    -5.3564    -0.0538 C.ar    
  13 C13            2.2830    -6.6310    -0.0561 C.ar    
  14 C14            3.0924    -7.7560    -0.0707 C.ar    
  15 C15            4.4672    -7.6199    -0.0829 C.ar    
  16 C16            5.0463    -6.3623    -0.0803 C.ar    
  17 C17            4.2555    -5.2326    -0.0717 C.ar    
  18 O18            0.9322    -6.7633    -0.0436 O.3     
  19 C19            0.4106    -8.0938    -0.0468 C.3     
  20 C20           -1.1184    -8.0421    -0.0314 C.3     
  21 H21           -0.9632     1.8962     0.0169 H       
  22 H22           -0.9210    -0.5646     0.0082 H       
  23 H23            3.3677    -0.3658    -0.0316 H       
  24 H24            3.1821     2.0884    -0.0170 H       
  25 H25            2.6478    -8.7402    -0.0721 H       
  26 H26            5.0938    -8.4995    -0.0943 H       
  27 H27            6.1219    -6.2656    -0.0896 H       
  28 H28            4.7112    -4.2535    -0.0742 H       
  29 H29            0.7476    -8.6140    -0.9434 H       
  30 H30            0.7651    -8.6251     0.8364 H       
  31 H31           -1.4554    -7.5219     0.8652 H       
  32 H32           -1.4729    -7.5108    -0.9146 H       
  33 H33           -1.5163    -9.0569    -0.0338 H       
@<TRIPOS>BOND
   1    1    2 ar
   2    1    6 ar
   3    1   21 1
   4    2    3 ar
   5    2   22 1
   6    3    4 ar
   7    3    9 1
   8    4    5 ar
   9    4   23 1
  10    5    6 ar
  11    5   24 1
  12    7    8 1
  13    7   11 1
  14    8    9 2
  15    9   10 1
  16   10   11 2
  17   11   12 1
  18   12   13 ar
  19   12   17 ar
  20   13   14 ar
  21   13   18 1
  22   14   15 ar
  23   14   25 1
  24   15   16 ar
  25   15   26 1
  26   16   17 ar
  27   16   27 1
  28   17   28 1
  29   18   19 1
  30   19   20 1
  31   19   29 1
  32   19   30 1
  33   20   31 1
  34   20   32 1
  35   20   33 1

#	End of record

