#	Name: ASD11000249
#	Creating user name:	WinNT
#	Creation time:	15. 06. 2019 21:29

#	Modifying user name:	WinNT
#	Modification time:	15. 06. 2019 21:29

#	Program:	/corina/corina34_cracker 3.40 0067  02.08.2006

@<TRIPOS>MOLECULE
ASD11000249
  54   57    0    0    0
SMALL
NO_CHARGES


@<TRIPOS>ATOM
   1 N1            -0.0172     1.3215    -0.0112 N.ar    
   2 C2             0.0016    -0.0034    -0.0060 C.ar    
   3 N3             1.1403    -0.6810    -0.0154 N.ar    
   4 C4             2.3025    -0.0498    -0.0305 C.ar    
   5 C5             2.3192     1.3363    -0.0363 C.ar    
   6 C6             1.1099     2.0136    -0.0261 C.ar    
   7 N7            -1.1974    -0.6965     0.0102 N.pl3   
   8 C8            -1.2009    -2.0922    -0.1029 C.ar    
   9 C9            -2.1490    -2.8418     0.5799 C.ar    
  10 C10           -0.2593    -2.7267    -0.9029 C.ar    
  11 C11           -0.2640    -4.1045    -1.0142 C.ar    
  12 C12           -1.2105    -4.8534    -0.3259 C.ar    
  13 C13           -2.1530    -4.2191     0.4680 C.ar    
  14 C14            3.6238     2.0904    -0.0529 C.3     
  15 C15            4.0504     2.3397    -1.5010 C.3     
  16 C16            5.3550     3.0939    -1.5176 C.ar    
  17 C17            6.5514     2.4010    -1.5271 C.ar    
  18 C18            7.7516     3.0870    -1.5414 C.ar    
  19 C19            7.7510     4.4728    -1.5464 C.ar    
  20 C20            6.5453     5.1663    -1.5384 C.ar    
  21 C21            5.3517     4.4781    -1.5289 C.ar    
  22 O22           -1.2153    -6.2094    -0.4353 O.3     
  23 N23            8.9499     5.1949    -1.5575 N.am    
  24 C24            8.9392     6.5077    -1.2491 C.2     
  25 O25            7.7944     7.1240    -0.9034 O.3     
  26 C26            6.5718     6.6740    -1.5491 C.3     
  27 O27            9.9756     7.1411    -1.2835 O.2     
  28 F28            0.6511    -4.7227    -1.7924 F       
  29 C29           -2.2164    -6.9160     0.2999 C.3     
  30 F30           -2.0675    -6.6496     1.6652 F       
  31 F31           -3.4843    -6.5004    -0.1207 F       
  32 C32            6.5391     7.1776    -2.9935 C.3     
  33 C33            5.3602     7.2139    -0.7866 C.3     
  34 H34            3.2273    -0.6075    -0.0378 H       
  35 H35            1.0881     3.0934    -0.0306 H       
  36 H36           -2.0347    -0.2151     0.0999 H       
  37 H37           -2.8836    -2.3484     1.1990 H       
  38 H38            0.4759    -2.1439    -1.4379 H       
  39 H39           -2.8881    -4.8018     1.0031 H       
  40 H40            3.4983     3.0448     0.4583 H       
  41 H41            4.3891     1.5038     0.4554 H       
  42 H42            4.1759     1.3853    -2.0122 H       
  43 H43            3.2852     2.9263    -2.0093 H       
  44 H44            6.5484     1.3210    -1.5230 H       
  45 H45            8.6858     2.5451    -1.5484 H       
  46 H46            4.4160     5.0172    -1.5214 H       
  47 H47            9.7832     4.7538    -1.7852 H       
  48 H48           -2.1082    -7.9864     0.1247 H       
  49 H49            7.4001     6.7852    -3.5346 H       
  50 H50            5.6219     6.8392    -3.4755 H       
  51 H51            6.5720     8.2671    -2.9993 H       
  52 H52            5.3885     8.3036    -0.7840 H       
  53 H53            4.4449     6.8755    -1.2723 H       
  54 H54            5.3839     6.8474     0.2396 H       
@<TRIPOS>BOND
   1    1    2 ar
   2    1    6 ar
   3    2    3 ar
   4    2    7 1
   5    3    4 ar
   6    4    5 ar
   7    4   34 1
   8    5    6 ar
   9    5   14 1
  10    6   35 1
  11    7    8 1
  12    7   36 1
  13    8    9 ar
  14    8   10 ar
  15    9   13 ar
  16    9   37 1
  17   10   11 ar
  18   10   38 1
  19   11   12 ar
  20   11   28 1
  21   12   13 ar
  22   12   22 1
  23   13   39 1
  24   14   15 1
  25   14   40 1
  26   14   41 1
  27   15   16 1
  28   15   42 1
  29   15   43 1
  30   16   17 ar
  31   16   21 ar
  32   17   18 ar
  33   17   44 1
  34   18   19 ar
  35   18   45 1
  36   19   20 ar
  37   19   23 1
  38   20   21 ar
  39   20   26 1
  40   21   46 1
  41   22   29 1
  42   23   24 am
  43   23   47 1
  44   24   25 1
  45   24   27 2
  46   25   26 1
  47   26   32 1
  48   26   33 1
  49   29   30 1
  50   29   31 1
  51   29   48 1
  52   32   49 1
  53   32   50 1
  54   32   51 1
  55   33   52 1
  56   33   53 1
  57   33   54 1

#	End of record

