#	Name: ASD14260001
#	Creating user name:	WinNT
#	Creation time:	15. 06. 2019 21:31

#	Modifying user name:	WinNT
#	Modification time:	15. 06. 2019 21:31

#	Program:	/corina/corina34_cracker 3.40 0067  02.08.2006

@<TRIPOS>MOLECULE
ASD14260001
  50   53    0    0    0
SMALL
NO_CHARGES


@<TRIPOS>ATOM
   1 C1            -0.0195     1.4107    -0.0193 C.ar    
   2 C2             0.0012    -0.0030    -0.0115 C.ar    
   3 N3             1.1779    -0.6149    -0.0291 N.ar    
   4 C4             2.3106     0.0685    -0.0490 C.ar    
   5 N5             2.3539     1.3799    -0.0530 N.ar    
   6 C6             1.2196     2.0971    -0.0408 C.ar    
   7 C7             1.2309     3.4986    -0.0467 C.ar    
   8 C8             0.0368     4.1885    -0.0226 C.ar    
   9 C9            -1.1849     3.5019    -0.0093 C.ar    
  10 C10           -1.2181     2.1364    -0.0123 C.ar    
  11 O11            0.0496     5.5468     0.0015 O.3     
  12 C12           -0.7540     6.2318    -0.9603 C.3     
  13 C13           -1.1488     7.6068    -0.4179 C.3     
  14 O14           -2.3732     8.0277    -1.0217 O.3     
  15 C15           -3.5237     7.8589    -0.1915 C.3     
  16 C16           -4.2781     6.5969    -0.6176 C.3     
  17 O17           -4.4261     5.7313     0.5102 O.3     
  18 C18           -4.7542     4.3823     0.1716 C.3     
  19 C19           -3.5303     3.4903     0.3930 C.3     
  20 O20           -2.3513     4.1992     0.0046 O.3     
  21 N21           -1.1734    -0.7280     0.0144 N.pl3   
  22 C22           -1.1376    -2.1210    -0.0990 C.ar    
  23 C23           -2.0349    -4.2755     0.4743 C.ar    
  24 C24           -2.0663    -2.8979     0.5834 C.ar    
  25 C25           -0.1791    -2.7274    -0.8970 C.ar    
  26 C26           -0.1481    -4.1167    -1.0071 C.ar    
  27 C27           -1.0819    -4.8884    -0.3135 C.ar    
  28 C28            0.8384    -4.7501    -1.8295 C.1     
  29 C29            1.6471    -5.2695    -2.5037 C.1     
  30 H30            3.2420    -0.4779    -0.0623 H       
  31 H31            2.1682     4.0347    -0.0695 H       
  32 H32           -2.1653     1.6176    -0.0066 H       
  33 H33           -0.1881     6.3551    -1.8837 H       
  34 H34           -1.6532     5.6497    -1.1620 H       
  35 H35           -1.2790     7.5470     0.6626 H       
  36 H36           -0.3640     8.3271    -0.6490 H       
  37 H37           -3.2107     7.7617     0.8481 H       
  38 H38           -4.1770     8.7253    -0.2950 H       
  39 H39           -5.2623     6.8720    -0.9967 H       
  40 H40           -3.7171     6.0840    -1.3988 H       
  41 H41           -5.5738     4.0382     0.8025 H       
  42 H42           -5.0554     4.3331    -0.8748 H       
  43 H43           -3.4622     3.2211     1.4470 H       
  44 H44           -3.6256     2.5861    -0.2083 H       
  45 H45           -2.0235    -0.2710     0.1113 H       
  46 H46           -2.7586    -4.8743     1.0074 H       
  47 H47           -2.8146    -2.4238     1.2011 H       
  48 H48            0.5406    -2.1253    -1.4316 H       
  49 H49           -1.0605    -5.9651    -0.3959 H       
  50 H50            2.3703    -5.7340    -3.1068 H       
@<TRIPOS>BOND
   1    1    2 ar
   2    1    6 ar
   3    1   10 ar
   4    2    3 ar
   5    2   21 1
   6    3    4 ar
   7    4    5 ar
   8    4   30 1
   9    5    6 ar
  10    6    7 ar
  11    7    8 ar
  12    7   31 1
  13    8    9 ar
  14    8   11 1
  15    9   10 ar
  16    9   20 1
  17   10   32 1
  18   11   12 1
  19   12   13 1
  20   12   33 1
  21   12   34 1
  22   13   14 1
  23   13   35 1
  24   13   36 1
  25   14   15 1
  26   15   16 1
  27   15   37 1
  28   15   38 1
  29   16   17 1
  30   16   39 1
  31   16   40 1
  32   17   18 1
  33   18   19 1
  34   18   41 1
  35   18   42 1
  36   19   20 1
  37   19   43 1
  38   19   44 1
  39   21   22 1
  40   21   45 1
  41   22   25 ar
  42   22   24 ar
  43   23   24 ar
  44   23   27 ar
  45   23   46 1
  46   24   47 1
  47   25   26 ar
  48   25   48 1
  49   26   27 ar
  50   26   28 1
  51   27   49 1
  52   28   29 3
  53   29   50 1

#	End of record

