#	Name: ASD11820013
#	Creating user name:	WinNT
#	Creation time:	15. 06. 2019 21:29

#	Modifying user name:	WinNT
#	Modification time:	15. 06. 2019 21:29

#	Program:	/corina/corina34_cracker 3.40 0067  02.08.2006

@<TRIPOS>MOLECULE
ASD11820013
  33   36    0    0    0
SMALL
NO_CHARGES


@<TRIPOS>ATOM
   1 C1            -0.0165     1.3620     0.0095 C.ar    
   2 C2             0.0021    -0.0041     0.0020 C.ar    
   3 C3             1.2092    -0.6933    -0.0132 C.ar    
   4 C4             2.4080    -0.0104    -0.0205 C.ar    
   5 C5             1.1855     2.0723     0.0019 C.ar    
   6 C6             1.5254     3.4976     0.0058 C.2     
   7 C7             2.4103     1.3806    -0.0131 C.ar    
   8 N8             3.4110     2.3264    -0.0172 N.pl3   
   9 C9             2.8648     3.5817    -0.0068 C.2     
  10 C10            0.5550     4.6505     0.0203 C.3     
  11 C11            0.1497     4.9481     1.4410 C.2     
  12 C12            0.8678     5.8010     2.3918 C.ar    
  13 C13           -0.9405     4.4868     2.0734 C.2     
  14 N14           -0.9765     4.9698     3.3538 N.pl3   
  15 C15            0.1157     5.7770     3.5804 C.ar    
  16 C16            2.0431     6.5516     2.3252 C.ar    
  17 C17            0.5555     6.5059     4.6805 C.ar    
  18 C18            1.7197     7.2412     4.5939 C.ar    
  19 C19            2.4584     7.2609     3.4165 C.ar    
  20 F20            1.2084    -2.0443    -0.0205 F       
  21 F21            2.1455     7.9486     5.6632 F       
  22 H22           -0.9581     1.8909     0.0169 H       
  23 H23           -0.9282    -0.5527     0.0083 H       
  24 H24            3.3412    -0.5539    -0.0316 H       
  25 H25            4.3613     2.1322    -0.0269 H       
  26 H26            3.4282     4.5030    -0.0076 H       
  27 H27            1.0296     5.5304    -0.4140 H       
  28 H28           -0.3283     4.3893    -0.5624 H       
  29 H29           -1.6799     3.8318     1.6367 H       
  30 H30           -1.6697     4.7748     4.0037 H       
  31 H31            2.6223     6.5713     1.4139 H       
  32 H32           -0.0125     6.4965     5.5990 H       
  33 H33            3.3679     7.8410     3.3642 H       
@<TRIPOS>BOND
   1    1    2 ar
   2    1    5 ar
   3    1   22 1
   4    2    3 ar
   5    2   23 1
   6    3    4 ar
   7    3   20 1
   8    4    7 ar
   9    4   24 1
  10    5    7 ar
  11    5    6 1
  12    6    9 2
  13    6   10 1
  14    7    8 1
  15    8    9 1
  16    8   25 1
  17    9   26 1
  18   10   11 1
  19   10   27 1
  20   10   28 1
  21   11   13 2
  22   11   12 1
  23   12   15 ar
  24   12   16 ar
  25   13   14 1
  26   13   29 1
  27   14   15 1
  28   14   30 1
  29   15   17 ar
  30   16   19 ar
  31   16   31 1
  32   17   18 ar
  33   17   32 1
  34   18   19 ar
  35   18   21 1
  36   19   33 1

#	End of record

