#	Name: ASD13010020
#	Creating user name:	WinNT
#	Creation time:	15. 06. 2019 21:30

#	Modifying user name:	WinNT
#	Modification time:	15. 06. 2019 21:30

#	Program:	/corina/corina34_cracker 3.40 0067  02.08.2006

@<TRIPOS>MOLECULE
ASD13010020
  49   52    0    0    0
SMALL
NO_CHARGES


@<TRIPOS>ATOM
   1 C1             0.6676     1.4267    -0.9450 C.ar    
   2 C2             0.5595     0.0785    -0.7787 C.ar    
   3 C3             1.6557    -0.6774    -0.3375 C.ar    
   4 C4             2.8692    -0.0542    -0.0650 C.ar    
   5 C5             1.8745     2.0715    -0.6776 C.ar    
   6 N6             2.2815     3.3794    -0.7482 N.pl3   
   7 C7             2.9840     1.3236    -0.2341 C.ar    
   8 C8             4.0775     2.2823    -0.0472 C.2     
   9 N9             3.6215     3.4676    -0.3588 N.2     
  10 C10            1.4847     4.4518    -1.1456 C.ar    
  11 S11            5.7094     1.9059     0.5003 S.3     
  12 C12            6.5399     3.4540     0.3649 C.ar    
  13 C13            6.3150     4.4504     1.3088 C.ar    
  14 C14            7.4247     3.6799    -0.6816 C.ar    
  15 C15            8.0744     4.8946    -0.7853 C.ar    
  16 C16            7.8450     5.8861     0.1521 C.ar    
  17 C17            6.9678     5.6629     1.1995 C.ar    
  18 C18           -0.0995     6.5840    -1.9357 C.ar    
  19 C19           -0.2679     5.3286    -2.5281 C.ar    
  20 C20            0.5205     4.2719    -2.1333 C.ar    
  21 C21            1.6511     5.6987    -0.5498 C.ar    
  22 C22            0.8661     6.7597    -0.9398 C.ar    
  23 C23           -0.9424     7.7184    -2.3561 C.2     
  24 O24           -1.7845     7.5629    -3.2181 O.2     
  25 O25           -0.7788     8.9276    -1.7842 O.3     
  26 C26            1.5213    -2.1371    -0.1617 C.2     
  27 O27            0.4174    -2.6416    -0.0902 O.2     
  28 N28            2.6222    -2.9103    -0.0804 N.am    
  29 C29            2.4949    -4.3697    -0.0944 C.3     
  30 C30            3.9461    -2.2914     0.0219 C.3     
  31 Cl31           5.2150     4.1708     2.6224 Cl      
  32 Cl32           8.6644     7.4107     0.0185 Cl      
  33 H33           -0.1827     1.9967    -1.2891 H       
  34 H34           -0.3792    -0.4126    -0.9882 H       
  35 H35            3.7147    -0.6336     0.2751 H       
  36 H36            7.6050     2.9064    -1.4135 H       
  37 H37            8.7624     5.0704    -1.5990 H       
  38 H38            6.7936     6.4374     1.9318 H       
  39 H39           -1.0128     5.1894    -3.2976 H       
  40 H40            0.3913     3.3021    -2.5907 H       
  41 H41            2.3969     5.8337     0.2196 H       
  42 H42            0.9990     7.7281    -0.4804 H       
  43 H43           -1.3547     9.6406    -2.0926 H       
  44 H44            2.5411    -4.7286    -1.1225 H       
  45 H45            3.3085    -4.8108     0.4814 H       
  46 H46            1.5404    -4.6554     0.3477 H       
  47 H47            4.0384    -1.7878     0.9842 H       
  48 H48            4.7140    -3.0604    -0.0609 H       
  49 H49            4.0708    -1.5654    -0.7815 H       
@<TRIPOS>BOND
   1    1    2 ar
   2    1    5 ar
   3    1   33 1
   4    2    3 ar
   5    2   34 1
   6    3    4 ar
   7    3   26 1
   8    4    7 ar
   9    4   35 1
  10    5    7 ar
  11    5    6 1
  12    6    9 1
  13    6   10 1
  14    7    8 1
  15    8    9 2
  16    8   11 1
  17   10   21 ar
  18   10   20 ar
  19   11   12 1
  20   12   14 ar
  21   12   13 ar
  22   13   17 ar
  23   13   31 1
  24   14   15 ar
  25   14   36 1
  26   15   16 ar
  27   15   37 1
  28   16   17 ar
  29   16   32 1
  30   17   38 1
  31   18   19 ar
  32   18   22 ar
  33   18   23 1
  34   19   20 ar
  35   19   39 1
  36   20   40 1
  37   21   22 ar
  38   21   41 1
  39   22   42 1
  40   23   24 2
  41   23   25 1
  42   25   43 1
  43   26   27 2
  44   26   28 am
  45   28   29 1
  46   28   30 1
  47   29   44 1
  48   29   45 1
  49   29   46 1
  50   30   47 1
  51   30   48 1
  52   30   49 1

#	End of record

