#	Name: ASD14280002
#	Creating user name:	WinNT
#	Creation time:	15. 06. 2019 21:31

#	Modifying user name:	WinNT
#	Modification time:	15. 06. 2019 21:31

#	Program:	/corina/corina34_cracker 3.40 0067  02.08.2006

@<TRIPOS>MOLECULE
ASD14280002
  59   63    0    0    0
SMALL
NO_CHARGES


@<TRIPOS>ATOM
   1 C1            -0.1489     1.6366     0.7917 C.ar    
   2 C2            -0.2638     0.4756     1.5715 C.ar    
   3 C3             0.8049     0.0411     2.2952 C.ar    
   4 C4             2.0137     0.7330     2.2740 C.ar    
   5 C5             2.1613     1.8629     1.5290 C.ar    
   6 C6             1.0802     2.3408     0.7689 C.ar    
   7 C7             1.1970     3.5032    -0.0127 C.ar    
   8 C8             0.1334     3.9433    -0.7395 C.ar    
   9 C9            -1.0793     3.2601    -0.7247 C.ar    
  10 C10           -1.2332     2.1137     0.0242 C.ar    
  11 N11           -2.4515     1.4327     0.0270 N.am    
  12 C12           -3.6067     2.1188     0.1323 C.2     
  13 N13           -4.7855     1.4729     0.0332 N.am    
  14 S14           -3.5769     3.8107     0.3918 S.2     
  15 C15           -6.0552     2.1801     0.2592 C.3     
  16 C16           -6.9838     1.9046    -0.9282 C.3     
  17 N17           -7.1071     0.4539    -1.1230 N.3     
  18 C18           -5.8130    -0.1492    -1.4689 C.3     
  19 C19           -4.8366     0.0435    -0.3097 C.3     
  20 C20           -8.0596     0.1623    -2.0780 C.ar    
  21 N21           -8.2959    -1.1065    -2.3752 N.ar    
  22 C22           -9.9082    -0.3846    -3.9292 C.ar    
  23 C23           -9.6297     0.9374    -3.5801 C.ar    
  24 N24           -8.7083     1.1648    -2.6601 N.ar    
  25 N25           -9.4638    -2.7334    -3.6103 N.pl3   
  26 C26          -10.3759    -3.0886    -4.5286 C.2     
  27 C27          -11.1249    -2.1606    -5.2205 C.2     
  28 C28          -10.9167    -0.7279    -4.9422 C.2     
  29 C29           -9.2057    -1.4260    -3.2889 C.ar    
  30 C30           -8.7131    -3.7867    -2.9224 C.3     
  31 C31           -7.4391    -4.1016    -3.7089 C.3     
  32 O32          -11.5522     0.1330    -5.5254 O.2     
  33 C33          -12.1136    -2.5922    -6.2188 C.2     
  34 O34          -12.8397    -1.6750    -6.8886 O.3     
  35 O35          -12.2766    -3.7763    -6.4403 O.2     
  36 H36           -1.1952    -0.0704     1.5978 H       
  37 H37            0.7138    -0.8527     2.8946 H       
  38 H38            2.8460     0.3680     2.8575 H       
  39 H39            3.1042     2.3894     1.5224 H       
  40 H40            2.1298     4.0471    -0.0362 H       
  41 H41            0.2321     4.8373    -1.3373 H       
  42 H42           -1.9080     3.6307    -1.3099 H       
  43 H43           -2.4667     0.4656    -0.0467 H       
  44 H44           -6.5176     1.8180     1.1775 H       
  45 H45           -5.8688     3.2512     0.3375 H       
  46 H46           -7.9673     2.3295    -0.7269 H       
  47 H47           -6.5683     2.3585    -1.8279 H       
  48 H48           -5.9473    -1.2139    -1.6599 H       
  49 H49           -5.4138     0.3332    -2.3611 H       
  50 H50           -3.8451    -0.2994    -0.6053 H       
  51 H51           -5.1799    -0.5226     0.5562 H       
  52 H52          -10.1515     1.7558    -4.0538 H       
  53 H53          -10.5283    -4.1381    -4.7330 H       
  54 H54           -8.4476    -3.4487    -1.9208 H       
  55 H55           -9.3278    -4.6841    -2.8520 H       
  56 H56           -6.8806    -4.8853    -3.1971 H       
  57 H57           -7.7046    -4.4397    -4.7105 H       
  58 H58           -6.8244    -3.2042    -3.7793 H       
  59 H59          -13.4775    -2.0070    -7.5353 H       
@<TRIPOS>BOND
   1    1    2 ar
   2    1    6 ar
   3    1   10 ar
   4    2    3 ar
   5    2   36 1
   6    3    4 ar
   7    3   37 1
   8    4    5 ar
   9    4   38 1
  10    5    6 ar
  11    5   39 1
  12    6    7 ar
  13    7    8 ar
  14    7   40 1
  15    8    9 ar
  16    8   41 1
  17    9   10 ar
  18    9   42 1
  19   10   11 1
  20   11   12 am
  21   11   43 1
  22   12   13 am
  23   12   14 2
  24   13   15 1
  25   13   19 1
  26   15   16 1
  27   15   44 1
  28   15   45 1
  29   16   17 1
  30   16   46 1
  31   16   47 1
  32   17   18 1
  33   17   20 1
  34   18   19 1
  35   18   48 1
  36   18   49 1
  37   19   50 1
  38   19   51 1
  39   20   21 ar
  40   20   24 ar
  41   21   29 ar
  42   22   23 ar
  43   22   29 ar
  44   22   28 1
  45   23   24 ar
  46   23   52 1
  47   25   26 1
  48   25   29 1
  49   25   30 1
  50   26   27 2
  51   26   53 1
  52   27   28 1
  53   27   33 1
  54   28   32 2
  55   30   31 1
  56   30   54 1
  57   30   55 1
  58   31   56 1
  59   31   57 1
  60   31   58 1
  61   33   34 1
  62   33   35 2
  63   34   59 1

#	End of record

