#	Name: ASD10410038
#	Creating user name:	WinNT
#	Creation time:	15. 06. 2019 21:26

#	Modifying user name:	WinNT
#	Modification time:	15. 06. 2019 21:26

#	Program:	/corina/corina34_cracker 3.40 0067  02.08.2006

@<TRIPOS>MOLECULE
ASD10410038
  62   65    0    0    0
SMALL
NO_CHARGES


@<TRIPOS>ATOM
   1 C1             0.1453     2.0829    -0.2252 C.2     
   2 C2             0.2855     0.8196     0.5845 C.3     
   3 O3             0.8152     2.2406    -1.2239 O.2     
   4 N4            -0.7286     3.0349     0.1573 N.am    
   5 C5            -0.7837     4.2518    -0.5317 C.ar    
   6 C6            -1.9920     4.9191    -0.6654 C.ar    
   7 C7            -2.0417     6.1298    -1.3514 C.ar    
   8 C8            -0.8766     6.6643    -1.9000 C.ar    
   9 C9             0.3219     5.9935    -1.7629 C.ar    
  10 C10            0.3731     4.7944    -1.0771 C.ar    
  11 C11           -5.6195     6.8130    -1.7771 C.ar    
  12 N12           -4.4679     6.1734    -1.6460 N.ar    
  13 C13           -3.3306     6.8487    -1.4986 C.ar    
  14 C14           -3.3696     8.2457    -1.4842 C.ar    
  15 C15           -4.5950     8.8723    -1.6245 C.ar    
  16 N16           -5.6860     8.1364    -1.7671 N.ar    
  17 N17           -6.7845     6.0800    -1.9346 N.pl3   
  18 C18           -8.0214     6.7310    -1.9651 C.ar    
  19 C19           -9.0527     6.2297    -2.7489 C.ar    
  20 C20          -10.2734     6.8750    -2.7763 C.ar    
  21 C21          -10.4696     8.0190    -2.0246 C.ar    
  22 C22           -9.4447     8.5210    -1.2436 C.ar    
  23 C23           -8.2234     7.8774    -1.2072 C.ar    
  24 C24          -11.8030     8.7205    -2.0570 C.3     
  25 N25          -12.6690     8.1750    -1.0033 N.3     
  26 C26          -13.8835     8.9874    -0.8467 C.3     
  27 C27          -14.7935     8.3430     0.2017 C.3     
  28 N28          -14.0685     8.2338     1.4753 N.3     
  29 C29          -12.8540     7.4213     1.3186 C.3     
  30 C30          -11.9440     8.0658     0.2703 C.3     
  31 C31          -14.9345     7.6882     2.5290 C.3     
  32 C32           -2.1063     9.0506    -1.3192 C.3     
  33 H33            1.0300     0.1720     0.1214 H       
  34 H34            0.6016     1.0704     1.5971 H       
  35 H35           -0.6735     0.3029     0.6207 H       
  36 H36           -1.3194     2.8768     0.9102 H       
  37 H37           -2.8918     4.5008    -0.2389 H       
  38 H38           -0.9119     7.6031    -2.4327 H       
  39 H39            1.2232     6.4089    -2.1889 H       
  40 H40            1.3142     4.2757    -0.9688 H       
  41 H41           -4.6608     9.9503    -1.6173 H       
  42 H42           -6.7420     5.1150    -2.0237 H       
  43 H43           -8.9001     5.3365    -3.3364 H       
  44 H44          -11.0757     6.4859    -3.3858 H       
  45 H45           -9.6011     9.4149    -0.6580 H       
  46 H46           -7.4249     8.2672    -0.5932 H       
  47 H47          -11.6562     9.7877    -1.8905 H       
  48 H48          -12.2715     8.5655    -3.0289 H       
  49 H49          -13.6100     9.9916    -0.5228 H       
  50 H50          -14.4093     9.0430    -1.7998 H       
  51 H51          -15.6817     8.9594     0.3406 H       
  52 H52          -15.0890     7.3492    -0.1348 H       
  53 H53          -12.3281     7.3658     2.2718 H       
  54 H54          -13.1275     6.4171     0.9948 H       
  55 H55          -11.0558     7.4494     0.1314 H       
  56 H56          -11.6484     9.0595     0.6068 H       
  57 H57          -15.2805     6.6965     2.2377 H       
  58 H58          -14.3731     7.6180     3.4606 H       
  59 H59          -15.7925     8.3454     2.6705 H       
  60 H60           -1.6774     9.2587    -2.2995 H       
  61 H61           -2.3370     9.9900    -0.8168 H       
  62 H62           -1.3907     8.4854    -0.7221 H       
@<TRIPOS>BOND
   1    1    2 1
   2    1    3 2
   3    1    4 am
   4    2   33 1
   5    2   34 1
   6    2   35 1
   7    4    5 1
   8    4   36 1
   9    5    6 ar
  10    5   10 ar
  11    6    7 ar
  12    6   37 1
  13    7    8 ar
  14    7   13 1
  15    8    9 ar
  16    8   38 1
  17    9   10 ar
  18    9   39 1
  19   10   40 1
  20   11   12 ar
  21   11   16 ar
  22   11   17 1
  23   12   13 ar
  24   13   14 ar
  25   14   15 ar
  26   14   32 1
  27   15   16 ar
  28   15   41 1
  29   17   18 1
  30   17   42 1
  31   18   19 ar
  32   18   23 ar
  33   19   20 ar
  34   19   43 1
  35   20   21 ar
  36   20   44 1
  37   21   22 ar
  38   21   24 1
  39   22   23 ar
  40   22   45 1
  41   23   46 1
  42   24   25 1
  43   24   47 1
  44   24   48 1
  45   25   26 1
  46   25   30 1
  47   26   27 1
  48   26   49 1
  49   26   50 1
  50   27   28 1
  51   27   51 1
  52   27   52 1
  53   28   29 1
  54   28   31 1
  55   29   30 1
  56   29   53 1
  57   29   54 1
  58   30   55 1
  59   30   56 1
  60   31   57 1
  61   31   58 1
  62   31   59 1
  63   32   60 1
  64   32   61 1
  65   32   62 1

#	End of record

