#	Name: ASD10160475
#	Creating user name:	WinNT
#	Creation time:	15. 06. 2019 21:26

#	Modifying user name:	WinNT
#	Modification time:	15. 06. 2019 21:26

#	Program:	/corina/corina34_cracker 3.40 0067  02.08.2006

@<TRIPOS>MOLECULE
ASD10160475
  27   28    0    0    0
SMALL
NO_CHARGES


@<TRIPOS>ATOM
   1 C1            -0.4006     1.1072    -1.9504 C.2     
   2 C2            -0.2799    -0.2705    -1.4432 C.ar    
   3 C3             0.9045    -0.9910    -1.6418 C.ar    
   4 C4             1.0124    -2.2816    -1.1645 C.ar    
   5 C5            -0.0510    -2.8653    -0.4890 C.ar    
   6 C6            -1.2307    -2.1523    -0.2893 C.ar    
   7 C7            -1.3458    -0.8613    -0.7565 C.ar    
   8 O8             0.5284     1.6203    -2.5423 O.2     
   9 O9            -1.5434     1.7966    -1.7629 O.3     
  10 O10            0.0593    -4.1350    -0.0222 O.3     
  11 C11            3.6291    -5.9813    -0.3776 C.ar    
  12 N12            3.3858    -5.2603     0.6985 N.ar    
  13 C13            2.2278    -4.6395     0.8522 C.ar    
  14 C14            1.2618    -4.7567    -0.1420 C.ar    
  15 C15            1.5585    -5.5269    -1.2619 C.ar    
  16 N16            2.7400    -6.1164    -1.3410 N.ar    
  17 C17            4.9648    -6.6658    -0.5132 C.3     
  18 F18            4.8134    -8.0356    -0.2725 F       
  19 F19            5.4591    -6.4716    -1.8074 F       
  20 F20            5.8619    -6.1257     0.4146 F       
  21 F21           -2.2619    -2.7257     0.3687 F       
  22 F22            1.9393    -0.4239    -2.2997 F       
  23 H23            1.9252    -2.8383    -1.3170 H       
  24 H24           -2.2595    -0.3080    -0.5970 H       
  25 H25           -1.5754     2.6971    -2.1136 H       
  26 H26            2.0351    -4.0507     1.7368 H       
  27 H27            0.8345    -5.6423    -2.0550 H       
@<TRIPOS>BOND
   1    1    2 1
   2    1    8 2
   3    1    9 1
   4    2    3 ar
   5    2    7 ar
   6    3    4 ar
   7    3   22 1
   8    4    5 ar
   9    4   23 1
  10    5    6 ar
  11    5   10 1
  12    6    7 ar
  13    6   21 1
  14    7   24 1
  15    9   25 1
  16   10   14 1
  17   11   12 ar
  18   11   16 ar
  19   11   17 1
  20   12   13 ar
  21   13   14 ar
  22   13   26 1
  23   14   15 ar
  24   15   16 ar
  25   15   27 1
  26   17   18 1
  27   17   19 1
  28   17   20 1

#	End of record

