#	Name: ASD13410001
#	Creating user name:	WinNT
#	Creation time:	15. 06. 2019 21:30

#	Modifying user name:	WinNT
#	Modification time:	15. 06. 2019 21:30

#	Program:	/corina/corina34_cracker 3.40 0067  02.08.2006

@<TRIPOS>MOLECULE
ASD13410001
  42   43    0    0    0
SMALL
NO_CHARGES


@<TRIPOS>ATOM
   1 C1            -0.0448     1.3618    -0.2065 C.ar    
   2 C2             0.0025    -0.0038    -0.0032 C.ar    
   3 C3             1.1853    -0.6956    -0.2200 C.ar    
   4 C4             2.3180    -0.0137    -0.6405 C.ar    
   5 C5             2.2655     1.3519    -0.8423 C.ar    
   6 C6             1.0855     2.0391    -0.6255 C.ar    
   7 C7             1.0310     3.5288    -0.8465 C.3     
   8 C8             1.3795     3.8414    -2.3031 C.3     
   9 C9            -0.3781     4.0390    -0.5384 C.3     
  10 C10            2.0365     4.2186     0.0778 C.3     
  11 O11            1.2345    -2.0389    -0.0203 O.3     
  12 C12            2.5117    -2.6673    -0.1469 C.3     
  13 C13            2.5301    -3.9558     0.6779 C.3     
  14 C14            3.8976    -4.6286     0.5423 C.3     
  15 C15            4.1591    -4.9605    -0.9282 C.3     
  16 C16            4.1407    -3.6720    -1.7530 C.3     
  17 C17            2.7732    -2.9992    -1.6174 C.3     
  18 O18            2.2858    -3.6458     2.0513 O.3     
  19 H19           -0.9665     1.9002    -0.0422 H       
  20 H20           -0.8805    -0.5323     0.3245 H       
  21 H21            3.2400    -0.5500    -0.8095 H       
  22 H22            3.1470     1.8833    -1.1693 H       
  23 H23            0.6632     3.3501    -2.9616 H       
  24 H24            1.3402     4.9189    -2.4629 H       
  25 H25            2.3834     3.4780    -2.5226 H       
  26 H26           -0.6264     3.8163     0.4993 H       
  27 H27           -0.4175     5.1165    -0.6982 H       
  28 H28           -1.0944     3.5476    -1.1969 H       
  29 H29            3.0404     3.8551    -0.1417 H       
  30 H30            1.9971     5.2961    -0.0820 H       
  31 H31            1.7882     3.9959     1.1155 H       
  32 H32            3.2864    -1.9922     0.2165 H       
  33 H33            1.7554    -4.6310     0.3144 H       
  34 H34            4.6723    -3.9535     0.9057 H       
  35 H35            3.9107    -5.5466     1.1299 H       
  36 H36            5.1333    -5.4398    -1.0248 H       
  37 H37            3.3844    -5.6357    -1.2916 H       
  38 H38            4.9154    -2.9969    -1.3895 H       
  39 H39            4.3270    -3.9085    -2.8006 H       
  40 H40            1.9985    -3.6744    -1.9808 H       
  41 H41            2.7601    -2.0812    -2.2050 H       
  42 H42            2.2833    -4.4174     2.6342 H       
@<TRIPOS>BOND
   1    1    2 ar
   2    1    6 ar
   3    1   19 1
   4    2    3 ar
   5    2   20 1
   6    3    4 ar
   7    3   11 1
   8    4    5 ar
   9    4   21 1
  10    5    6 ar
  11    5   22 1
  12    6    7 1
  13    7    8 1
  14    7    9 1
  15    7   10 1
  16    8   23 1
  17    8   24 1
  18    8   25 1
  19    9   26 1
  20    9   27 1
  21    9   28 1
  22   10   29 1
  23   10   30 1
  24   10   31 1
  25   11   12 1
  26   12   13 1
  27   12   17 1
  28   12   32 1
  29   13   14 1
  30   13   18 1
  31   13   33 1
  32   14   15 1
  33   14   34 1
  34   14   35 1
  35   15   16 1
  36   15   36 1
  37   15   37 1
  38   16   17 1
  39   16   38 1
  40   16   39 1
  41   17   40 1
  42   17   41 1
  43   18   42 1

#	End of record

