#	Name: ASD10420019
#	Creating user name:	WinNT
#	Creation time:	15. 06. 2019 21:27

#	Modifying user name:	WinNT
#	Modification time:	15. 06. 2019 21:27

#	Program:	/corina/corina34_cracker 3.40 0067  02.08.2006

@<TRIPOS>MOLECULE
ASD10420019
  58   62    0    0    0
SMALL
NO_CHARGES


@<TRIPOS>ATOM
   1 N1            -0.1228     0.2597    -0.6081 N.pl3   
   2 C2            -0.5328    -0.9709    -1.0451 C.2     
   3 C3            -1.9386    -0.9714    -1.0927 C.2     
   4 C4            -2.3672     0.2876    -0.6741 C.2     
   5 C5            -1.2396     1.0390    -0.3836 C.2     
   6 C6             1.2081     0.5292    -0.4706 C.2     
   7 C7             2.1363    -0.4081    -0.7621 C.2     
   8 C8             1.7433    -1.6770    -1.2122 C.2     
   9 C9             0.4164    -1.9585    -1.3520 C.2     
  10 C10           -1.2344     2.3794     0.0756 C.2     
  11 N11           -1.2103     3.3950    -0.8100 N.am    
  12 C12           -1.3201     4.7912    -0.3607 C.3     
  13 C13           -0.1704     5.5935    -0.9792 C.3     
  14 N14           -0.1761     5.4076    -2.4364 N.3     
  15 C15            0.0665     4.0040    -2.7955 C.3     
  16 C16           -1.0674     3.1369    -2.2509 C.3     
  17 O17           -1.2516     2.6138     1.2707 O.2     
  18 C18           -3.7974     0.7496    -0.5633 C.3     
  19 C19           -4.3089     0.4713     0.8266 C.ar    
  20 C20           -4.4838     1.5122     1.7198 C.ar    
  21 C21           -4.9525     1.2584     2.9952 C.ar    
  22 C22           -5.2469    -0.0364     3.3790 C.ar    
  23 C23           -5.0727    -1.0792     2.4853 C.ar    
  24 C24           -4.6084    -0.8231     1.2060 C.ar    
  25 C25           -4.1627     2.9242     1.3028 C.3     
  26 F26           -5.3597    -2.3452     2.8595 F       
  27 C27           -2.8027    -2.0994    -1.5097 C.ar    
  28 C28           -2.8329    -3.2739    -0.7576 C.ar    
  29 C29           -3.6404    -4.3211    -1.1511 C.ar    
  30 C30           -4.4189    -4.2083    -2.2893 C.ar    
  31 C31           -4.3930    -3.0463    -3.0397 C.ar    
  32 C32           -3.5943    -1.9897    -2.6531 C.ar    
  33 H33            1.5228     1.5029    -0.1251 H       
  34 H34            3.1857    -0.1792    -0.6485 H       
  35 H35            2.4859    -2.4256    -1.4460 H       
  36 H36            0.0989    -2.9311    -1.6978 H       
  37 H37           -2.2736     5.2068    -0.6868 H       
  38 H38           -1.2521     4.8324     0.7264 H       
  39 H39           -0.2983     6.6507    -0.7469 H       
  40 H40            0.7780     5.2433    -0.5716 H       
  41 H41           -1.0391     5.7401    -2.8399 H       
  42 H42            0.1103     3.9085    -3.8805 H       
  43 H43            1.0116     3.6760    -2.3627 H       
  44 H44           -0.8348     2.0847    -2.4148 H       
  45 H45           -1.9987     3.3920    -2.7567 H       
  46 H46           -3.8499     1.8199    -0.7623 H       
  47 H47           -4.4092     0.2145    -1.2896 H       
  48 H48           -5.0884     2.0721     3.6922 H       
  49 H49           -5.6125    -0.2345     4.3757 H       
  50 H50           -4.4762    -1.6354     0.5066 H       
  51 H51           -5.0264     3.3601     0.8006 H       
  52 H52           -3.9177     3.5167     2.1843 H       
  53 H53           -3.3116     2.9173     0.6218 H       
  54 H54           -2.2251    -3.3634     0.1307 H       
  55 H55           -3.6646    -5.2309    -0.5697 H       
  56 H56           -5.0491    -5.0309    -2.5934 H       
  57 H57           -5.0027    -2.9643    -3.9274 H       
  58 H58           -3.5752    -1.0829    -3.2395 H       
@<TRIPOS>BOND
   1    1    2 1
   2    1    6 1
   3    1    5 1
   4    2    3 2
   5    2    9 1
   6    3    4 1
   7    3   27 1
   8    4    5 2
   9    4   18 1
  10    5   10 1
  11    6    7 2
  12    6   33 1
  13    7    8 1
  14    7   34 1
  15    8    9 2
  16    8   35 1
  17    9   36 1
  18   10   11 am
  19   10   17 2
  20   11   12 1
  21   11   16 1
  22   12   13 1
  23   12   37 1
  24   12   38 1
  25   13   14 1
  26   13   39 1
  27   13   40 1
  28   14   15 1
  29   14   41 1
  30   15   16 1
  31   15   42 1
  32   15   43 1
  33   16   44 1
  34   16   45 1
  35   18   19 1
  36   18   46 1
  37   18   47 1
  38   19   20 ar
  39   19   24 ar
  40   20   21 ar
  41   20   25 1
  42   21   22 ar
  43   21   48 1
  44   22   23 ar
  45   22   49 1
  46   23   24 ar
  47   23   26 1
  48   24   50 1
  49   25   51 1
  50   25   52 1
  51   25   53 1
  52   27   28 ar
  53   27   32 ar
  54   28   29 ar
  55   28   54 1
  56   29   30 ar
  57   29   55 1
  58   30   31 ar
  59   30   56 1
  60   31   32 ar
  61   31   57 1
  62   32   58 1

#	End of record

