#	Name: ASD13490058
#	Creating user name:	WinNT
#	Creation time:	15. 06. 2019 21:30

#	Modifying user name:	WinNT
#	Modification time:	15. 06. 2019 21:30

#	Program:	/corina/corina34_cracker 3.40 0067  02.08.2006

@<TRIPOS>MOLECULE
ASD13490058
  67   70    0    0    0
SMALL
NO_CHARGES


@<TRIPOS>ATOM
   1 C1            -0.0167     1.3792     0.0096 C.ar    
   2 C2             0.0021    -0.0041     0.0020 C.ar    
   3 C3             1.2189    -0.6835    -0.0133 C.ar    
   4 C4             2.4111     0.0261    -0.0208 C.ar    
   5 C5             2.3955     1.4060    -0.0128 C.ar    
   6 C6             1.1817     2.0899     0.0020 C.ar    
   7 N7             1.2383    -2.0867    -0.0205 N.pl3   
   8 C8             1.9497    -2.8872    -0.8759 C.2     
   9 C9             1.6798    -4.1614    -0.5331 C.2     
  10 N10            0.8276    -4.1447     0.5024 N.2     
  11 C11            0.5603    -2.9076     0.8223 C.2     
  12 C12            1.1653     3.5741     0.0101 C.2     
  13 C13            2.2476     4.4058     0.0043 C.2     
  14 N14            1.7519     5.6641     0.0153 N.pl3   
  15 N15            0.4673     5.5965     0.0269 N.2     
  16 N16            0.0809     4.3698     0.0188 N.2     
  17 C17            2.2386    -5.3929    -1.1980 C.3     
  18 O18           -1.1656    -0.7002     0.0099 O.3     
  19 C19           -2.3748     0.0612     0.0260 C.3     
  20 C20            2.5444     6.8963     0.0146 C.3     
  21 C21            3.7948     6.6966    -0.8158 C.2     
  22 C22            2.9621     7.2399     1.4464 C.3     
  23 N23            4.5587     7.7406    -1.1404 N.am    
  24 C24            3.2302     8.7274     1.5861 C.3     
  25 C25            4.1926     9.0972    -0.7021 C.3     
  26 C26            4.4386     9.2084     0.8037 C.3     
  27 O27            4.1029     5.5836    -1.1865 O.2     
  28 C28            5.7703     7.5357    -1.9380 C.3     
  29 C29            5.4272     7.6480    -3.4248 C.3     
  30 C30            3.4477     9.0475     3.0664 C.3     
  31 F31            4.9049     8.9189    -3.6881 F       
  32 F32            6.5843     7.4524    -4.1865 F       
  33 F33            4.4787     6.6756    -3.7593 F       
  34 C34            4.6447     8.2513     3.5898 C.3     
  35 C35            3.7198    10.5442     3.2298 C.3     
  36 C36            2.1959     8.6672     3.8597 C.3     
  37 H37           -0.9587     1.9073     0.0169 H       
  38 H38            3.3529    -0.5024    -0.0327 H       
  39 H39            3.3248     1.9562    -0.0180 H       
  40 H40            2.6012    -2.5592    -1.6723 H       
  41 H41           -0.0931    -2.5902     1.6215 H       
  42 H42            3.2883     4.1176    -0.0069 H       
  43 H43            3.1669    -5.6822    -0.7054 H       
  44 H44            1.5174    -6.2065    -1.1208 H       
  45 H45            2.4358    -5.1807    -2.2488 H       
  46 H46           -3.2298    -0.6148     0.0308 H       
  47 H47           -2.3996     0.6848     0.9196 H       
  48 H48           -2.4172     0.6944    -0.8602 H       
  49 H49            1.9535     7.7114    -0.4033 H       
  50 H50            2.1644     6.9530     2.1316 H       
  51 H51            3.8670     6.6869     1.6987 H       
  52 H52            2.3531     9.2731     1.2382 H       
  53 H53            4.8056     9.8293    -1.2279 H       
  54 H54            3.1391     9.2785    -0.9150 H       
  55 H55            4.6392    10.2491     1.0582 H       
  56 H56            5.3036     8.6016     1.0714 H       
  57 H57            6.5093     8.2933    -1.6774 H       
  58 H58            6.1772     6.5455    -1.7329 H       
  59 H59            5.5365     8.5223     3.0247 H       
  60 H60            4.7996     8.4794     4.6444 H       
  61 H61            4.4508     7.1850     3.4734 H       
  62 H62            2.8671    11.1115     2.8568 H       
  63 H63            3.8748    10.7723     4.2843 H       
  64 H64            4.6116    10.8152     2.6646 H       
  65 H65            2.0020     7.6009     3.7432 H       
  66 H66            2.3508     8.8953     4.9142 H       
  67 H67            1.3431     9.2344     3.4867 H       
@<TRIPOS>BOND
   1    1    2 ar
   2    1    6 ar
   3    1   37 1
   4    2    3 ar
   5    2   18 1
   6    3    4 ar
   7    3    7 1
   8    4    5 ar
   9    4   38 1
  10    5    6 ar
  11    5   39 1
  12    6   12 1
  13    7    8 1
  14    7   11 1
  15    8    9 2
  16    8   40 1
  17    9   10 1
  18    9   17 1
  19   10   11 2
  20   11   41 1
  21   12   13 2
  22   12   16 1
  23   13   14 1
  24   13   42 1
  25   14   15 1
  26   14   20 1
  27   15   16 2
  28   17   43 1
  29   17   44 1
  30   17   45 1
  31   18   19 1
  32   19   46 1
  33   19   47 1
  34   19   48 1
  35   20   21 1
  36   20   22 1
  37   20   49 1
  38   21   23 am
  39   21   27 2
  40   22   24 1
  41   22   50 1
  42   22   51 1
  43   23   25 1
  44   23   28 1
  45   24   30 1
  46   24   26 1
  47   24   52 1
  48   25   26 1
  49   25   53 1
  50   25   54 1
  51   26   55 1
  52   26   56 1
  53   28   29 1
  54   28   57 1
  55   28   58 1
  56   29   31 1
  57   29   32 1
  58   29   33 1
  59   30   34 1
  60   30   35 1
  61   30   36 1
  62   34   59 1
  63   34   60 1
  64   34   61 1
  65   35   62 1
  66   35   63 1
  67   35   64 1
  68   36   65 1
  69   36   66 1
  70   36   67 1

#	End of record

