#	Name: ASD10160537
#	Creating user name:	WinNT
#	Creation time:	15. 06. 2019 21:26

#	Modifying user name:	WinNT
#	Modification time:	15. 06. 2019 21:26

#	Program:	/corina/corina34_cracker 3.40 0067  02.08.2006

@<TRIPOS>MOLECULE
ASD10160537
  48   50    0    0    0
SMALL
NO_CHARGES


@<TRIPOS>ATOM
   1 C1            -0.4009     1.1070    -1.9495 C.2     
   2 C2            -0.2803    -0.2708    -1.4426 C.ar    
   3 C3             0.9041    -0.9916    -1.6415 C.ar    
   4 C4             1.0117    -2.2819    -1.1639 C.ar    
   5 C5            -0.0522    -2.8649    -0.4878 C.ar    
   6 C6            -1.2308    -2.1516    -0.2882 C.ar    
   7 C7            -1.3459    -0.8616    -0.7558 C.ar    
   8 O8             0.5281     1.6201    -2.5415 O.2     
   9 O9            -1.5435     1.7965    -1.7617 O.3     
  10 F10            1.9389    -0.4250    -2.3000 F       
  11 O11            0.0574    -4.1342    -0.0206 O.3     
  12 C12            2.2175    -4.6341     0.8566 C.ar    
  13 C13            1.2595    -4.7566    -0.1405 C.ar    
  14 C14            1.5462    -5.5249    -1.2631 C.ar    
  15 C15            2.7895    -6.1424    -1.3399 C.ar    
  16 C16            3.6935    -5.9715    -0.3014 C.ar    
  17 N17            3.3853    -5.2353     0.7480 N.ar    
  18 O18            3.1148    -6.9037    -2.4178 O.3     
  19 C19            2.1285    -7.0303    -3.4441 C.3     
  20 F20            0.9719    -7.6089    -2.9105 F       
  21 F21            1.8232    -5.7647    -3.9561 F       
  22 C22            5.0442    -6.6360    -0.3735 C.3     
  23 C23            6.2786    -5.7325    -0.3423 C.3     
  24 C24            5.9240    -6.5856     0.8773 C.3     
  25 Cl25          -2.5561    -2.8879     0.5574 Cl      
  26 C26           -1.5915     3.1489    -2.2881 C.3     
  27 C27           -1.3762     3.1146    -3.8025 C.3     
  28 C28           -2.9567     3.7676    -1.9809 C.3     
  29 C29           -0.4921     3.9894    -1.6355 C.3     
  30 H30            1.9242    -2.8392    -1.3164 H       
  31 H31           -2.2594    -0.3081    -0.5961 H       
  32 H32            2.0049    -4.0355     1.7300 H       
  33 H33            0.8213    -5.6394    -2.0554 H       
  34 H34            2.5152    -7.6622    -4.2436 H       
  35 H35            5.0938    -7.5347    -0.9882 H       
  36 H36            7.1403    -6.0370    -0.9362 H       
  37 H37            6.1137    -4.6575    -0.2696 H       
  38 H38            5.5258    -6.0719     1.7523 H       
  39 H39            6.5525    -7.4514     1.0857 H       
  40 H40           -2.1595     2.5158    -4.2673 H       
  41 H41           -1.4122     4.1298    -4.1976 H       
  42 H42           -0.4037     2.6738    -4.0213 H       
  43 H43           -3.1100     3.7920    -0.9020 H       
  44 H44           -2.9927     4.7828    -2.3760 H       
  45 H45           -3.7399     3.1688    -2.4457 H       
  46 H46            0.4804     3.5486    -1.8544 H       
  47 H47           -0.5281     5.0046    -2.0307 H       
  48 H48           -0.6455     4.0138    -0.5567 H       
@<TRIPOS>BOND
   1    1    2 1
   2    1    8 2
   3    1    9 1
   4    2    3 ar
   5    2    7 ar
   6    3    4 ar
   7    3   10 1
   8    4    5 ar
   9    4   30 1
  10    5    6 ar
  11    5   11 1
  12    6    7 ar
  13    6   25 1
  14    7   31 1
  15    9   26 1
  16   11   13 1
  17   12   13 ar
  18   12   17 ar
  19   12   32 1
  20   13   14 ar
  21   14   15 ar
  22   14   33 1
  23   15   16 ar
  24   15   18 1
  25   16   17 ar
  26   16   22 1
  27   18   19 1
  28   19   20 1
  29   19   21 1
  30   19   34 1
  31   22   23 1
  32   22   24 1
  33   22   35 1
  34   23   24 1
  35   23   36 1
  36   23   37 1
  37   24   38 1
  38   24   39 1
  39   26   27 1
  40   26   29 1
  41   26   28 1
  42   27   40 1
  43   27   41 1
  44   27   42 1
  45   28   43 1
  46   28   44 1
  47   28   45 1
  48   29   46 1
  49   29   47 1
  50   29   48 1

#	End of record

