#	Name: ASD11820003
#	Creating user name:	WinNT
#	Creation time:	15. 06. 2019 21:29

#	Modifying user name:	WinNT
#	Modification time:	15. 06. 2019 21:29

#	Program:	/corina/corina34_cracker 3.40 0067  02.08.2006

@<TRIPOS>MOLECULE
ASD11820003
  33   36    0    0    0
SMALL
NO_CHARGES


@<TRIPOS>ATOM
   1 C1            -0.0167     1.3839     0.0097 C.ar    
   2 C2             0.0021    -0.0041     0.0020 C.ar    
   3 C3             1.1883    -0.6821    -0.0129 C.ar    
   4 C4             2.3914     0.0262    -0.0206 C.ar    
   5 C5             2.3778     1.4330    -0.0129 C.ar    
   6 C6             1.1586     2.1026     0.0023 C.ar    
   7 C7             3.8031    -0.3647    -0.0361 C.2     
   8 C8             4.5239     0.7677    -0.0369 C.2     
   9 N9             3.6893     1.8520    -0.0232 N.pl3   
  10 C10            6.0293     0.8349    -0.0513 C.3     
  11 C11            6.5227     0.7415    -1.4722 C.2     
  12 C12            6.6351     1.7773    -2.3186 C.2     
  13 C13            7.1497     1.2439    -3.5822 C.ar    
  14 C14            7.3131    -0.1391    -3.3825 C.ar    
  15 N15            6.9281    -0.4109    -2.0887 N.pl3   
  16 C16            7.4707     1.8122    -4.8164 C.ar    
  17 C17            7.9426     1.0208    -5.8254 C.ar    
  18 C18            8.1052    -0.3443    -5.6335 C.ar    
  19 C19            7.7951    -0.9257    -4.4236 C.ar    
  20 H20           -0.9623     1.9056     0.0169 H       
  21 H21           -0.9283    -0.5525     0.0083 H       
  22 H22            1.1953    -1.7620    -0.0184 H       
  23 H23            1.1335     3.1823     0.0087 H       
  24 H24            4.1904    -1.3728    -0.0449 H       
  25 H25            3.9786     2.7778    -0.0207 H       
  26 H26            6.3551     1.7791     0.3850 H       
  27 H27            6.4356     0.0069     0.5295 H       
  28 H28            6.3919     2.8082    -2.1081 H       
  29 H29            6.9378    -1.2893    -1.6773 H       
  30 H30            7.3461     2.8735    -4.9731 H       
  31 H31            8.1908     1.4609    -6.7799 H       
  32 H32            8.4786    -0.9569    -6.4408 H       
  33 H33            7.9254    -1.9887    -4.2840 H       
@<TRIPOS>BOND
   1    1    2 ar
   2    1    6 ar
   3    1   20 1
   4    2    3 ar
   5    2   21 1
   6    3    4 ar
   7    3   22 1
   8    4    5 ar
   9    4    7 1
  10    5    6 ar
  11    5    9 1
  12    6   23 1
  13    7    8 2
  14    7   24 1
  15    8    9 1
  16    8   10 1
  17    9   25 1
  18   10   11 1
  19   10   26 1
  20   10   27 1
  21   11   12 2
  22   11   15 1
  23   12   13 1
  24   12   28 1
  25   13   14 ar
  26   13   16 ar
  27   14   15 1
  28   14   19 ar
  29   15   29 1
  30   16   17 ar
  31   16   30 1
  32   17   18 ar
  33   17   31 1
  34   18   19 ar
  35   18   32 1
  36   19   33 1

#	End of record

