#	Name: ASD13110012
#	Creating user name:	WinNT
#	Creation time:	15. 06. 2019 21:30

#	Modifying user name:	WinNT
#	Modification time:	15. 06. 2019 21:30

#	Program:	/corina/corina34_cracker 3.40 0067  02.08.2006

@<TRIPOS>MOLECULE
ASD13110012
  28   29    0    0    0
SMALL
NO_CHARGES


@<TRIPOS>ATOM
   1 C1            -0.0167     1.3778     0.0096 C.ar    
   2 C2             0.0021    -0.0041     0.0020 C.ar    
   3 C3             1.2105    -0.6820    -0.0127 C.ar    
   4 C4             2.4106     0.0382    -0.0203 C.ar    
   5 C5             2.3792     1.4317    -0.0129 C.ar    
   6 C6             1.1682     2.0929     0.0021 C.ar    
   7 C7             3.7075    -0.6770    -0.0355 C.ar    
   8 C8             4.6850    -0.3282    -0.9696 C.ar    
   9 C9             5.8818    -0.9860    -0.9851 C.ar    
  10 C10            6.1283    -2.0110    -0.0633 C.ar    
  11 C11            5.1465    -2.3591     0.8727 C.ar    
  12 C12            3.9531    -1.6950     0.8881 C.ar    
  13 O13            1.2303    -2.0398    -0.0193 O.3     
  14 C14           -0.0333    -2.7071    -0.0104 C.3     
  15 F15           -0.6172    -2.6170    -1.2785 F       
  16 C16            7.4149    -2.7204    -0.0784 C.2     
  17 O17            7.6274    -3.6080     0.7204 O.2     
  18 H18           -0.9607     1.9023     0.0169 H       
  19 H19           -0.9261    -0.5562     0.0079 H       
  20 H20            3.3017     1.9933    -0.0184 H       
  21 H21            1.1449     3.1726     0.0074 H       
  22 H22            4.4944     0.4621    -1.6806 H       
  23 H23            6.6375    -0.7162    -1.7080 H       
  24 H24            5.3343    -3.1495     1.5843 H       
  25 H25            3.1958    -1.9629     1.6099 H       
  26 H26            0.1114    -3.7557     0.2493 H       
  27 H27           -0.6870    -2.2376     0.7248 H       
  28 H28            8.1714    -2.4516    -0.8008 H       
@<TRIPOS>BOND
   1    1    2 ar
   2    1    6 ar
   3    1   18 1
   4    2    3 ar
   5    2   19 1
   6    3    4 ar
   7    3   13 1
   8    4    5 ar
   9    4    7 1
  10    5    6 ar
  11    5   20 1
  12    6   21 1
  13    7    8 ar
  14    7   12 ar
  15    8    9 ar
  16    8   22 1
  17    9   10 ar
  18    9   23 1
  19   10   11 ar
  20   10   16 1
  21   11   12 ar
  22   11   24 1
  23   12   25 1
  24   13   14 1
  25   14   15 1
  26   14   26 1
  27   14   27 1
  28   16   17 2
  29   16   28 1

#	End of record

