#	Name: ASD11920029
#	Creating user name:	WinNT
#	Creation time:	15. 06. 2019 21:29

#	Modifying user name:	WinNT
#	Modification time:	15. 06. 2019 21:29

#	Program:	/corina/corina34_cracker 3.40 0067  02.08.2006

@<TRIPOS>MOLECULE
ASD11920029
  45   47    0    0    0
SMALL
NO_CHARGES


@<TRIPOS>ATOM
   1 C1             0.0259     1.5366    -0.6700 C.ar    
   2 C2             1.2880     2.1232    -0.5619 C.ar    
   3 N3             2.3689     1.3745    -0.4853 N.ar    
   4 C4             2.3012     0.0513    -0.5076 C.ar    
   5 C5             1.0757    -0.6016    -0.6136 C.ar    
   6 C6            -0.0745     0.1373    -0.6959 C.ar    
   7 N7             3.4702    -0.6957    -0.4244 N.am    
   8 C8             4.6678    -0.0780    -0.4479 C.2     
   9 S9             4.7549     1.6105    -0.7172 S.2     
  10 N10            5.7969    -0.7894    -0.2593 N.am    
  11 C11            7.0986    -0.1179    -0.2848 C.3     
  12 C12            8.0712    -0.4187     0.8574 C.3     
  13 C13            8.3347    -0.9827    -0.5403 C.3     
  14 C14            8.1199    -2.4600    -0.7464 C.ar    
  15 C15            8.6202    -3.3695     0.1741 C.ar    
  16 C16            8.4254    -4.7362    -0.0103 C.ar    
  17 C17            7.7413    -5.1957    -1.0974 C.ar    
  18 C18            7.2285    -4.2916    -2.0379 C.ar    
  19 C19            7.4183    -2.9105    -1.8513 C.ar    
  20 O20            6.9217    -2.0260    -2.7512 O.3     
  21 C21            6.4935    -4.7824    -3.2062 C.2     
  22 O22            6.0509    -3.9971    -4.0184 O.2     
  23 C23            6.2869    -6.2626    -3.3992 C.3     
  24 O24            9.3031    -2.9254     1.2590 O.3     
  25 C25           -1.1495     2.3508    -0.7474 C.1     
  26 N26           -2.0819     2.9968    -0.8088 N.1     
  27 C27            9.7915    -3.9142     2.1676 C.3     
  28 H28            1.3789     3.1991    -0.5413 H       
  29 H29            1.0327    -1.6806    -0.6312 H       
  30 H30           -1.0367    -0.3460    -0.7785 H       
  31 H31            3.4242    -1.6617    -0.3494 H       
  32 H32            5.7475    -1.7461    -0.1067 H       
  33 H33            7.0983     0.8930    -0.6924 H       
  34 H34            8.7109     0.3942     1.2009 H       
  35 H35            7.7424    -1.1162     1.6278 H       
  36 H36            9.1478    -0.5408    -1.1162 H       
  37 H37            8.8187    -5.4366     0.7117 H       
  38 H38            7.5949    -6.2570    -1.2338 H       
  39 H39            7.4994    -1.8718    -3.5112 H       
  40 H40            5.3586    -6.5661    -2.9154 H       
  41 H41            6.2312    -6.4858    -4.4646 H       
  42 H42            7.1217    -6.8066    -2.9572 H       
  43 H43            8.9542    -4.4889     2.5637 H       
  44 H44           10.4755    -4.5823     1.6443 H       
  45 H45           10.3173    -3.4258     2.9880 H       
@<TRIPOS>BOND
   1    1    2 ar
   2    1    6 ar
   3    1   25 1
   4    2    3 ar
   5    2   28 1
   6    3    4 ar
   7    4    5 ar
   8    4    7 1
   9    5    6 ar
  10    5   29 1
  11    6   30 1
  12    7    8 am
  13    7   31 1
  14    8    9 2
  15    8   10 am
  16   10   11 1
  17   10   32 1
  18   11   12 1
  19   11   13 1
  20   11   33 1
  21   12   13 1
  22   12   34 1
  23   12   35 1
  24   13   14 1
  25   13   36 1
  26   14   15 ar
  27   14   19 ar
  28   15   16 ar
  29   15   24 1
  30   16   17 ar
  31   16   37 1
  32   17   18 ar
  33   17   38 1
  34   18   19 ar
  35   18   21 1
  36   19   20 1
  37   20   39 1
  38   21   22 2
  39   21   23 1
  40   23   40 1
  41   23   41 1
  42   23   42 1
  43   24   27 1
  44   25   26 3
  45   27   43 1
  46   27   44 1
  47   27   45 1

#	End of record

