#	Name: ASD10410036
#	Creating user name:	WinNT
#	Creation time:	15. 06. 2019 21:26

#	Modifying user name:	WinNT
#	Modification time:	15. 06. 2019 21:26

#	Program:	/corina/corina34_cracker 3.40 0067  02.08.2006

@<TRIPOS>MOLECULE
ASD10410036
  62   66    0    0    0
SMALL
NO_CHARGES


@<TRIPOS>ATOM
   1 C1            -0.1188     1.3639    -0.7013 C.ar    
   2 N2            -0.0414     0.0422    -0.7067 N.ar    
   3 C3             0.9312    -0.5769    -1.3718 C.ar    
   4 C4             1.8716     0.1900    -2.0659 C.ar    
   5 C5             1.7521     1.5676    -2.0329 C.ar    
   6 N6             0.7588     2.1154    -1.3504 N.ar    
   7 N7            -1.1467     1.9767    -0.0041 N.pl3   
   8 C8            -1.1812     3.3726     0.1096 C.ar    
   9 C9            -2.4001     4.0379     0.1274 C.ar    
  10 C10           -2.4342     5.4134     0.2400 C.ar    
  11 C11           -1.2494     6.1319     0.3354 C.ar    
  12 C12           -0.0307     5.4667     0.3176 C.ar    
  13 C13            0.0031     4.0903     0.2103 C.ar    
  14 C14           -3.7569     6.1354     0.2588 C.3     
  15 C15           -4.0509     6.6976    -1.1334 C.3     
  16 N16           -1.2838     7.5264     0.4490 N.3     
  17 C17           -0.6618     8.1655    -0.7190 C.3     
  18 C18           -0.7904     9.6855    -0.5943 C.3     
  19 N19           -0.1464    10.1286     0.6501 N.3     
  20 C20           -0.7684     9.4895     1.8181 C.3     
  21 C21           -0.6398     7.9695     1.6934 C.3     
  22 C22           -0.1825    11.5923     0.7694 C.3     
  23 C23            2.9897    -0.4689    -2.8319 C.3     
  24 C24            3.0669    -0.2041    -4.3369 C.3     
  25 C25            4.0890     0.4346    -3.3943 C.3     
  26 C26            1.0163    -2.0570    -1.3760 C.ar    
  27 C27            0.6512    -2.7815    -0.2419 C.ar    
  28 C28            0.7316    -4.1593    -0.2507 C.ar    
  29 C29            1.1747    -4.8226    -1.3855 C.ar    
  30 C30            1.5386    -4.1059    -2.5138 C.ar    
  31 C31            1.4559    -2.7287    -2.5156 C.ar    
  32 F32            1.2521    -6.1714    -1.3903 F       
  33 Cl33           0.2782    -5.0632     1.1603 Cl      
  34 H34            2.4618     2.1897    -2.5580 H       
  35 H35           -1.8427     1.4394     0.4054 H       
  36 H36           -3.3214     3.4792     0.0529 H       
  37 H37            0.8906     6.0253     0.3918 H       
  38 H38            0.9508     3.5725     0.2009 H       
  39 H39           -4.5463     5.4400     0.5440 H       
  40 H40           -3.7146     6.9524     0.9791 H       
  41 H41           -4.9632     7.2931    -1.0996 H       
  42 H42           -3.2194     7.3247    -1.4551 H       
  43 H43           -4.1795     5.8755    -1.8375 H       
  44 H44            0.3925     7.8923    -0.7646 H       
  45 H45           -1.1640     7.8313    -1.6268 H       
  46 H46           -0.3042    10.1626    -1.4452 H       
  47 H47           -1.8448     9.9609    -0.5761 H       
  48 H48           -0.2662     9.8236     2.7260 H       
  49 H49           -1.8226     9.7627     1.8637 H       
  50 H50           -1.1260     7.4924     2.5444 H       
  51 H51            0.4147     7.6940     1.6752 H       
  52 H52           -1.2185    11.9311     0.7722 H       
  53 H53            0.3006    11.8931     1.6990 H       
  54 H54            0.3435    12.0387    -0.0745 H       
  55 H55            3.2821    -1.4579    -2.4793 H       
  56 H56            3.4105    -1.0188    -4.9743 H       
  57 H57            2.3090     0.4467    -4.7729 H       
  58 H58            4.0034     1.5056    -3.2103 H       
  59 H59            5.1049     0.0401    -3.4116 H       
  60 H60            0.3065    -2.2654     0.6419 H       
  61 H61            1.8838    -4.6264    -3.3949 H       
  62 H62            1.7357    -2.1714    -3.3973 H       
@<TRIPOS>BOND
   1    1    2 ar
   2    1    6 ar
   3    1    7 1
   4    2    3 ar
   5    3    4 ar
   6    3   26 1
   7    4    5 ar
   8    4   23 1
   9    5    6 ar
  10    5   34 1
  11    7    8 1
  12    7   35 1
  13    8    9 ar
  14    8   13 ar
  15    9   10 ar
  16    9   36 1
  17   10   11 ar
  18   10   14 1
  19   11   12 ar
  20   11   16 1
  21   12   13 ar
  22   12   37 1
  23   13   38 1
  24   14   15 1
  25   14   39 1
  26   14   40 1
  27   15   41 1
  28   15   42 1
  29   15   43 1
  30   16   17 1
  31   16   21 1
  32   17   18 1
  33   17   44 1
  34   17   45 1
  35   18   19 1
  36   18   46 1
  37   18   47 1
  38   19   20 1
  39   19   22 1
  40   20   21 1
  41   20   48 1
  42   20   49 1
  43   21   50 1
  44   21   51 1
  45   22   52 1
  46   22   53 1
  47   22   54 1
  48   23   24 1
  49   23   25 1
  50   23   55 1
  51   24   25 1
  52   24   56 1
  53   24   57 1
  54   25   58 1
  55   25   59 1
  56   26   27 ar
  57   26   31 ar
  58   27   28 ar
  59   27   60 1
  60   28   29 ar
  61   28   33 1
  62   29   30 ar
  63   29   32 1
  64   30   31 ar
  65   30   61 1
  66   31   62 1

#	End of record

