#	Name: ASD11030025
#	Creating user name:	WinNT
#	Creation time:	15. 06. 2019 21:29

#	Modifying user name:	WinNT
#	Modification time:	15. 06. 2019 21:29

#	Program:	/corina/corina34_cracker 3.40 0067  02.08.2006

@<TRIPOS>MOLECULE
ASD11030025
  45   48    0    0    0
SMALL
NO_CHARGES


@<TRIPOS>ATOM
   1 C1            -0.0173     1.4248     0.0099 C.3     
   2 O2             0.0021    -0.0041     0.0020 O.3     
   3 C3             0.6250    -0.6176     1.0402 C.ar    
   4 C4             1.2058     0.1361     2.0458 C.ar    
   5 C5             1.8409    -0.4864     3.1052 C.ar    
   6 C6             1.9040    -1.8665     3.1737 C.ar    
   7 C7             1.3309    -2.6412     2.1797 C.ar    
   8 C8             0.6780    -2.0203     1.1016 C.ar    
   9 C9             0.0669    -2.8295     0.0432 C.2     
  10 C10           -1.2148    -2.5902    -0.3409 C.2     
  11 S11           -2.3270    -1.3618     0.2927 S.3     
  12 C12           -3.6673    -1.8137    -0.7748 C.2     
  13 N13           -4.8612    -1.2571    -0.8178 N.2     
  14 C14           -5.7878    -1.7115    -1.6911 C.2     
  15 N15           -5.6287    -2.6934    -2.5448 N.2     
  16 N16           -6.6060    -2.9838    -3.2870 N.2     
  17 C17           -7.6998    -2.2877    -3.1508 C.2     
  18 S18           -7.4300    -1.0938    -1.8799 S.3     
  19 C19           -8.9474    -2.4701    -3.9211 C.ar    
  20 C20           -9.0281    -3.4626    -4.8999 C.ar    
  21 C21          -10.1956    -3.6282    -5.6152 C.ar    
  22 C22          -11.2864    -2.8127    -5.3643 C.ar    
  23 C23          -11.2125    -1.8266    -4.3948 C.ar    
  24 C24          -10.0523    -1.6546    -3.6691 C.ar    
  25 Cl25         -12.7523    -3.0270    -6.2693 Cl      
  26 N26           -3.2225    -2.8504    -1.5452 N.am    
  27 C27           -1.9849    -3.2842    -1.3746 C.2     
  28 O28           -1.5214    -4.2029    -2.0254 O.2     
  29 O29            1.3951    -3.9953     2.2491 O.3     
  30 C30            2.0700    -4.5559     3.3770 C.3     
  31 H31            1.0053     1.8021     0.0021 H       
  32 H32           -0.5445     1.7859    -0.8732 H       
  33 H33           -0.5275     1.7763     0.9067 H       
  34 H34            1.1631     1.2144     2.0027 H       
  35 H35            2.2914     0.1098     3.8849 H       
  36 H36            2.4025    -2.3415     4.0057 H       
  37 H37            0.6351    -3.6158    -0.4315 H       
  38 H38           -8.1780    -4.0989    -5.0967 H       
  39 H39          -10.2592    -4.3953    -6.3728 H       
  40 H40          -12.0665    -1.1937    -4.2037 H       
  41 H41           -9.9959    -0.8853    -2.9132 H       
  42 H42           -3.8020    -3.2578    -2.2078 H       
  43 H43            3.1045    -4.2127     3.3889 H       
  44 H44            1.5715    -4.2389     4.2931 H       
  45 H45            2.0488    -5.6436     3.3095 H       
@<TRIPOS>BOND
   1    1    2 1
   2    1   31 1
   3    1   32 1
   4    1   33 1
   5    2    3 1
   6    3    4 ar
   7    3    8 ar
   8    4    5 ar
   9    4   34 1
  10    5    6 ar
  11    5   35 1
  12    6    7 ar
  13    6   36 1
  14    7    8 ar
  15    7   29 1
  16    8    9 1
  17    9   10 2
  18    9   37 1
  19   10   11 1
  20   10   27 1
  21   11   12 1
  22   12   13 2
  23   12   26 1
  24   13   14 1
  25   14   15 2
  26   14   18 1
  27   15   16 1
  28   16   17 2
  29   17   18 1
  30   17   19 1
  31   19   20 ar
  32   19   24 ar
  33   20   21 ar
  34   20   38 1
  35   21   22 ar
  36   21   39 1
  37   22   23 ar
  38   22   25 1
  39   23   24 ar
  40   23   40 1
  41   24   41 1
  42   26   27 am
  43   26   42 1
  44   27   28 2
  45   29   30 1
  46   30   43 1
  47   30   44 1
  48   30   45 1

#	End of record

