#	Name: ASD10410242
#	Creating user name:	WinNT
#	Creation time:	15. 06. 2019 21:27

#	Modifying user name:	WinNT
#	Modification time:	15. 06. 2019 21:27

#	Program:	/corina/corina34_cracker 3.40 0067  02.08.2006

@<TRIPOS>MOLECULE
ASD10410242
  63   68    0    0    0
SMALL
NO_CHARGES


@<TRIPOS>ATOM
   1 C1             0.0474     1.2880     0.5356 C.ar    
   2 C2             0.0015    -0.0026     0.0294 C.ar    
   3 C3             1.1470    -0.5847    -0.4931 C.ar    
   4 C4             2.3343     0.1203    -0.5096 C.ar    
   5 C5             2.3811     1.4127    -0.0034 C.ar    
   6 C6             1.2337     1.9947     0.5195 C.ar    
   7 O7            -1.1672    -0.6978     0.0456 O.3     
   8 N8             3.5843     2.1280    -0.0193 N.pl3   
   9 C9             3.5673     3.5190    -0.1174 C.2     
  10 N10            4.6183     4.2992    -0.0406 N.2     
  11 N11            2.4764     4.2697    -0.3106 N.2     
  12 C12            2.8142     5.5405    -0.3549 C.2     
  13 N13            4.1618     5.6189    -0.1889 N.pl3   
  14 C14            4.9348     6.7771    -0.1695 C.ar    
  15 N15            1.9539     6.6053    -0.5400 N.pl3   
  16 N16            4.3411     7.9503    -0.3248 N.ar    
  17 C17           -1.1421    -2.0217    -0.4919 C.3     
  18 C18           -2.5373    -2.6409    -0.3879 C.3     
  19 N19           -3.4700    -1.8926    -1.2412 N.3     
  20 C20           -4.7615    -2.5947    -1.3549 C.3     
  21 C21           -5.8570    -1.6165    -0.8809 C.3     
  22 C22           -5.1887    -0.2283    -1.0634 C.3     
  23 C23           -3.7159    -0.5396    -0.6981 C.3     
  24 N24            6.2434     6.6753     0.0092 N.ar    
  25 C25            7.0013     7.7631     0.0312 C.ar    
  26 C26            6.4083     9.0140    -0.1570 C.ar    
  27 C27            5.0389     9.0770    -0.3243 C.ar    
  28 C28            8.4657     7.6894     0.2344 C.ar    
  29 C29            9.1622     8.8461     0.5814 C.ar    
  30 C30            8.4224    10.1420     0.7797 C.3     
  31 C31            7.2545    10.2545    -0.1963 C.3     
  32 C32            9.1468     6.4853     0.0808 C.ar    
  33 C33           10.5150     6.4447     0.2614 C.ar    
  34 C34           11.2051     7.5973     0.5923 C.ar    
  35 C35           10.5311     8.7945     0.7516 C.ar    
  36 H36           -0.8460     1.7419     0.9385 H       
  37 H37            1.1105    -1.5898    -0.8867 H       
  38 H38            3.2263    -0.3333    -0.9158 H       
  39 H39            1.2691     2.9998     0.9131 H       
  40 H40            4.4298     1.6561     0.0379 H       
  41 H41            1.0034     6.4470    -0.6517 H       
  42 H42            2.3002     7.5111    -0.5583 H       
  43 H43           -0.8387    -1.9833    -1.5381 H       
  44 H44           -0.4324    -2.6287     0.0702 H       
  45 H45           -2.4991    -3.6798    -0.7153 H       
  46 H46           -2.8775    -2.5983     0.6468 H       
  47 H47           -4.9401    -2.8769    -2.3925 H       
  48 H48           -4.7580    -3.4823    -0.7222 H       
  49 H49           -6.7460    -1.7014    -1.5058 H       
  50 H50           -6.1027    -1.7912     0.1666 H       
  51 H51           -5.2714     0.1121    -2.0956 H       
  52 H52           -5.6149     0.5035    -0.3772 H       
  53 H53           -3.5843    -0.5354     0.3839 H       
  54 H54           -3.0479     0.1840    -1.1653 H       
  55 H55            4.5453    10.0284    -0.4568 H       
  56 H56            8.0423    10.1854     1.8003 H       
  57 H57            9.1071    10.9743     0.6171 H       
  58 H58            7.6421    10.3929    -1.2056 H       
  59 H59            6.6427    11.1152     0.0738 H       
  60 H60            8.6072     5.5863    -0.1783 H       
  61 H61           11.0471     5.5121     0.1447 H       
  62 H62           12.2760     7.5618     0.7273 H       
  63 H63           11.0766     9.6904     1.0089 H       
@<TRIPOS>BOND
   1    1    2 ar
   2    1    6 ar
   3    1   36 1
   4    2    3 ar
   5    2    7 1
   6    3    4 ar
   7    3   37 1
   8    4    5 ar
   9    4   38 1
  10    5    6 ar
  11    5    8 1
  12    6   39 1
  13    7   17 1
  14    8    9 1
  15    8   40 1
  16    9   10 2
  17    9   11 1
  18   10   13 1
  19   11   12 2
  20   12   13 1
  21   12   15 1
  22   13   14 1
  23   14   16 ar
  24   14   24 ar
  25   15   41 1
  26   15   42 1
  27   16   27 ar
  28   17   18 1
  29   17   43 1
  30   17   44 1
  31   18   19 1
  32   18   45 1
  33   18   46 1
  34   19   20 1
  35   19   23 1
  36   20   21 1
  37   20   47 1
  38   20   48 1
  39   21   22 1
  40   21   49 1
  41   21   50 1
  42   22   23 1
  43   22   51 1
  44   22   52 1
  45   23   53 1
  46   23   54 1
  47   24   25 ar
  48   25   26 ar
  49   25   28 1
  50   26   27 ar
  51   26   31 1
  52   27   55 1
  53   28   29 ar
  54   28   32 ar
  55   29   30 1
  56   29   35 ar
  57   30   31 1
  58   30   56 1
  59   30   57 1
  60   31   58 1
  61   31   59 1
  62   32   33 ar
  63   32   60 1
  64   33   34 ar
  65   33   61 1
  66   34   35 ar
  67   34   62 1
  68   35   63 1

#	End of record

