#	Name: ASD10420111
#	Creating user name:	WinNT
#	Creation time:	15. 06. 2019 21:27

#	Modifying user name:	WinNT
#	Modification time:	15. 06. 2019 21:27

#	Program:	/corina/corina34_cracker 3.40 0067  02.08.2006

@<TRIPOS>MOLECULE
ASD10420111
  78   82    0    0    0
SMALL
NO_CHARGES


@<TRIPOS>ATOM
   1 N1            -0.1952     0.2259    -0.6616 N.pl3   
   2 C2            -0.6201    -1.0002    -1.0979 C.2     
   3 C3            -2.0271    -0.9811    -1.1538 C.2     
   4 C4            -2.4413     0.2842    -0.7413 C.2     
   5 C5            -1.3064     1.0185    -0.4351 C.2     
   6 C6             1.1378     0.4818    -0.5154 C.2     
   7 C7             2.0605    -0.4611    -0.7960 C.2     
   8 C8             1.6593    -1.7330    -1.2472 C.2     
   9 C9             0.3136    -2.0012    -1.3968 C.2     
  10 C10           -1.2870     2.3569     0.0234 C.2     
  11 O11           -1.3138     2.5918     1.2185 O.2     
  12 C12           -3.8660     0.7652    -0.6412 C.3     
  13 C13           -4.3955     0.4826     0.7411 C.ar    
  14 C14           -4.5698     1.5187     1.6392 C.ar    
  15 C15           -4.7121    -0.8117     1.1085 C.ar    
  16 C16           -5.1981    -1.0724     2.3764 C.ar    
  17 C17           -5.3682    -0.0390     3.2776 C.ar    
  18 C18           -2.9039    -2.0981    -1.5729 C.ar    
  19 C19           -2.9547    -3.2702    -0.8178 C.ar    
  20 C20           -3.7737    -4.3074    -1.2137 C.ar    
  21 C21           -4.5433    -4.1873    -2.3571 C.ar    
  22 C22           -4.4974    -3.0276    -3.1103 C.ar    
  23 C23           -3.6871    -1.9808    -2.7216 C.ar    
  24 C24           -4.2309     2.9307     1.2362 C.3     
  25 C25           -5.0563     1.2589     2.9090 C.ar    
  26 F26           -5.2219     2.2701     3.7895 F       
  27 O27            2.5844    -2.6841    -1.5309 O.3     
  28 N28           -1.2389     3.3719    -0.8620 N.am    
  29 C29           -1.3340     4.7695    -0.4140 C.3     
  30 C30           -0.1663     5.5554    -1.0199 C.3     
  31 N31           -0.1588     5.3693    -2.4771 N.3     
  32 C32            0.0679     3.9624    -2.8335 C.3     
  33 C33           -1.0840     3.1115    -2.3012 C.3     
  34 C34           -0.3285     7.0419    -0.6959 C.3     
  35 C35            0.8802     7.7974    -1.1849 C.2     
  36 N36            0.9584     9.1312    -1.0075 N.am    
  37 O37            1.7825     7.2053    -1.7382 O.2     
  38 C38            2.1335     9.8657    -1.4829 C.3     
  39 C39            1.9712    11.3521    -1.1589 C.3     
  40 C40            3.1984    12.1193    -1.6554 C.3     
  41 C41            3.0362    13.6057    -1.3313 C.3     
  42 H42            1.4582     1.4537    -0.1704 H       
  43 H43            3.1106    -0.2397    -0.6744 H       
  44 H44           -0.0156    -2.9704    -1.7413 H       
  45 H45           -3.9016     1.8378    -0.8317 H       
  46 H46           -4.4778     0.2447    -1.3781 H       
  47 H47           -4.5801    -1.6200     0.4044 H       
  48 H48           -5.4451    -2.0842     2.6623 H       
  49 H49           -5.7485    -0.2428     4.2677 H       
  50 H50           -2.3538    -3.3654     0.0746 H       
  51 H51           -3.8139    -5.2152    -0.6300 H       
  52 H52           -5.1823    -5.0024    -2.6633 H       
  53 H53           -5.1006    -2.9399    -4.0019 H       
  54 H54           -3.6522    -1.0760    -3.3103 H       
  55 H55           -5.0798     3.3736     0.7153 H       
  56 H56           -4.0039     3.5180     2.1260 H       
  57 H57           -3.3637     2.9218     0.5758 H       
  58 H58            3.4978    -2.3978    -1.3932 H       
  59 H59           -2.2778     5.1985    -0.7505 H       
  60 H60           -1.2773     4.8100     0.6738 H       
  61 H61            0.7725     5.1920    -0.6020 H       
  62 H62           -1.0125     5.7139    -2.8900 H       
  63 H63            0.1222     3.8660    -3.9178 H       
  64 H64            1.0035     3.6211    -2.3903 H       
  65 H65           -0.8621     2.0562    -2.4606 H       
  66 H66           -2.0034     3.3780    -2.8226 H       
  67 H67           -1.2213     7.4260    -1.1893 H       
  68 H68           -0.4256     7.1702     0.3822 H       
  69 H69            0.2367     9.6047    -0.5650 H       
  70 H70            3.0262     9.4816    -0.9894 H       
  71 H71            2.2305     9.7373    -2.5610 H       
  72 H72            1.0785    11.7363    -1.6523 H       
  73 H73            1.8742    11.4805    -0.0808 H       
  74 H74            4.0912    11.7351    -1.1619 H       
  75 H75            3.2954    11.9909    -2.7334 H       
  76 H76            3.9104    14.1522    -1.6850 H       
  77 H77            2.1434    13.9898    -1.8248 H       
  78 H78            2.9391    13.7341    -0.2533 H       
@<TRIPOS>BOND
   1    1    2 1
   2    1    6 1
   3    1    5 1
   4    2    3 2
   5    2    9 1
   6    3    4 1
   7    3   18 1
   8    4    5 2
   9    4   12 1
  10    5   10 1
  11    6    7 2
  12    6   42 1
  13    7    8 1
  14    7   43 1
  15    8    9 2
  16    8   27 1
  17    9   44 1
  18   10   11 2
  19   10   28 am
  20   12   13 1
  21   12   45 1
  22   12   46 1
  23   13   14 ar
  24   13   15 ar
  25   14   24 1
  26   14   25 ar
  27   15   16 ar
  28   15   47 1
  29   16   17 ar
  30   16   48 1
  31   17   25 ar
  32   17   49 1
  33   18   19 ar
  34   18   23 ar
  35   19   20 ar
  36   19   50 1
  37   20   21 ar
  38   20   51 1
  39   21   22 ar
  40   21   52 1
  41   22   23 ar
  42   22   53 1
  43   23   54 1
  44   24   55 1
  45   24   56 1
  46   24   57 1
  47   25   26 1
  48   27   58 1
  49   28   29 1
  50   28   33 1
  51   29   30 1
  52   29   59 1
  53   29   60 1
  54   30   31 1
  55   30   34 1
  56   30   61 1
  57   31   32 1
  58   31   62 1
  59   32   33 1
  60   32   63 1
  61   32   64 1
  62   33   65 1
  63   33   66 1
  64   34   35 1
  65   34   67 1
  66   34   68 1
  67   35   36 am
  68   35   37 2
  69   36   38 1
  70   36   69 1
  71   38   39 1
  72   38   70 1
  73   38   71 1
  74   39   40 1
  75   39   72 1
  76   39   73 1
  77   40   41 1
  78   40   74 1
  79   40   75 1
  80   41   76 1
  81   41   77 1
  82   41   78 1

#	End of record

