#	Name: ASD13110074
#	Creating user name:	WinNT
#	Creation time:	15. 06. 2019 21:30

#	Modifying user name:	WinNT
#	Modification time:	15. 06. 2019 21:30

#	Program:	/corina/corina34_cracker 3.40 0067  02.08.2006

@<TRIPOS>MOLECULE
ASD13110074
  43   45    0    0    0
SMALL
NO_CHARGES


@<TRIPOS>ATOM
   1 C1            -0.0169     1.3932     0.0097 C.ar    
   2 C2             0.0021    -0.0041     0.0020 C.ar    
   3 C3             1.2338    -0.6798    -0.0134 C.ar    
   4 C4             2.4200     0.0405    -0.0208 C.ar    
   5 C5             2.3859     1.4195    -0.0131 C.ar    
   6 C6             1.1698     2.0935     0.0021 C.ar    
   7 N7             0.9287    -2.0274    -0.0173 N.pl3   
   8 C8            -0.4274    -2.1351    -0.0046 C.2     
   9 N9            -0.9698    -0.9526     0.0066 N.2     
  10 C10           -1.1901    -3.4348    -0.0034 C.3     
  11 N11           -1.5278    -3.8015     1.3742 N.am    
  12 C12           -2.7877    -3.3447     1.9660 C.3     
  13 C13           -0.6794    -4.5592     2.0971 C.2     
  14 O14            0.3636    -4.9374     1.6072 O.2     
  15 C15           -1.0267    -4.9364     3.5142 C.3     
  16 N16            0.0485    -5.7556     4.0790 N.am    
  17 C17            1.1083    -5.1673     4.7456 C.ar    
  18 C18            2.0579    -6.0678     5.2304 C.ar    
  19 S19            1.4869    -7.6774     4.7694 S.3     
  20 C20            0.0228    -7.0871     3.9655 C.2     
  21 C21            3.1773    -5.6381     5.9194 C.ar    
  22 C22            3.3746    -4.2887     6.1412 C.ar    
  23 C23            2.4441    -3.3782     5.6683 C.ar    
  24 C24            1.3285    -3.8021     4.9825 C.ar    
  25 O25           -0.8329    -7.7583     3.4190 O.2     
  26 Cl26           2.6872    -1.6817     5.9449 Cl      
  27 F27            1.1515     3.4443     0.0091 F       
  28 Cl28           3.8706     2.3191    -0.0219 Cl      
  29 H29           -0.9583     1.9223     0.0170 H       
  30 H30            3.3676    -0.4774    -0.0323 H       
  31 H31            1.5637    -2.7607    -0.0271 H       
  32 H32           -2.1057    -3.3193    -0.5834 H       
  33 H33           -0.5750    -4.2175    -0.4474 H       
  34 H34           -3.5681    -4.0805     1.7720 H       
  35 H35           -2.6611    -3.2243     3.0419 H       
  36 H36           -3.0712    -2.3894     1.5243 H       
  37 H37           -1.1471    -4.0327     4.1116 H       
  38 H38           -1.9576    -5.5035     3.5215 H       
  39 H39            3.8965    -6.3566     6.2841 H       
  40 H40            4.2466    -3.9468     6.6788 H       
  41 H41            0.6152    -3.0757     4.6219 H       
  42 Cl42           9.2466     8.4443    11.6788 Cl      
  43 H43            9.2466     9.8143    11.6788 H       
@<TRIPOS>BOND
   1    1    2 ar
   2    1    6 ar
   3    1   29 1
   4    2    9 1
   5    2    3 ar
   6    3    4 ar
   7    3    7 1
   8    4    5 ar
   9    4   30 1
  10    5    6 ar
  11    5   28 1
  12    6   27 1
  13    7    8 1
  14    7   31 1
  15    8   10 1
  16    8    9 2
  17   10   11 1
  18   10   32 1
  19   10   33 1
  20   11   12 1
  21   11   13 am
  22   12   34 1
  23   12   35 1
  24   12   36 1
  25   13   14 2
  26   13   15 1
  27   15   16 1
  28   15   37 1
  29   15   38 1
  30   16   17 1
  31   16   20 am
  32   17   24 ar
  33   17   18 ar
  34   18   19 1
  35   18   21 ar
  36   19   20 1
  37   20   25 2
  38   21   22 ar
  39   21   39 1
  40   22   23 ar
  41   22   40 1
  42   23   24 ar
  43   23   26 1
  44   24   41 1
  45   42   43 1

#	End of record

