#	Name: ASD11740002
#	Creating user name:	WinNT
#	Creation time:	15. 06. 2019 21:29

#	Modifying user name:	WinNT
#	Modification time:	15. 06. 2019 21:29

#	Program:	/corina/corina34_cracker 3.40 0067  02.08.2006

@<TRIPOS>MOLECULE
ASD11740002
  41   42    0    0    0
SMALL
NO_CHARGES


@<TRIPOS>ATOM
   1 C1            -0.0163     1.3728     0.0315 C.ar    
   2 C2             0.0035    -0.0065     0.0534 C.ar    
   3 C3             1.2086    -0.6913     0.0479 C.ar    
   4 C4             2.4008    -0.0020     0.0205 C.ar    
   5 C5             2.3979     1.3952    -0.0018 C.ar    
   6 C6             1.1760     2.0858     0.0038 C.ar    
   7 N7             1.1587     3.4743    -0.0187 N.am    
   8 S8             1.2535     4.2803    -1.4622 S.o2    
   9 O9             1.8185     5.5396    -1.1240 O.2     
  10 O10            1.9358     3.3786    -2.3228 O.2     
  11 C11           -0.4723     4.4767    -1.9852 C.3     
  12 C12            3.6701     2.1392    -0.0307 C.2     
  13 N13            4.8411     1.4719    -0.0355 N.am    
  14 O14            3.6632     3.3553    -0.0501 O.2     
  15 C15            6.0474     2.1749    -0.1486 C.ar    
  16 C16            7.1749     1.5487    -0.6811 C.ar    
  17 C17            8.3666     2.2514    -0.7906 C.ar    
  18 C18            8.4337     3.5671    -0.3728 C.ar    
  19 C19            7.3161     4.1872     0.1554 C.ar    
  20 C20            6.1231     3.4968     0.2630 C.ar    
  21 S21            7.0861    -0.1289    -1.2123 S.3     
  22 C22            8.7682    -0.4585    -1.8061 C.3     
  23 C23            1.0566     4.2260     1.2346 C.3     
  24 H24           -0.9596     1.8989     0.0314 H       
  25 H25           -0.9259    -0.5561     0.0752 H       
  26 H26            1.2127    -1.7712     0.0655 H       
  27 H27            3.3368    -0.5408     0.0167 H       
  28 H28           -1.0165     5.0495    -1.2343 H       
  29 H29           -0.5053     5.0039    -2.9386 H       
  30 H30           -0.9321     3.4948    -2.0968 H       
  31 H31            4.8485     0.5048     0.0393 H       
  32 H32            9.2416     1.7701    -1.2019 H       
  33 H33            9.3619     4.1125    -0.4587 H       
  34 H34            7.3743     5.2153     0.4810 H       
  35 H35            5.2523     3.9846     0.6757 H       
  36 H36            8.8320    -1.4856    -2.1653 H       
  37 H37            9.0070     0.2265    -2.6197 H       
  38 H38            9.4763    -0.3144    -0.9901 H       
  39 H39            2.0561     4.4264     1.6206 H       
  40 H40            0.5419     5.1693     1.0517 H       
  41 H41            0.4958     3.6417     1.9641 H       
@<TRIPOS>BOND
   1    1    2 ar
   2    1    6 ar
   3    1   24 1
   4    2    3 ar
   5    2   25 1
   6    3    4 ar
   7    3   26 1
   8    4    5 ar
   9    4   27 1
  10    5    6 ar
  11    5   12 1
  12    6    7 1
  13    7    8 am
  14    7   23 1
  15    8    9 2
  16    8   10 2
  17    8   11 1
  18   11   28 1
  19   11   29 1
  20   11   30 1
  21   12   13 am
  22   12   14 2
  23   13   15 1
  24   13   31 1
  25   15   16 ar
  26   15   20 ar
  27   16   17 ar
  28   16   21 1
  29   17   18 ar
  30   17   32 1
  31   18   19 ar
  32   18   33 1
  33   19   20 ar
  34   19   34 1
  35   20   35 1
  36   21   22 1
  37   22   36 1
  38   22   37 1
  39   22   38 1
  40   23   39 1
  41   23   40 1
  42   23   41 1

#	End of record

