#	Name: ASD14460002
#	Creating user name:	WinNT
#	Creation time:	15. 06. 2019 21:31

#	Modifying user name:	WinNT
#	Modification time:	15. 06. 2019 21:31

#	Program:	/corina/corina34_cracker 3.40 0067  02.08.2006

@<TRIPOS>MOLECULE
ASD14460002
  51   53    0    0    0
SMALL
NO_CHARGES


@<TRIPOS>ATOM
   1 C1             0.1577     1.5374    -0.0008 C.2     
   2 C2             0.1709     0.0681     0.1537 C.ar    
   3 C3             1.3688    -0.6390     0.0277 C.ar    
   4 C4             1.3784    -2.0110     0.1724 C.ar    
   5 C5             0.2051    -2.6908     0.4421 C.ar    
   6 C6            -0.9923    -1.9968     0.5694 C.ar    
   7 C7            -1.0120    -0.6171     0.4315 C.ar    
   8 O8             1.1620     2.1195    -0.3586 O.2     
   9 O9            -0.9697     2.2309     0.2497 O.3     
  10 N10           -2.1752    -2.6886     0.8416 N.am    
  11 S11           -2.1961    -3.8676     2.0043 S.o2    
  12 O12           -3.5319    -4.3486     2.0641 O.2     
  13 O13           -1.0788    -4.7065     1.7453 O.2     
  14 C14           -1.8806    -3.0818     3.5496 C.ar    
  15 C15           -2.9319    -2.6023     4.3081 C.ar    
  16 C16           -2.6847    -1.9848     5.5213 C.ar    
  17 C17           -1.3852    -1.8478     5.9753 C.ar    
  18 C18           -0.3336    -2.3283     5.2159 C.ar    
  19 C19           -0.5823    -2.9502     4.0053 C.ar    
  20 Cl20           1.2976    -2.1568     5.7849 Cl      
  21 Cl21          -4.0051    -1.3816     6.4734 Cl      
  22 S22            2.8675     0.2211    -0.3166 S.o2    
  23 O23            2.9552     1.2717     0.6363 O.2     
  24 O24            3.8725    -0.7711    -0.4742 O.2     
  25 N25            2.6888     0.9448    -1.7953 N.am    
  26 C26            2.5973     0.1620    -2.9502 C.ar    
  27 C27            3.1716     0.6019    -4.1359 C.ar    
  28 C28            3.0806    -0.1729    -5.2757 C.ar    
  29 C29            2.4174    -1.3877    -5.2373 C.ar    
  30 C30            1.8436    -1.8288    -4.0561 C.ar    
  31 C31            1.9370    -1.0589    -2.9120 C.ar    
  32 C32            3.8933     1.9241    -4.1789 C.3     
  33 F33            2.3292    -2.1436    -6.3536 F       
  34 Br34           0.9379    -3.4881    -4.0073 Br      
  35 C35           -0.8793     3.6789     0.1927 C.3     
  36 H36            2.3056    -2.5560     0.0742 H       
  37 H37            0.2191    -3.7649     0.5539 H       
  38 H38           -1.9407    -0.0754     0.5345 H       
  39 H39           -2.9842    -2.4784     0.3495 H       
  40 H40           -3.9464    -2.7093     3.9536 H       
  41 H41           -1.1918    -1.3655     6.9221 H       
  42 H42            0.2384    -3.3290     3.4142 H       
  43 H43            2.6477     1.9117    -1.8603 H       
  44 H44            3.5269     0.1693    -6.1977 H       
  45 H45            1.4935    -1.4048    -1.9900 H       
  46 H46            4.9456     1.7717    -3.9386 H       
  47 H47            3.8070     2.3529    -5.1773 H       
  48 H48            3.4494     2.6041    -3.4518 H       
  49 H49           -1.8334     4.1145     0.4895 H       
  50 H50           -0.0971     4.0211     0.8703 H       
  51 H51           -0.6396     3.9882    -0.8247 H       
@<TRIPOS>BOND
   1    1    2 1
   2    1    8 2
   3    1    9 1
   4    2    3 ar
   5    2    7 ar
   6    3    4 ar
   7    3   22 1
   8    4    5 ar
   9    4   36 1
  10    5    6 ar
  11    5   37 1
  12    6    7 ar
  13    6   10 1
  14    7   38 1
  15    9   35 1
  16   10   11 am
  17   10   39 1
  18   11   12 2
  19   11   13 2
  20   11   14 1
  21   14   15 ar
  22   14   19 ar
  23   15   16 ar
  24   15   40 1
  25   16   17 ar
  26   16   21 1
  27   17   18 ar
  28   17   41 1
  29   18   19 ar
  30   18   20 1
  31   19   42 1
  32   22   23 2
  33   22   24 2
  34   22   25 am
  35   25   26 1
  36   25   43 1
  37   26   27 ar
  38   26   31 ar
  39   27   28 ar
  40   27   32 1
  41   28   29 ar
  42   28   44 1
  43   29   30 ar
  44   29   33 1
  45   30   31 ar
  46   30   34 1
  47   31   45 1
  48   32   46 1
  49   32   47 1
  50   32   48 1
  51   35   49 1
  52   35   50 1
  53   35   51 1

#	End of record

