#	Name: ASD11680002
#	Creating user name:	WinNT
#	Creation time:	15. 06. 2019 21:29

#	Modifying user name:	WinNT
#	Modification time:	15. 06. 2019 21:29

#	Program:	/corina/corina34_cracker 3.40 0067  02.08.2006

@<TRIPOS>MOLECULE
ASD11680002
  82   85    0    0    0
SMALL
NO_CHARGES


@<TRIPOS>ATOM
   1 C1            -5.7618     3.5087     2.7983 C.3     
   2 C2            -5.8320     2.1084     2.1858 C.3     
   3 C3            -4.7464     1.2258     2.8050 C.3     
   4 C4            -4.9652     1.1330     4.3165 C.3     
   5 C5            -4.8949     2.5333     4.9289 C.3     
   6 C6            -5.9806     3.4158     4.3097 C.3     
   7 O7            -3.9512     0.3087     4.8948 O.3     
   8 C8            -2.7366     2.2412     6.5251 C.ar    
   9 C9            -3.9908     2.3539     7.1194 C.ar    
  10 O10           -5.0993     2.4466     6.3406 O.3     
  11 C11           -1.6129     2.1466     7.2956 C.ar    
  12 C12           -1.7225     2.1630     8.6889 C.ar    
  13 C13           -2.9856     2.2765     9.2958 C.ar    
  14 C14           -4.1168     2.3716     8.4989 C.ar    
  15 C15           -0.5306     2.0624     9.5417 C.2     
  16 C16           -0.7114     2.0844    10.9114 C.2     
  17 C17           -2.0123     2.2009    11.4373 C.2     
  18 O18           -3.0899     2.2917    10.6420 O.3     
  19 N19            0.3945     1.9909    11.7729 N.am    
  20 C20            2.1823     3.9897    14.3377 C.ar    
  21 C21            1.8903     2.9452    13.4568 C.ar    
  22 C22            0.6745     2.9994    12.6220 C.2     
  23 C23            3.3182     3.9355    15.1147 C.ar    
  24 C24           -4.3871     4.1193     2.5185 C.3     
  25 C25           -6.8474     4.3912     2.1791 C.3     
  26 O26           -7.1160     1.5380     2.4471 O.3     
  27 C27           -7.5606     0.6229     1.4437 C.3     
  28 O28           -3.4418     1.8053     2.5395 O.3     
  29 C29           -2.4050     0.9532     2.4310 C.2     
  30 N30           -1.1671     1.4259     2.1851 N.am    
  31 O31           -2.5855    -0.2420     2.5548 O.2     
  32 C32           -5.4789     2.4944     9.1318 C.3     
  33 O33            0.7066     1.9510     9.0022 O.3     
  34 O34           -2.1641     2.2193    12.6465 O.2     
  35 O35           -0.0748     3.9542    12.7002 O.2     
  36 C36            4.1735     2.8440    15.0231 C.ar    
  37 C37            3.8863     1.8025    14.1483 C.ar    
  38 C38            2.7528     1.8491    13.3681 C.ar    
  39 O39            5.2923     2.7947    15.7899 O.3     
  40 C40            3.6342     5.0615    16.0651 C.3     
  41 C41            3.2237     4.6704    17.4614 C.2     
  42 C42            2.4213     5.4445    18.1492 C.2     
  43 C43            1.9872     6.7722    17.5837 C.3     
  44 C44            1.9325     5.0073    19.5060 C.3     
  45 H45           -5.6762     2.1745     1.1091 H       
  46 H46           -4.7964     0.2282     2.3687 H       
  47 H47           -5.9445     0.6980     4.5158 H       
  48 H48           -3.9156     2.9683     4.7296 H       
  49 H49           -5.9305     4.4134     4.7460 H       
  50 H50           -6.9599     2.9808     4.5090 H       
  51 H51           -4.0277     0.2052     5.8532 H       
  52 H52           -2.6523     2.2240     5.4485 H       
  53 H53           -0.6425     2.0591     6.8297 H       
  54 H54            0.9565     1.2005    11.7566 H       
  55 H55            1.5206     4.8405    14.4059 H       
  56 H56           -4.1326     3.9756     1.4684 H       
  57 H57           -4.4104     5.1854     2.7441 H       
  58 H58           -3.6390     3.6319     3.1437 H       
  59 H59           -7.8268     3.9562     2.3784 H       
  60 H60           -6.7974     5.3888     2.6154 H       
  61 H61           -6.6916     4.4573     1.1023 H       
  62 H62           -7.6265     1.1383     0.4855 H       
  63 H63           -6.8523    -0.2019     1.3646 H       
  64 H64           -8.5420     0.2343     1.7155 H       
  65 H65           -1.0230     2.3801     2.0863 H       
  66 H66           -0.4202     0.8120     2.1069 H       
  67 H67           -5.7175     3.5477     9.2791 H       
  68 H68           -6.2250     2.0407     8.4794 H       
  69 H69           -5.4795     1.9836    10.0947 H       
  70 H70            1.4168     1.8917     9.6559 H       
  71 H71            4.5536     0.9560    14.0800 H       
  72 H72            2.5304     1.0396    12.6887 H       
  73 H73            5.1619     2.3707    16.6491 H       
  74 H74            4.7049     5.2645    16.0446 H       
  75 H75            3.0889     5.9557    15.7631 H       
  76 H76            3.5910     3.7520    17.8950 H       
  77 H77            1.1295     6.6246    16.9274 H       
  78 H78            1.7103     7.4411    18.3985 H       
  79 H79            2.8077     7.2111    17.0162 H       
  80 H80            2.3489     4.0286    19.7443 H       
  81 H81            2.2507     5.7302    20.2572 H       
  82 H82            0.8442     4.9469    19.4980 H       
@<TRIPOS>BOND
   1    1    2 1
   2    1   24 1
   3    1   25 1
   4    1    6 1
   5    2    3 1
   6    2   26 1
   7    2   45 1
   8    3    4 1
   9    3   28 1
  10    3   46 1
  11    4    5 1
  12    4    7 1
  13    4   47 1
  14    5    6 1
  15    5   10 1
  16    5   48 1
  17    6   49 1
  18    6   50 1
  19    7   51 1
  20    8    9 ar
  21    8   11 ar
  22    8   52 1
  23    9   10 1
  24    9   14 ar
  25   11   12 ar
  26   11   53 1
  27   12   13 ar
  28   12   15 1
  29   13   14 ar
  30   13   18 1
  31   14   32 1
  32   15   16 2
  33   15   33 1
  34   16   17 1
  35   16   19 1
  36   17   18 1
  37   17   34 2
  38   19   22 am
  39   19   54 1
  40   20   21 ar
  41   20   23 ar
  42   20   55 1
  43   21   22 1
  44   21   38 ar
  45   22   35 2
  46   23   36 ar
  47   23   40 1
  48   24   56 1
  49   24   57 1
  50   24   58 1
  51   25   59 1
  52   25   60 1
  53   25   61 1
  54   26   27 1
  55   27   62 1
  56   27   63 1
  57   27   64 1
  58   28   29 1
  59   29   30 am
  60   29   31 2
  61   30   65 1
  62   30   66 1
  63   32   67 1
  64   32   68 1
  65   32   69 1
  66   33   70 1
  67   36   37 ar
  68   36   39 1
  69   37   38 ar
  70   37   71 1
  71   38   72 1
  72   39   73 1
  73   40   41 1
  74   40   74 1
  75   40   75 1
  76   41   42 2
  77   41   76 1
  78   42   43 1
  79   42   44 1
  80   43   77 1
  81   43   78 1
  82   43   79 1
  83   44   80 1
  84   44   81 1
  85   44   82 1

#	End of record

