#	Name: ASD10160103
#	Creating user name:	WinNT
#	Creation time:	15. 06. 2019 21:25

#	Modifying user name:	WinNT
#	Modification time:	15. 06. 2019 21:25

#	Program:	/corina/corina34_cracker 3.40 0067  02.08.2006

@<TRIPOS>MOLECULE
ASD10160103
  39   41    0    0    0
SMALL
NO_CHARGES


@<TRIPOS>ATOM
   1 C1             0.0738     1.0300    -1.4445 C.ar    
   2 C2             0.0502    -0.1972    -0.7752 C.ar    
   3 C3             1.2893     1.6945    -1.6355 C.ar    
   4 C4             2.4591     1.1371    -1.1632 C.ar    
   5 C5             2.4308    -0.0822    -0.4988 C.ar    
   6 C6             1.2230    -0.7467    -0.3067 C.ar    
   7 C7            -1.1793     1.6193    -1.9533 C.2     
   8 N8            -2.3490     0.9745    -1.7731 N.am    
   9 O9            -1.1568     2.6867    -2.5352 O.2     
  10 S10           -3.7556     1.6361    -2.3442 S.o2    
  11 O11           -4.7613     0.7102    -1.9559 O.2     
  12 O12           -3.7485     2.9644    -1.8394 O.2     
  13 O13            3.5841    -0.6273    -0.0355 O.3     
  14 C14            4.7247     0.1029    -0.1471 C.ar    
  15 Cl15           1.1949    -2.2707     0.5241 Cl      
  16 C16            5.0995     0.9847     0.8619 C.ar    
  17 C17            5.5350    -0.0246    -1.2660 C.ar    
  18 N18            6.6428     0.6811    -1.3790 N.ar    
  19 C19            7.0244     1.5294    -0.4446 C.ar    
  20 C20            6.2716     1.7078     0.7028 C.ar    
  21 Cl21           6.7852     2.8285     1.9251 Cl      
  22 C22            8.3006     2.3102    -0.6255 C.3     
  23 C23            9.5995     1.5157    -0.7758 C.3     
  24 C24            8.9930     2.2265    -1.9873 C.3     
  25 Cl25           1.3259     3.2183    -2.4663 Cl      
  26 C26           -3.5551     1.6391    -4.1470 C.3     
  27 H27           -0.8866    -0.7134    -0.6253 H       
  28 H28            3.3984     1.6494    -1.3105 H       
  29 H29           -2.3670     0.1230    -1.3088 H       
  30 H30            4.4920     1.1032     1.7470 H       
  31 H31            5.2555    -0.7096    -2.0528 H       
  32 H32            8.3502     3.2598    -0.0927 H       
  33 H33           10.5038     1.9429    -0.3423 H       
  34 H34            9.5310     0.4284    -0.7438 H       
  35 H35            8.5254     1.6068    -2.7524 H       
  36 H36            9.4982     3.1214    -2.3508 H       
  37 H37           -3.4139     0.6171    -4.4987 H       
  38 H38           -4.4456     2.0632    -4.6110 H       
  39 H39           -2.6852     2.2389    -4.4148 H       
@<TRIPOS>BOND
   1    1    2 ar
   2    1    3 ar
   3    1    7 1
   4    2    6 ar
   5    2   27 1
   6    3    4 ar
   7    3   25 1
   8    4    5 ar
   9    4   28 1
  10    5    6 ar
  11    5   13 1
  12    6   15 1
  13    7    8 am
  14    7    9 2
  15    8   10 am
  16    8   29 1
  17   10   11 2
  18   10   12 2
  19   10   26 1
  20   13   14 1
  21   14   16 ar
  22   14   17 ar
  23   16   20 ar
  24   16   30 1
  25   17   18 ar
  26   17   31 1
  27   18   19 ar
  28   19   20 ar
  29   19   22 1
  30   20   21 1
  31   22   23 1
  32   22   24 1
  33   22   32 1
  34   23   24 1
  35   23   33 1
  36   23   34 1
  37   24   35 1
  38   24   36 1
  39   26   37 1
  40   26   38 1
  41   26   39 1

#	End of record

