#	Name: ASD14740001
#	Creating user name:	WinNT
#	Creation time:	15. 06. 2019 21:31

#	Modifying user name:	WinNT
#	Modification time:	15. 06. 2019 21:31

#	Program:	/corina/corina34_cracker 3.40 0067  02.08.2006

@<TRIPOS>MOLECULE
ASD14740001
  56   60    0    0    0
SMALL
NO_CHARGES


@<TRIPOS>ATOM
   1 C1            -0.0132     1.3914    -0.0011 C.ar    
   2 C2             0.0130     0.0027    -0.0150 C.ar    
   3 C3             1.2226    -0.6633    -0.0408 C.ar    
   4 C4             2.4067     0.0507    -0.0521 C.ar    
   5 C5             2.3842     1.4333    -0.0383 C.ar    
   6 C6             1.1781     2.1056    -0.0130 C.ar    
   7 C7             3.7247    -0.6795    -0.0792 C.3     
   8 C8             4.5028    -0.2844    -1.3374 C.3     
   9 C9             5.8651    -0.9817    -1.3288 C.3     
  10 N10            6.6106    -0.5876    -0.1266 N.3     
  11 C11            5.9054    -0.9987     1.0941 C.3     
  12 C12            4.5444    -0.3019     1.1578 C.3     
  13 C13            7.9762    -1.1282    -0.1531 C.3     
  14 N14           -1.2361     2.0689     0.0192 N.pl3   
  15 C15           -1.3560     3.2611     0.7143 C.ar    
  16 C16           -0.4142     4.8182     2.1339 C.ar    
  17 N17           -0.3358     3.6915     1.4418 N.ar    
  18 N18           -2.4880     3.9484     0.6320 N.ar    
  19 C19           -2.6247     5.0881     1.2869 C.ar    
  20 C20           -1.5843     5.5541     2.0905 C.ar    
  21 C21           -1.7289     6.8011     2.9159 C.3     
  22 C22           -3.8187     7.1457     1.6404 C.2     
  23 C23           -2.6068     7.8382     2.2116 C.3     
  24 N24           -3.7860     5.8560     1.1949 N.pl3   
  25 C25           -5.0084     5.5063     0.7105 C.2     
  26 C26           -5.8439     6.5543     0.8373 C.2     
  27 C27           -5.0650     7.6411     1.4477 C.2     
  28 C28           -5.5378     8.9975     1.7724 C.2     
  29 O29           -4.7752     9.8048     2.2684 O.2     
  30 N30           -6.8155     9.3443     1.5200 N.am    
  31 H31           -0.9115    -0.5556    -0.0054 H       
  32 H32            1.2436    -1.7431    -0.0516 H       
  33 H33            3.3108     1.9880    -0.0469 H       
  34 H34            1.1611     3.1854    -0.0026 H       
  35 H35            3.5455    -1.7546    -0.0844 H       
  36 H36            3.9435    -0.5893    -2.2219 H       
  37 H37            4.6471     0.7959    -1.3519 H       
  38 H38            5.7201    -2.0620    -1.3283 H       
  39 H39            6.4273    -0.6913    -2.2163 H       
  40 H40            5.7602    -2.0790     1.0832 H       
  41 H41            6.4970    -0.7207     1.9664 H       
  42 H42            4.6893     0.7781     1.1826 H       
  43 H43            4.0147    -0.6194     2.0561 H       
  44 H44            8.5005    -0.7480    -1.0298 H       
  45 H45            8.5061    -0.8213     0.7486 H       
  46 H46            7.9353    -2.2165    -0.1979 H       
  47 H47           -2.0005     1.7041    -0.4536 H       
  48 H48            0.4242     5.1574     2.7241 H       
  49 H49           -2.1800     6.5440     3.8744 H       
  50 H50           -0.7420     7.2293     3.0910 H       
  51 H51           -2.9234     8.5958     2.9285 H       
  52 H52           -2.0419     8.3084     1.4067 H       
  53 H53           -5.2664     4.5446     0.2921 H       
  54 H54           -6.8834     6.5897     0.5465 H       
  55 H55           -7.4237     8.7005     1.1245 H       
  56 H56           -7.1268    10.2377     1.7339 H       
@<TRIPOS>BOND
   1    1    2 ar
   2    1    6 ar
   3    1   14 1
   4    2    3 ar
   5    2   31 1
   6    3    4 ar
   7    3   32 1
   8    4    5 ar
   9    4    7 1
  10    5    6 ar
  11    5   33 1
  12    6   34 1
  13    7    8 1
  14    7   12 1
  15    7   35 1
  16    8    9 1
  17    8   36 1
  18    8   37 1
  19    9   10 1
  20    9   38 1
  21    9   39 1
  22   10   11 1
  23   10   13 1
  24   11   12 1
  25   11   40 1
  26   11   41 1
  27   12   42 1
  28   12   43 1
  29   13   44 1
  30   13   45 1
  31   13   46 1
  32   14   15 1
  33   14   47 1
  34   15   18 ar
  35   15   17 ar
  36   16   17 ar
  37   16   20 ar
  38   16   48 1
  39   18   19 ar
  40   19   20 ar
  41   19   24 1
  42   20   21 1
  43   21   23 1
  44   21   49 1
  45   21   50 1
  46   22   23 1
  47   22   27 2
  48   22   24 1
  49   23   51 1
  50   23   52 1
  51   24   25 1
  52   25   26 2
  53   25   53 1
  54   26   27 1
  55   26   54 1
  56   27   28 1
  57   28   29 2
  58   28   30 am
  59   30   55 1
  60   30   56 1

#	End of record

