#	Name: ASD14300013
#	Creating user name:	WinNT
#	Creation time:	15. 06. 2019 21:31

#	Modifying user name:	WinNT
#	Modification time:	15. 06. 2019 21:31

#	Program:	/corina/corina34_cracker 3.40 0067  02.08.2006

@<TRIPOS>MOLECULE
ASD14300013
  94   96    0    0    0
SMALL
NO_CHARGES


@<TRIPOS>ATOM
   1 N1             1.6526     1.1840     1.5420 N.pl3   
   2 C2             0.7544     0.2786     2.0115 C.2     
   3 C3            -0.4915     0.7157     1.7173 C.2     
   4 C4            -0.3669     1.9365     1.0406 C.2     
   5 C5             0.9663     2.2108     0.9410 C.2     
   6 C6             1.5636     3.3983     0.3024 C.ar    
   7 N7             2.8862     3.4874     0.1645 N.ar    
   8 C8             3.4227     4.5580    -0.4117 C.ar    
   9 N9             2.6410     5.5399    -0.8500 N.ar    
  10 C10            1.3212     5.4527    -0.7132 C.ar    
  11 N11            0.7810     4.3813    -0.1426 N.ar    
  12 N12            0.5116     6.4735    -1.1690 N.pl3   
  13 N13            4.7924     4.6507    -0.5547 N.pl3   
  14 C14            5.6463     3.5210    -0.1794 C.3     
  15 C15            6.6907     1.3981    -0.9825 C.3     
  16 C16            5.3924     5.8789    -1.0819 C.3     
  17 C17            5.7056     6.8305     0.0744 C.3     
  18 C18            6.3322     8.1132    -0.4761 C.3     
  19 C19           -0.9308     6.4331    -0.9158 C.3     
  20 C20            1.0947     7.5973    -1.9061 C.3     
  21 C21            5.7990     2.5780    -1.3745 C.3     
  22 C22           -1.2420     7.1822     0.3815 C.3     
  23 C23           -2.7484     7.1400     0.6459 C.3     
  24 C24           -3.0596     7.8891     1.9432 C.3     
  25 C25            1.0999     7.2781    -3.4024 C.3     
  26 C26            1.7088     8.4518    -4.1721 C.3     
  27 C27            1.7141     8.1326    -5.6685 C.3     
  28 C28            3.1092     1.0845     1.6624 C.3     
  29 C29            3.5478     1.6913     2.9702 C.ar    
  30 C30            4.1840     3.6076     4.2570 C.ar    
  31 C31            3.7817     3.0510     3.0573 C.ar    
  32 C32            3.7106     0.8893     4.0842 C.ar    
  33 C33            4.1130     1.4459     5.2839 C.ar    
  34 C34            4.3528     2.8046     5.3694 C.ar    
  35 C35            6.6455     9.0649     0.6802 C.3     
  36 C36            7.2720    10.3475     0.1297 C.3     
  37 C37            7.5853    11.2992     1.2860 C.3     
  38 C38            6.8434     0.4551    -2.1777 C.3     
  39 C39            7.7351    -0.7247    -1.7857 C.3     
  40 C40            7.8878    -1.6678    -2.9808 C.3     
  41 H41            0.9950    -0.6367     2.5319 H       
  42 H42           -1.4164     0.2136     1.9602 H       
  43 H43           -1.1757     2.5470     0.6672 H       
  44 H44            6.6272     3.8905     0.1195 H       
  45 H45            5.1919     2.9828     0.6524 H       
  46 H46            7.6716     1.7677    -0.6837 H       
  47 H47            6.2363     0.8599    -0.1507 H       
  48 H48            6.3133     5.6351    -1.6115 H       
  49 H49            4.6946     6.3585    -1.7683 H       
  50 H50            4.7847     7.0743     0.6041 H       
  51 H51            6.4034     6.3509     0.7608 H       
  52 H52            7.2531     7.8694    -1.0057 H       
  53 H53            5.6344     8.5928    -1.1625 H       
  54 H54           -1.4585     6.9060    -1.7440 H       
  55 H55           -1.2545     5.3964    -0.8233 H       
  56 H56            0.5024     8.4949    -1.7281 H       
  57 H57            2.1170     7.7633    -1.5664 H       
  58 H58            4.8180     2.2085    -1.6734 H       
  59 H59            6.2534     3.1162    -2.2063 H       
  60 H60           -0.7143     6.7093     1.2097 H       
  61 H61           -0.9183     8.2189     0.2890 H       
  62 H62           -3.2761     7.6129    -0.1823 H       
  63 H63           -3.0721     6.1033     0.7384 H       
  64 H64           -4.1328     7.8591     2.1316 H       
  65 H65           -2.5319     7.4162     2.7714 H       
  66 H66           -2.7359     8.9258     1.8507 H       
  67 H67            1.6921     6.3805    -3.5803 H       
  68 H68            0.0775     7.1121    -3.7421 H       
  69 H69            1.1166     9.3494    -3.9942 H       
  70 H70            2.7312     8.6178    -3.8325 H       
  71 H71            2.1479     8.9687    -6.2168 H       
  72 H72            2.3063     7.2350    -5.8464 H       
  73 H73            0.6917     7.9666    -6.0081 H       
  74 H74            3.4056     0.0360     1.6309 H       
  75 H75            3.5794     1.6199     0.8376 H       
  76 H76            4.3671     4.6698     4.3249 H       
  77 H77            3.6505     3.6782     2.1880 H       
  78 H78            3.5232    -0.1723     4.0174 H       
  79 H79            4.2395     0.8194     6.1544 H       
  80 H80            4.6671     3.2395     6.3067 H       
  81 H81            5.7245     9.3086     1.2098 H       
  82 H82            7.3433     8.5852     1.3666 H       
  83 H83            8.1930    10.1037    -0.4000 H       
  84 H84            6.5742    10.8271    -0.5567 H       
  85 H85            6.6644    11.5430     1.8156 H       
  86 H86            8.2831    10.8195     1.9724 H       
  87 H87            8.0317    12.2130     0.8938 H       
  88 H88            5.8624     0.0856    -2.4765 H       
  89 H89            7.2978     0.9934    -3.0095 H       
  90 H90            8.7161    -0.3552    -1.4868 H       
  91 H91            7.2807    -1.2630    -0.9539 H       
  92 H92            6.9069    -2.0373    -3.2797 H       
  93 H93            8.3422    -1.1295    -3.8126 H       
  94 H94            8.5231    -2.5083    -2.7015 H       
@<TRIPOS>BOND
   1    1    2 1
   2    1    5 1
   3    1   28 1
   4    2    3 2
   5    2   41 1
   6    3    4 1
   7    3   42 1
   8    4    5 2
   9    4   43 1
  10    5    6 1
  11    6    7 ar
  12    6   11 ar
  13    7    8 ar
  14    8    9 ar
  15    8   13 1
  16    9   10 ar
  17   10   11 ar
  18   10   12 1
  19   12   19 1
  20   12   20 1
  21   13   14 1
  22   13   16 1
  23   14   21 1
  24   14   44 1
  25   14   45 1
  26   15   38 1
  27   15   21 1
  28   15   46 1
  29   15   47 1
  30   16   17 1
  31   16   48 1
  32   16   49 1
  33   17   18 1
  34   17   50 1
  35   17   51 1
  36   18   35 1
  37   18   52 1
  38   18   53 1
  39   19   22 1
  40   19   54 1
  41   19   55 1
  42   20   25 1
  43   20   56 1
  44   20   57 1
  45   21   58 1
  46   21   59 1
  47   22   23 1
  48   22   60 1
  49   22   61 1
  50   23   24 1
  51   23   62 1
  52   23   63 1
  53   24   64 1
  54   24   65 1
  55   24   66 1
  56   25   26 1
  57   25   67 1
  58   25   68 1
  59   26   27 1
  60   26   69 1
  61   26   70 1
  62   27   71 1
  63   27   72 1
  64   27   73 1
  65   28   29 1
  66   28   74 1
  67   28   75 1
  68   29   32 ar
  69   29   31 ar
  70   30   31 ar
  71   30   34 ar
  72   30   76 1
  73   31   77 1
  74   32   33 ar
  75   32   78 1
  76   33   34 ar
  77   33   79 1
  78   34   80 1
  79   35   36 1
  80   35   81 1
  81   35   82 1
  82   36   37 1
  83   36   83 1
  84   36   84 1
  85   37   85 1
  86   37   86 1
  87   37   87 1
  88   38   39 1
  89   38   88 1
  90   38   89 1
  91   39   40 1
  92   39   90 1
  93   39   91 1
  94   40   92 1
  95   40   93 1
  96   40   94 1

#	End of record

