#	Name: ASD14880006
#	Creating user name:	WinNT
#	Creation time:	15. 06. 2019 21:31

#	Modifying user name:	WinNT
#	Modification time:	15. 06. 2019 21:31

#	Program:	/corina/corina34_cracker 3.40 0067  02.08.2006

@<TRIPOS>MOLECULE
ASD14880006
  20   21    0    0    0
SMALL
NO_CHARGES


@<TRIPOS>ATOM
   1 C1            -0.1299     1.5100    -0.5042 C.ar    
   2 C2            -0.1981     0.1473    -0.7172 C.ar    
   3 C3             0.9458    -0.6254    -0.6339 C.ar    
   4 C4             2.1616    -0.0367    -0.3376 C.ar    
   5 C5             2.2371     1.3254    -0.1235 C.ar    
   6 C6             1.0899     2.1047    -0.2064 C.ar    
   7 N7             1.1627     3.4831     0.0092 N.pl3   
   8 C8             0.0687     4.1638     0.5318 C.2     
   9 C9            -1.6662     5.7385     1.3992 C.2     
  10 S10           -0.0512     5.9100     0.7198 S.3     
  11 N11           -1.0267     3.6138     0.9526 N.2     
  12 N12           -1.9831     4.4816     1.4321 N.2     
  13 S13           -2.6913     7.0646     1.9427 S.3     
  14 H14           -1.0229     2.1134    -0.5735 H       
  15 H15           -1.1460    -0.3157    -0.9488 H       
  16 H16            0.8895    -1.6910    -0.8002 H       
  17 H17            3.0530    -0.6431    -0.2733 H       
  18 H18            3.1868     1.7844     0.1086 H       
  19 H19            1.9765     3.9653    -0.2057 H       
  20 H20           -3.8003     6.4344     2.3692 H       
@<TRIPOS>BOND
   1    1    2 ar
   2    1    6 ar
   3    1   14 1
   4    2    3 ar
   5    2   15 1
   6    3    4 ar
   7    3   16 1
   8    4    5 ar
   9    4   17 1
  10    5    6 ar
  11    5   18 1
  12    6    7 1
  13    7    8 1
  14    7   19 1
  15    8   11 2
  16    8   10 1
  17    9   10 1
  18    9   12 2
  19    9   13 1
  20   11   12 1
  21   13   20 1

#	End of record

