#	Name: ASD10610064
#	Creating user name:	WinNT
#	Creation time:	15. 06. 2019 21:27

#	Modifying user name:	WinNT
#	Modification time:	15. 06. 2019 21:27

#	Program:	/corina/corina34_cracker 3.40 0067  02.08.2006

@<TRIPOS>MOLECULE
ASD10610064
  62   67    0    0    0
SMALL
NO_CHARGES


@<TRIPOS>ATOM
   1 C1             1.9408     3.4258    -2.7715 C.ar    
   2 N2             3.0030     3.3217    -3.5562 N.ar    
   3 C3             4.0156     2.5413    -3.2270 C.ar    
   4 C4             3.9540     1.8185    -2.0289 C.ar    
   5 C5             2.8127     1.9576    -1.2291 C.ar    
   6 N6             1.8437     2.7593    -1.6308 N.ar    
   7 C7             5.0623     0.9330    -1.6202 C.2     
   8 O8             6.0454     0.8239    -2.3271 O.2     
   9 N9             4.9842     0.2457    -0.4636 N.am    
  10 C10            6.0327    -0.7144    -0.1098 C.3     
  11 C11            7.4410    -0.1663     0.1292 C.3     
  12 C12            6.5983    -0.6515     1.3104 C.3     
  13 C13            5.9144    -2.0723    -0.7527 C.2     
  14 N14            4.6992    -2.6203    -0.9512 N.am    
  15 O15            6.9127    -2.6720    -1.0913 O.2     
  16 O16            3.7225    -6.0325    -0.7624 O.3     
  17 C17            4.6467    -5.0215    -0.3263 C.3     
  18 C18            4.5873    -3.9847    -1.4728 C.3     
  19 C19            3.2061    -4.2333    -2.0488 C.ar    
  20 C20            2.7792    -5.4643    -1.5632 C.ar    
  21 C21            2.4097    -3.4877    -2.8912 C.ar    
  22 C22            1.1632    -3.9543    -3.2608 C.ar    
  23 C23            0.7157    -5.1830    -2.7776 C.ar    
  24 C24            1.5238    -5.9353    -1.9307 C.ar    
  25 C25           -0.6224    -5.6887    -3.1666 C.ar    
  26 C26           -1.7515    -4.8628    -3.0456 C.ar    
  27 C27           -3.0047    -5.3498    -3.4153 C.ar    
  28 C28           -3.1292    -6.6398    -3.8978 C.ar    
  29 C29           -2.0146    -7.4528    -4.0164 C.ar    
  30 C30           -0.7650    -6.9823    -3.6589 C.ar    
  31 O31           -0.7286    -1.7703    -1.7758 O.3     
  32 N32           -0.5019    -2.9025    -2.1471 N.2     
  33 C33           -1.6121    -3.4814    -2.5275 C.2     
  34 N34           -2.6086    -2.5821    -2.3595 N.2     
  35 C35           -2.0344    -1.5056    -1.8837 C.2     
  36 C36           -2.7176    -0.2111    -1.5251 C.3     
  37 F37           -4.0964    -4.5621    -3.3018 F       
  38 Cl38          -2.1866    -9.0700    -4.6237 Cl      
  39 O39            0.9274     4.2413    -3.1435 O.3     
  40 C40           -0.1970     4.3209    -2.2652 C.3     
  41 H41            4.8783     2.4611    -3.8718 H       
  42 H42            2.7264     1.4171    -0.2981 H       
  43 H43            4.2338     0.3866     0.1347 H       
  44 H44            8.2819    -0.7880    -0.1781 H       
  45 H45            7.5874     0.9086     0.0233 H       
  46 H46            6.1902     0.1042     1.9816 H       
  47 H47            6.8847    -1.5924     1.7802 H       
  48 H48            3.8987    -2.1112    -0.7488 H       
  49 H49            4.3179    -4.5774     0.6133 H       
  50 H50            5.6514    -5.4329    -0.2294 H       
  51 H51            5.3607    -4.1804    -2.2156 H       
  52 H52            2.7610    -2.5364    -3.2628 H       
  53 H53            0.5385    -3.3702    -3.9203 H       
  54 H54            1.1749    -6.8869    -1.5578 H       
  55 H55           -4.1009    -7.0152    -4.1832 H       
  56 H56            0.1007    -7.6204    -3.7583 H       
  57 H57           -1.9784     0.4996    -1.1555 H       
  58 H58           -3.2058     0.1992    -2.4092 H       
  59 H59           -3.4628    -0.3957    -0.7514 H       
  60 H60           -0.6423     3.3322    -2.1544 H       
  61 H61            0.1284     4.6841    -1.2904 H       
  62 H62           -0.9348     5.0072    -2.6808 H       
@<TRIPOS>BOND
   1    1    2 ar
   2    1    6 ar
   3    1   39 1
   4    2    3 ar
   5    3    4 ar
   6    3   41 1
   7    4    5 ar
   8    4    7 1
   9    5    6 ar
  10    5   42 1
  11    7    8 2
  12    7    9 am
  13    9   10 1
  14    9   43 1
  15   10   11 1
  16   10   12 1
  17   10   13 1
  18   11   12 1
  19   11   44 1
  20   11   45 1
  21   12   46 1
  22   12   47 1
  23   13   14 am
  24   13   15 2
  25   14   18 1
  26   14   48 1
  27   16   17 1
  28   16   20 1
  29   17   18 1
  30   17   49 1
  31   17   50 1
  32   18   19 1
  33   18   51 1
  34   19   20 ar
  35   19   21 ar
  36   20   24 ar
  37   21   22 ar
  38   21   52 1
  39   22   23 ar
  40   22   53 1
  41   23   24 ar
  42   23   25 1
  43   24   54 1
  44   25   26 ar
  45   25   30 ar
  46   26   27 ar
  47   26   33 1
  48   27   28 ar
  49   27   37 1
  50   28   29 ar
  51   28   55 1
  52   29   30 ar
  53   29   38 1
  54   30   56 1
  55   31   32 1
  56   31   35 1
  57   32   33 2
  58   33   34 1
  59   34   35 2
  60   35   36 1
  61   36   57 1
  62   36   58 1
  63   36   59 1
  64   39   40 1
  65   40   60 1
  66   40   61 1
  67   40   62 1

#	End of record

