#	Name: ASD10420106
#	Creating user name:	WinNT
#	Creation time:	15. 06. 2019 21:27

#	Modifying user name:	WinNT
#	Modification time:	15. 06. 2019 21:27

#	Program:	/corina/corina34_cracker 3.40 0067  02.08.2006

@<TRIPOS>MOLECULE
ASD10420106
  30   31    0    0    0
SMALL
NO_CHARGES


@<TRIPOS>ATOM
   1 Cl1            2.7458     3.4601     0.9003 Cl      
   2 Cl2           -0.6107    -0.7602     0.4597 Cl      
   3 C3            -0.3455     0.9555     0.4643 C.ar    
   4 C4             0.9332     1.4593     0.6565 C.ar    
   5 C5             1.1459     2.8307     0.6598 C.ar    
   6 C6             0.0842     3.6954     0.4721 C.ar    
   7 C7            -1.1956     3.1917     0.2798 C.ar    
   8 C8            -1.4070     1.8192     0.2708 C.ar    
   9 O9             1.9784     0.6087     0.8421 O.3     
  10 O10            2.6484     0.2051    -0.4013 O.3     
  11 O11            3.7771    -0.7135    -0.2008 O.3     
  12 C12           -5.5734     2.6786     0.9858 C.ar    
  13 C13           -4.2759     3.1806     1.1188 C.ar    
  14 C14           -3.5611     3.5664    -0.0272 C.ar    
  15 C15           -4.1521     3.4451    -1.2788 C.ar    
  16 C16           -5.4343     2.9484    -1.3926 C.ar    
  17 C17           -6.1423     2.5668    -0.2639 C.ar    
  18 N18           -2.2711     4.0669     0.0902 N.pl3   
  19 C19           -3.6616     3.3033     2.4518 C.2     
  20 O20           -2.5754     3.8345     2.5737 O.2     
  21 O21           -4.3040     2.8265     3.5363 O.3     
  22 H22            0.2498     4.7626     0.4755 H       
  23 H23           -2.4014     1.4268     0.1171 H       
  24 H24            4.2182    -0.9792    -1.0193 H       
  25 H25           -6.1282     2.3755     1.8615 H       
  26 H26           -3.6074     3.7402    -2.1635 H       
  27 H27           -5.8894     2.8564    -2.3678 H       
  28 H28           -7.1451     2.1786    -0.3647 H       
  29 H29           -2.1155     5.0230     0.0407 H       
  30 H30           -3.8612     2.9301     4.3897 H       
@<TRIPOS>BOND
   1    1    5 1
   2    2    3 1
   3    3    4 ar
   4    3    8 ar
   5    4    5 ar
   6    4    9 1
   7    5    6 ar
   8    6    7 ar
   9    6   22 1
  10    7    8 ar
  11    7   18 1
  12    8   23 1
  13    9   10 1
  14   10   11 1
  15   11   24 1
  16   12   13 ar
  17   12   17 ar
  18   12   25 1
  19   13   14 ar
  20   13   19 1
  21   14   15 ar
  22   14   18 1
  23   15   16 ar
  24   15   26 1
  25   16   17 ar
  26   16   27 1
  27   17   28 1
  28   18   29 1
  29   19   20 2
  30   19   21 1
  31   21   30 1

#	End of record

