#	Name: ASD10220022
#	Creating user name:	WinNT
#	Creation time:	15. 06. 2019 21:26

#	Modifying user name:	WinNT
#	Modification time:	15. 06. 2019 21:26

#	Program:	/corina/corina34_cracker 3.40 0067  02.08.2006

@<TRIPOS>MOLECULE
ASD10220022
  34   36    0    0    0
SMALL
NO_CHARGES


@<TRIPOS>ATOM
   1 C1             0.0036     1.5142     0.4029 C.2     
   2 C2             0.0497     0.2225     0.9779 C.2     
   3 C3            -1.0782    -0.4292     1.3402 C.2     
   4 C4            -2.4055     0.1582     1.1606 C.2     
   5 C5            -2.5344     1.4208     0.6037 C.2     
   6 C6            -1.3329     2.1684     0.2003 C.2     
   7 O7            -3.6419    -0.2953     1.4415 O.3     
   8 C8            -4.5762     0.5952     1.1020 C.2     
   9 C9            -3.9732     1.7030     0.5682 C.2     
  10 O10           -1.4197     3.2750    -0.2889 O.2     
  11 O11            1.0270     2.0859     0.0833 O.2     
  12 C12           -4.6313     2.9215     0.0645 C.2     
  13 O13           -3.9611     3.8753    -0.2832 O.2     
  14 C14           -6.1032     2.9846    -0.0183 C.ar    
  15 C15           -6.7602     4.2126     0.1047 C.ar    
  16 C16           -8.1336     4.2671     0.0264 C.ar    
  17 C17           -8.8672     3.1032    -0.1742 C.ar    
  18 C18           -8.2178     1.8799    -0.2966 C.ar    
  19 C19           -6.8444     1.8173    -0.2258 C.ar    
  20 O20          -10.2208     3.1612    -0.2503 O.3     
  21 C21          -10.9124     1.9280    -0.4576 C.3     
  22 Cl22           1.5884    -0.5430     1.2233 Cl      
  23 Cl23          -0.9469    -2.0125     2.0398 Cl      
  24 C24          -12.3957     2.1875    -0.5149 C.2     
  25 O25          -13.2485     1.1682    -0.7037 O.3     
  26 O26          -12.8174     3.3129    -0.3910 O.2     
  27 H27           -5.6406     0.4628     1.2280 H       
  28 H28           -6.1912     5.1171     0.2613 H       
  29 H29           -8.6419     5.2152     0.1214 H       
  30 H30           -8.7914     0.9781    -0.4520 H       
  31 H31           -6.3407     0.8667    -0.3213 H       
  32 H32          -10.5851     1.4813    -1.3965 H       
  33 H33          -10.6942     1.2465     0.3646 H       
  34 H34          -14.1907     1.3839    -0.7333 H       
@<TRIPOS>BOND
   1    1    2 1
   2    1   11 2
   3    1    6 1
   4    2    3 2
   5    2   22 1
   6    3    4 1
   7    3   23 1
   8    4    5 2
   9    4    7 1
  10    5    6 1
  11    5    9 1
  12    6   10 2
  13    7    8 1
  14    8    9 2
  15    8   27 1
  16    9   12 1
  17   12   13 2
  18   12   14 1
  19   14   15 ar
  20   14   19 ar
  21   15   16 ar
  22   15   28 1
  23   16   17 ar
  24   16   29 1
  25   17   18 ar
  26   17   20 1
  27   18   19 ar
  28   18   30 1
  29   19   31 1
  30   20   21 1
  31   21   24 1
  32   21   32 1
  33   21   33 1
  34   24   25 1
  35   24   26 2
  36   25   34 1

#	End of record

