#	Name: ASD10410209
#	Creating user name:	WinNT
#	Creation time:	15. 06. 2019 21:27

#	Modifying user name:	WinNT
#	Modification time:	15. 06. 2019 21:27

#	Program:	/corina/corina34_cracker 3.40 0067  02.08.2006

@<TRIPOS>MOLECULE
ASD10410209
  57   61    0    0    0
SMALL
NO_CHARGES


@<TRIPOS>ATOM
   1 C1            -0.0184     1.3919    -0.0797 C.ar    
   2 C2            -0.0058     0.0095     0.0246 C.ar    
   3 C3             1.2019    -0.6696     0.1144 C.ar    
   4 C4             2.3919     0.0323     0.0994 C.ar    
   5 C5             2.3792     1.4173    -0.0055 C.ar    
   6 C6             1.1707     2.0951    -0.0948 C.ar    
   7 O7            -1.1771    -0.6818     0.0395 O.3     
   8 Cl8            1.2167    -2.4005     0.2462 Cl      
   9 N9             3.5842     2.1294    -0.0204 N.pl3   
  10 C10            3.6705     3.3396    -0.7078 C.2     
  11 N11            4.7087     4.1405    -0.7090 N.2     
  12 N12            2.7089     3.8655    -1.4758 N.2     
  13 C13            3.1167     5.0128    -1.9742 C.2     
  14 N14            4.3796     5.2381    -1.5207 N.pl3   
  15 C15            5.1826     6.3341    -1.8043 C.2     
  16 N16            2.3931     5.8394    -2.8114 N.pl3   
  17 N17            4.8392     7.3395    -2.5674 N.2     
  18 C18           -2.3817     0.0809    -0.0560 C.3     
  19 C19           -3.5862    -0.8620    -0.0234 C.3     
  20 N20           -3.6509    -1.5286     1.2841 N.3     
  21 C21           -4.9216    -2.2596     1.4422 C.3     
  22 C22           -4.5680    -3.7317     1.7411 C.3     
  23 C23           -3.1228    -3.6381     2.2973 C.3     
  24 C24           -2.5346    -2.4842     1.4474 C.3     
  25 N25            6.4458     6.5257    -1.3235 N.pl3   
  26 C26            6.9014     7.7281    -1.8345 C.ar    
  27 C27            5.8586     8.2347    -2.6287 C.ar    
  28 C28            8.0837     8.4415    -1.7070 C.ar    
  29 C29            8.2333     9.6456    -2.3635 C.ar    
  30 C30            7.2083    10.1489    -3.1508 C.ar    
  31 C31            6.0261     9.4561    -3.2861 C.ar    
  32 C32            7.1821     5.6256    -0.4323 C.3     
  33 H33           -0.9581     1.9191    -0.1536 H       
  34 H34            3.3314    -0.4956     0.1696 H       
  35 H35            1.1603     3.1719    -0.1764 H       
  36 H36            4.3592     1.7811     0.4474 H       
  37 H37            1.4958     5.5899    -3.0825 H       
  38 H38            2.7823     6.6695    -3.1283 H       
  39 H39           -2.4403     0.7743     0.7829 H       
  40 H40           -2.3840     0.6409    -0.9911 H       
  41 H41           -4.4999    -0.2901    -0.1852 H       
  42 H42           -3.4827    -1.6111    -0.8084 H       
  43 H43           -5.4905    -1.8392     2.2714 H       
  44 H44           -5.5023    -2.1972     0.5219 H       
  45 H45           -5.2431    -4.1458     2.4900 H       
  46 H46           -4.5919    -4.3268     0.8281 H       
  47 H47           -3.1279    -3.3798     3.3562 H       
  48 H48           -2.5776    -4.5663     2.1260 H       
  49 H49           -2.2085    -2.8563     0.4762 H       
  50 H50           -1.7043    -2.0116     1.9721 H       
  51 H51            8.8854     8.0555    -1.0949 H       
  52 H52            9.1545    10.2003    -2.2634 H       
  53 H53            7.3373    11.0930    -3.6592 H       
  54 H54            5.2324     9.8538    -3.9010 H       
  55 H55            7.7501     4.9102    -1.0269 H       
  56 H56            7.8651     6.2066     0.1874 H       
  57 H57            6.4787     5.0905     0.2057 H       
@<TRIPOS>BOND
   1    1    2 ar
   2    1    6 ar
   3    1   33 1
   4    2    3 ar
   5    2    7 1
   6    3    4 ar
   7    3    8 1
   8    4    5 ar
   9    4   34 1
  10    5    6 ar
  11    5    9 1
  12    6   35 1
  13    7   18 1
  14    9   10 1
  15    9   36 1
  16   10   11 2
  17   10   12 1
  18   11   14 1
  19   12   13 2
  20   13   14 1
  21   13   16 1
  22   14   15 1
  23   15   17 2
  24   15   25 1
  25   16   37 1
  26   16   38 1
  27   17   27 1
  28   18   19 1
  29   18   39 1
  30   18   40 1
  31   19   20 1
  32   19   41 1
  33   19   42 1
  34   20   21 1
  35   20   24 1
  36   21   22 1
  37   21   43 1
  38   21   44 1
  39   22   23 1
  40   22   45 1
  41   22   46 1
  42   23   24 1
  43   23   47 1
  44   23   48 1
  45   24   49 1
  46   24   50 1
  47   25   26 1
  48   25   32 1
  49   26   27 ar
  50   26   28 ar
  51   27   31 ar
  52   28   29 ar
  53   28   51 1
  54   29   30 ar
  55   29   52 1
  56   30   31 ar
  57   30   53 1
  58   31   54 1
  59   32   55 1
  60   32   56 1
  61   32   57 1

#	End of record

