#	Name: ASD10410172
#	Creating user name:	WinNT
#	Creation time:	15. 06. 2019 21:27

#	Modifying user name:	WinNT
#	Modification time:	15. 06. 2019 21:27

#	Program:	/corina/corina34_cracker 3.40 0067  02.08.2006

@<TRIPOS>MOLECULE
ASD10410172
  76   83    0    0    0
SMALL
NO_CHARGES


@<TRIPOS>ATOM
   1 C1             0.1980     0.9322     0.6893 C.ar    
   2 C2             0.3752    -0.4430     0.6111 C.ar    
   3 C3             1.6479    -0.9702     0.4353 C.ar    
   4 C4             2.7371    -0.1272     0.3383 C.ar    
   5 C5             2.5599     1.2480     0.4166 C.ar    
   6 C6             1.2872     1.7753     0.5924 C.ar    
   7 N7             3.6646     2.1031     0.3182 N.pl3   
   8 C8             3.5162     3.3725    -0.2397 C.2     
   9 N9             4.4489     4.2926    -0.2939 N.2     
  10 N10            2.4012     3.8435    -0.8103 N.2     
  11 C11            2.6040     5.0730    -1.2328 C.2     
  12 N12            3.8865     5.4103    -0.9316 N.pl3   
  13 C13            4.5166     6.6231    -1.2014 C.ar    
  14 N14            1.6799     5.8767    -1.8719 N.pl3   
  15 N15           -0.7288    -1.2976     0.7099 N.3     
  16 C16           -0.3173    -2.7043     0.6019 C.3     
  17 C17           -1.5386    -3.6065     0.7939 C.3     
  18 N18           -2.5513    -3.2778    -0.2190 N.3     
  19 C19           -2.9628    -1.8712    -0.1110 C.3     
  20 C20           -1.7416    -0.9689    -0.3030 C.3     
  21 N21            3.8622     7.5990    -1.8131 N.ar    
  22 C22            4.4569     8.7580    -2.0736 C.ar    
  23 N23            5.7098     8.9962    -1.7429 N.ar    
  24 C24            6.4532     8.0608    -1.1170 C.ar    
  25 C25            5.8537     6.8312    -0.8235 C.ar    
  26 C26           -3.7100    -4.1748    -0.1154 C.3     
  27 C27           -3.2790    -5.6514    -0.3706 C.3     
  28 C28           -4.7316    -3.8670    -1.2340 C.3     
  29 C29           -4.8215    -5.1866    -2.0597 C.3     
  30 C30           -2.4278    -5.5895    -1.6756 C.3     
  31 C31           -3.4494    -5.2817    -2.7942 C.3     
  32 C32           -4.6182    -6.2527    -0.9259 C.3     
  33 C33            7.8295     8.1108    -0.6698 C.2     
  34 C34            8.2641     7.0082    -0.0825 C.2     
  35 S35            7.0097     5.7844    -0.0150 S.3     
  36 C36            8.7003     9.3260    -0.8594 C.3     
  37 C37            3.6832     9.8213    -2.7613 C.ar    
  38 C38            2.3517     9.6145    -3.1318 C.ar    
  39 C39            4.2644    11.0587    -3.0510 C.ar    
  40 C40            3.5088    12.0199    -3.6916 C.ar    
  41 N41            2.2559    11.7826    -4.0285 N.ar    
  42 C42            1.6685    10.6305    -3.7693 C.ar    
  43 H43           -0.7923     1.3423     0.8216 H       
  44 H44            1.7857    -2.0397     0.3748 H       
  45 H45            3.7269    -0.5372     0.2020 H       
  46 H46            1.1493     2.8447     0.6529 H       
  47 H47            4.5329     1.8124     0.6382 H       
  48 H48            0.7854     5.5439    -2.0454 H       
  49 H49            1.9254     6.7739    -2.1471 H       
  50 H50            0.1150    -2.8821    -0.3828 H       
  51 H51            0.4234    -2.9265     1.3701 H       
  52 H52           -1.2409    -4.6494     0.6854 H       
  53 H53           -1.9547    -3.4484     1.7888 H       
  54 H54           -3.7035    -1.6490    -0.8792 H       
  55 H55           -3.3951    -1.6933     0.8736 H       
  56 H56           -2.0393     0.0740    -0.1946 H       
  57 H57           -1.3254    -1.1271    -1.2980 H       
  58 H58           -4.1770    -4.0793     0.8649 H       
  59 H59           -2.8204    -6.1665     0.4734 H       
  60 H60           -5.7026    -3.6205    -0.8045 H       
  61 H61           -4.3740    -3.0501    -1.8608 H       
  62 H62           -5.7063    -5.2969    -2.6867 H       
  63 H63           -1.6865    -4.7933    -1.6084 H       
  64 H64           -1.9418    -6.5480    -1.8581 H       
  65 H65           -3.4656    -6.0888    -3.5266 H       
  66 H66           -3.2102    -4.3341    -3.2769 H       
  67 H67           -4.4798    -7.2561    -1.3284 H       
  68 H68           -5.4183    -6.2206    -0.1864 H       
  69 H69            9.2628     6.8789     0.3076 H       
  70 H70            8.6013     9.9824     0.0051 H       
  71 H71            9.7400     9.0154    -0.9626 H       
  72 H72            8.3895     9.8591    -1.7579 H       
  73 H73            1.8645     8.6736    -2.9227 H       
  74 H74            5.2896    11.2600    -2.7773 H       
  75 H75            3.9493    12.9793    -3.9196 H       
  76 H76            0.6405    10.4786    -4.0633 H       
@<TRIPOS>BOND
   1    1    2 ar
   2    1    6 ar
   3    1   43 1
   4    2    3 ar
   5    2   15 1
   6    3    4 ar
   7    3   44 1
   8    4    5 ar
   9    4   45 1
  10    5    6 ar
  11    5    7 1
  12    6   46 1
  13    7    8 1
  14    7   47 1
  15    8    9 2
  16    8   10 1
  17    9   12 1
  18   10   11 2
  19   11   12 1
  20   11   14 1
  21   12   13 1
  22   13   21 ar
  23   13   25 ar
  24   14   48 1
  25   14   49 1
  26   15   16 1
  27   15   20 1
  28   16   17 1
  29   16   50 1
  30   16   51 1
  31   17   18 1
  32   17   52 1
  33   17   53 1
  34   18   19 1
  35   18   26 1
  36   19   20 1
  37   19   54 1
  38   19   55 1
  39   20   56 1
  40   20   57 1
  41   21   22 ar
  42   22   23 ar
  43   22   37 1
  44   23   24 ar
  45   24   25 ar
  46   24   33 1
  47   25   35 1
  48   26   27 1
  49   26   28 1
  50   26   58 1
  51   27   30 1
  52   27   32 1
  53   27   59 1
  54   28   29 1
  55   28   60 1
  56   28   61 1
  57   29   31 1
  58   29   32 1
  59   29   62 1
  60   30   31 1
  61   30   63 1
  62   30   64 1
  63   31   65 1
  64   31   66 1
  65   32   67 1
  66   32   68 1
  67   33   34 2
  68   33   36 1
  69   34   35 1
  70   34   69 1
  71   36   70 1
  72   36   71 1
  73   36   72 1
  74   37   38 ar
  75   37   39 ar
  76   38   42 ar
  77   38   73 1
  78   39   40 ar
  79   39   74 1
  80   40   41 ar
  81   40   75 1
  82   41   42 ar
  83   42   76 1

#	End of record

