#	Name: ASD10610192
#	Creating user name:	WinNT
#	Creation time:	15. 06. 2019 21:28

#	Modifying user name:	WinNT
#	Modification time:	15. 06. 2019 21:28

#	Program:	/corina/corina34_cracker 3.40 0067  02.08.2006

@<TRIPOS>MOLECULE
ASD10610192
  49   51    0    0    0
SMALL
NO_CHARGES


@<TRIPOS>ATOM
   1 O1            -0.4777     1.9229     0.8978 O.3     
   2 C2            -0.4982     0.4912     0.8296 C.3     
   3 C3             0.9195     0.4847     1.4147 C.3     
   4 C4             0.9472     1.8675     0.7520 C.3     
   5 C5             0.9760     0.5103     2.9204 C.2     
   6 O6             0.0528     0.9762     3.5540 O.2     
   7 N7             2.0525     0.0154     3.5629 N.am    
   8 C8             2.1074     0.0403     5.0266 C.3     
   9 C9             2.6355     1.3980     5.4942 C.3     
  10 C10            4.7148    -3.0561     6.4079 C.ar    
  11 C11            3.7037    -2.5741     7.2368 C.ar    
  12 C12            2.8630    -1.5737     6.7863 C.ar    
  13 C13            3.0260    -1.0507     5.5135 C.ar    
  14 C14            4.0282    -1.5267     4.6884 C.ar    
  15 C15            4.8727    -2.5259     5.1288 C.ar    
  16 C16            5.6241    -4.1253     6.8877 C.ar    
  17 C17            5.1012    -5.3382     7.3452 C.ar    
  18 C18            5.9578    -6.3325     7.7921 C.ar    
  19 C19            7.3250    -6.1236     7.7851 C.ar    
  20 C20            7.8454    -4.9232     7.3325 C.ar    
  21 C21            7.0027    -3.9270     6.8789 C.ar    
  22 F22            1.8820    -1.1047     7.5880 F       
  23 O23            3.7577    -5.5420     7.3524 O.3     
  24 C24            3.1837    -6.1256     6.1811 C.3     
  25 C25            1.6917    -6.3723     6.4129 C.3     
  26 F26            1.5256    -7.2417     7.4964 F       
  27 F27            1.0553    -5.1572     6.6882 F       
  28 Cl28           9.5631    -4.6715     7.3287 Cl      
  29 Cl29           5.3138    -7.8408     8.3614 Cl      
  30 N30            1.8254    -0.5008     0.8096 N.3     
  31 H31           -1.2397     0.0371     1.4869 H       
  32 H32           -0.5476     0.1071    -0.1893 H       
  33 H33            1.2752     1.8428    -0.2872 H       
  34 H34            1.4721     2.6193     1.3413 H       
  35 H35            2.7909    -0.3572     3.0561 H       
  36 H36            1.1077    -0.1194     5.4305 H       
  37 H37            3.6352     1.5577     5.0903 H       
  38 H38            1.9711     2.1871     5.1420 H       
  39 H39            2.6763     1.4166     6.5832 H       
  40 H40            3.5767    -2.9818     8.2288 H       
  41 H41            4.1507    -1.1158     3.6972 H       
  42 H42            5.6548    -2.8966     4.4827 H       
  43 H43            7.9894    -6.9000     8.1346 H       
  44 H44            7.4122    -2.9935     6.5222 H       
  45 H45            3.3131    -5.4482     5.3369 H       
  46 H46            3.6795    -7.0723     5.9666 H       
  47 H47            1.2539    -6.8175     5.5195 H       
  48 H48            2.7402    -0.4589     1.2332 H       
  49 H49            1.4406    -1.4315     0.8715 H       
@<TRIPOS>BOND
   1    1    2 1
   2    1    4 1
   3    2    3 1
   4    2   31 1
   5    2   32 1
   6    3    4 1
   7    3    5 1
   8    3   30 1
   9    4   33 1
  10    4   34 1
  11    5    6 2
  12    5    7 am
  13    7    8 1
  14    7   35 1
  15    8    9 1
  16    8   13 1
  17    8   36 1
  18    9   37 1
  19    9   38 1
  20    9   39 1
  21   10   11 ar
  22   10   15 ar
  23   10   16 1
  24   11   12 ar
  25   11   40 1
  26   12   13 ar
  27   12   22 1
  28   13   14 ar
  29   14   15 ar
  30   14   41 1
  31   15   42 1
  32   16   17 ar
  33   16   21 ar
  34   17   18 ar
  35   17   23 1
  36   18   19 ar
  37   18   29 1
  38   19   20 ar
  39   19   43 1
  40   20   21 ar
  41   20   28 1
  42   21   44 1
  43   23   24 1
  44   24   25 1
  45   24   45 1
  46   24   46 1
  47   25   26 1
  48   25   27 1
  49   25   47 1
  50   30   48 1
  51   30   49 1

#	End of record

