#	Name: ASD10410096
#	Creating user name:	WinNT
#	Creation time:	15. 06. 2019 21:26

#	Modifying user name:	WinNT
#	Modification time:	15. 06. 2019 21:26

#	Program:	/corina/corina34_cracker 3.40 0067  02.08.2006

@<TRIPOS>MOLECULE
ASD10410096
  74   81    0    0    0
SMALL
NO_CHARGES


@<TRIPOS>ATOM
   1 C1             0.1340     1.0850     0.4455 C.ar    
   2 C2             0.2003    -0.2930     0.2870 C.ar    
   3 C3             1.4282    -0.9112     0.0906 C.ar    
   4 C4             2.5833    -0.1556     0.0530 C.ar    
   5 C5             2.5171     1.2225     0.2110 C.ar    
   6 C6             1.2890     1.8407     0.4074 C.ar    
   7 N7             3.6886     1.9888     0.1733 N.pl3   
   8 C8             3.6546     3.2903    -0.3260 C.2     
   9 N9             4.6594     4.1329    -0.3205 N.2     
  10 N10            2.5931     3.8763    -0.8923 N.2     
  11 C11            2.9029     5.1033    -1.2523 C.2     
  12 N12            4.2023     5.3209    -0.9136 N.pl3   
  13 C13            4.9326     6.4873    -1.1151 C.ar    
  14 N14            2.0599     6.0082    -1.8676 N.pl3   
  15 N15           -0.9706    -1.0590     0.3257 N.3     
  16 C16           -0.6730    -2.4858     0.1375 C.3     
  17 C17           -1.9657    -3.2950     0.2655 C.3     
  18 N18           -2.9352    -2.8259    -0.7344 N.3     
  19 C19           -3.2328    -1.3992    -0.5462 C.3     
  20 C20           -1.9401    -0.5899    -0.6742 C.3     
  21 N21            4.3734     7.5399    -1.6910 N.ar    
  22 C22            5.0540     8.6540    -1.8889 C.ar    
  23 N23            6.3111     8.7797    -1.5299 N.ar    
  24 C24            6.9645     7.7721    -0.9404 C.ar    
  25 C25            6.2869     6.5700    -0.7014 C.ar    
  26 C26           -5.1677    -3.1341    -1.7598 C.3     
  27 C27           -5.3768    -4.3576    -2.7035 C.3     
  28 C28           -4.0253    -4.4959    -3.4687 C.3     
  29 C29           -3.0216    -4.9916    -2.4027 C.3     
  30 C30           -4.1640    -3.6298    -0.6938 C.3     
  31 C31           -3.8612    -5.1062    -1.0938 C.3     
  32 C32           -5.2519    -5.5394    -1.6783 C.3     
  33 S33            8.6185     7.6478    -0.3599 S.3     
  34 C34            8.3777     5.9975     0.1816 C.2     
  35 C35            7.1328     5.5862    -0.0602 C.2     
  36 C36            9.4194     5.1706     0.8273 C.ar    
  37 C37           10.6955     5.6931     1.0427 C.ar    
  38 C38           11.6629     4.9163     1.6461 C.ar    
  39 C39           11.3702     3.6219     2.0374 C.ar    
  40 C40           10.1072     3.0979     1.8268 C.ar    
  41 C41            9.1293     3.8659     1.2292 C.ar    
  42 H42           -0.8214     1.5662     0.5942 H       
  43 H43            1.4798    -1.9829    -0.0323 H       
  44 H44            3.5384    -0.6364    -0.0991 H       
  45 H45            1.2374     2.9124     0.5299 H       
  46 H46            4.5237     1.6142     0.4944 H       
  47 H47            1.1453     5.7578    -2.0717 H       
  48 H48            2.3826     6.8941    -2.0957 H       
  49 H49           -0.2437    -2.6403    -0.8524 H       
  50 H50            0.0372    -2.8124     0.8972 H       
  51 H51           -1.7521    -4.3506     0.0976 H       
  52 H52           -2.3806    -3.1621     1.2646 H       
  53 H53           -3.9430    -1.0726    -1.3059 H       
  54 H54           -3.6621    -1.2447     0.4437 H       
  55 H55           -2.1537     0.4657    -0.5063 H       
  56 H56           -1.5252    -0.7229    -1.6733 H       
  57 H57            4.5604     9.4899    -2.3622 H       
  58 H58           -4.7494    -2.2939    -2.3140 H       
  59 H59           -6.1101    -2.8501    -1.2915 H       
  60 H60           -6.2742    -4.3346    -3.3218 H       
  61 H61           -4.1169    -5.2259    -4.2730 H       
  62 H62           -3.7125    -3.5298    -3.8651 H       
  63 H63           -2.6197    -5.9653    -2.6829 H       
  64 H64           -2.2153    -4.2693    -2.2750 H       
  65 H65           -4.6122    -3.5876     0.2989 H       
  66 H66           -3.4387    -5.7351    -0.3102 H       
  67 H67           -6.0387    -5.5116    -0.9245 H       
  68 H68           -5.2025    -6.5083    -2.1753 H       
  69 H69            6.7843     4.5975     0.1993 H       
  70 H70           10.9253     6.7033     0.7374 H       
  71 H71           12.6508     5.3194     1.8131 H       
  72 H72           12.1312     3.0178     2.5091 H       
  73 H73            9.8853     2.0866     2.1342 H       
  74 H74            8.1438     3.4556     1.0653 H       
@<TRIPOS>BOND
   1    1    2 ar
   2    1    6 ar
   3    1   42 1
   4    2    3 ar
   5    2   15 1
   6    3    4 ar
   7    3   43 1
   8    4    5 ar
   9    4   44 1
  10    5    6 ar
  11    5    7 1
  12    6   45 1
  13    7    8 1
  14    7   46 1
  15    8    9 2
  16    8   10 1
  17    9   12 1
  18   10   11 2
  19   11   12 1
  20   11   14 1
  21   12   13 1
  22   13   21 ar
  23   13   25 ar
  24   14   47 1
  25   14   48 1
  26   15   16 1
  27   15   20 1
  28   16   17 1
  29   16   49 1
  30   16   50 1
  31   17   18 1
  32   17   51 1
  33   17   52 1
  34   18   19 1
  35   18   30 1
  36   19   20 1
  37   19   53 1
  38   19   54 1
  39   20   55 1
  40   20   56 1
  41   21   22 ar
  42   22   23 ar
  43   22   57 1
  44   23   24 ar
  45   24   25 ar
  46   24   33 1
  47   25   35 1
  48   26   27 1
  49   26   30 1
  50   26   58 1
  51   26   59 1
  52   27   28 1
  53   27   32 1
  54   27   60 1
  55   28   29 1
  56   28   61 1
  57   28   62 1
  58   29   31 1
  59   29   63 1
  60   29   64 1
  61   30   31 1
  62   30   65 1
  63   31   32 1
  64   31   66 1
  65   32   67 1
  66   32   68 1
  67   33   34 1
  68   34   35 2
  69   34   36 1
  70   35   69 1
  71   36   37 ar
  72   36   41 ar
  73   37   38 ar
  74   37   70 1
  75   38   39 ar
  76   38   71 1
  77   39   40 ar
  78   39   72 1
  79   40   41 ar
  80   40   73 1
  81   41   74 1

#	End of record

