#	Name: ASD11000072
#	Creating user name:	WinNT
#	Creation time:	15. 06. 2019 21:28

#	Modifying user name:	WinNT
#	Modification time:	15. 06. 2019 21:28

#	Program:	/corina/corina34_cracker 3.40 0067  02.08.2006

@<TRIPOS>MOLECULE
ASD11000072
  48   50    0    0    0
SMALL
NO_CHARGES


@<TRIPOS>ATOM
   1 C1            -0.0167     1.3794     0.0096 C.ar    
   2 C2             0.0021    -0.0041     0.0020 C.ar    
   3 C3            -1.1813    -0.7131     0.0095 C.ar    
   4 C4            -2.3995    -0.0315     0.0253 C.ar    
   5 C5            -2.4113     1.3644     0.0333 C.ar    
   6 C6            -1.2206     2.0611     0.0306 C.ar    
   7 C7            -3.6712    -0.7845     0.0329 C.2     
   8 O8            -3.6579    -2.0000     0.0254 O.2     
   9 N9            -4.8456    -0.1235     0.0481 N.am    
  10 C10           -6.0370    -0.8289     0.0552 C.2     
  11 C11           -7.2799    -0.2529     0.0706 C.2     
  12 C12           -8.3542    -1.2323     0.0744 C.2     
  13 C13           -7.9061    -2.4930     0.0622 C.2     
  14 S14           -6.1523    -2.5287     0.0387 S.3     
  15 C15           -7.5022     1.1927     0.0827 C.2     
  16 O16           -7.5935     1.8513     1.2564 O.3     
  17 O17           -7.6047     1.8012    -0.9658 O.2     
  18 C18            1.2800     2.1472     0.0014 C.3     
  19 C19            2.0744     1.7932    -1.2574 C.3     
  20 C20            0.9840     3.6483     0.0123 C.3     
  21 C21            2.0982     1.7798     1.2409 C.3     
  22 C22           -9.7922    -0.8727     0.0907 C.ar    
  23 C23          -10.6679    -1.4489    -0.8286 C.ar    
  24 C24          -10.2749     0.0386     1.0290 C.ar    
  25 C25          -11.6143     0.3698     1.0397 C.ar    
  26 C26          -12.4784    -0.2013     0.1213 C.ar    
  27 C27          -12.0054    -1.1106    -0.8091 C.ar    
  28 Br28         -14.3130     0.2565     0.1428 Br      
  29 H29            0.9453    -0.5301    -0.0102 H       
  30 H30           -1.1652    -1.7929     0.0028 H       
  31 H31           -3.3503     1.8977     0.0451 H       
  32 H32           -1.2282     3.1411     0.0368 H       
  33 H33           -4.8563     0.8464     0.0540 H       
  34 H34           -8.5379    -3.3689     0.0630 H       
  35 H35           -7.7407     2.8061     1.2138 H       
  36 H36            1.4915     2.0550    -2.1405 H       
  37 H37            3.0122     2.3486    -1.2634 H       
  38 H38            2.2853     0.7238    -1.2652 H       
  39 H39            0.4181     3.9005     0.9090 H       
  40 H40            1.9219     4.2036     0.0063 H       
  41 H41            0.4011     3.9101    -0.8708 H       
  42 H42            2.3091     0.7104     1.2331 H       
  43 H43            3.0361     2.3351     1.2349 H       
  44 H44            1.5323     2.0320     2.1377 H       
  45 H45          -10.2999    -2.1584    -1.5549 H       
  46 H46           -9.6017     0.4842     1.7465 H       
  47 H47          -11.9893     1.0755     1.7661 H       
  48 H48          -12.6838    -1.5529    -1.5236 H       
@<TRIPOS>BOND
   1    1    2 ar
   2    1   18 1
   3    1    6 ar
   4    2    3 ar
   5    2   29 1
   6    3    4 ar
   7    3   30 1
   8    4    5 ar
   9    4    7 1
  10    5    6 ar
  11    5   31 1
  12    6   32 1
  13    7    8 2
  14    7    9 am
  15    9   10 1
  16    9   33 1
  17   10   11 2
  18   10   14 1
  19   11   12 1
  20   11   15 1
  21   12   13 2
  22   12   22 1
  23   13   14 1
  24   13   34 1
  25   15   16 1
  26   15   17 2
  27   16   35 1
  28   18   19 1
  29   18   20 1
  30   18   21 1
  31   19   36 1
  32   19   37 1
  33   19   38 1
  34   20   39 1
  35   20   40 1
  36   20   41 1
  37   21   42 1
  38   21   43 1
  39   21   44 1
  40   22   23 ar
  41   22   24 ar
  42   23   27 ar
  43   23   45 1
  44   24   25 ar
  45   24   46 1
  46   25   26 ar
  47   25   47 1
  48   26   27 ar
  49   26   28 1
  50   27   48 1

#	End of record

