#	Name: ASD11990001
#	Creating user name:	WinNT
#	Creation time:	15. 06. 2019 21:29

#	Modifying user name:	WinNT
#	Modification time:	15. 06. 2019 21:29

#	Program:	/corina/corina34_cracker 3.40 0067  02.08.2006

@<TRIPOS>MOLECULE
ASD11990001
  63   65    0    0    0
SMALL
NO_CHARGES


@<TRIPOS>ATOM
   1 C1            -0.0158     1.3761     0.0353 C.ar    
   2 C2            -0.0129     0.0055    -0.0055 C.ar    
   3 C3             1.2027    -0.6887    -0.0445 C.ar    
   4 C4             2.4096     0.0215    -0.0417 C.ar    
   5 C5             2.3956     1.3920    -0.0007 C.ar    
   6 C6             1.1856     2.0767     0.0379 C.ar    
   7 O7             1.1773     3.4327     0.0783 O.3     
   8 C8             1.2117    -2.1567    -0.0878 C.2     
   9 O9             1.3081    -2.7931     0.9403 O.2     
  10 C10            1.1013    -2.8722    -1.4094 C.3     
  11 O11            1.0119    -4.2803    -1.1827 O.3     
  12 C12            0.9060    -5.0762    -2.2791 C.ar    
  13 C13           -1.3154    -0.7523    -0.0077 C.3     
  14 C14            3.7214    -0.7191    -0.0830 C.3     
  15 C15           -0.0998     4.0728     0.1166 C.3     
  16 C16            0.0913     5.5902     0.1588 C.3     
  17 C17           -1.2760     6.2755     0.1999 C.3     
  18 S18           -1.0494     8.0746     0.2499 S.o2    
  19 C19           -2.7019     8.8213     0.2971 C.3     
  20 C20           -0.3418     8.4198     1.5891 C.2     
  21 O21           -0.2312     8.5730    -0.7995 O.2     
  22 C22            0.8888    -4.5097    -3.5456 C.ar    
  23 C23            0.8214    -6.4501    -2.1287 C.ar    
  24 C24            0.7132    -7.2712    -3.2469 C.ar    
  25 C25            0.6843    -6.6889    -4.5085 C.ar    
  26 C26            0.7776    -5.3228    -4.6587 C.ar    
  27 O27            0.6360    -8.6279    -3.3289 O.3     
  28 C28            0.1035    -8.9947    -4.6130 C.3     
  29 C29            0.5390    -7.8150    -5.5140 C.3     
  30 C30           -0.5408    -7.4889    -6.5477 C.3     
  31 C31           -0.6742    -8.6375    -7.5141 C.2     
  32 O32           -1.5674    -8.5731    -8.5140 O.3     
  33 O33            0.0228    -9.6165    -7.3889 O.2     
  34 H34           -0.9527     1.9126     0.0609 H       
  35 H35            3.3258     1.9407     0.0018 H       
  36 H36            0.2086    -2.5312    -1.9337 H       
  37 H37            1.9823    -2.6568    -2.0140 H       
  38 H38           -1.6832    -0.8397    -1.0301 H       
  39 H39           -1.1575    -1.7475     0.4079 H       
  40 H40           -2.0478    -0.2179     0.5974 H       
  41 H41            3.9725    -0.9558    -1.1170 H       
  42 H42            4.5046    -0.0951     0.3474 H       
  43 H43            3.6358    -1.6420     0.4905 H       
  44 H44           -0.6684     3.8028    -0.7732 H       
  45 H45           -0.6415     3.7499     1.0057 H       
  46 H46            0.6599     5.8602     1.0487 H       
  47 H47            0.6330     5.9130    -0.7302 H       
  48 H48           -1.8446     6.0055    -0.6900 H       
  49 H49           -1.8177     5.9526     1.0890 H       
  50 H50           -3.2313     8.4763     1.1853 H       
  51 H51           -2.6094     9.9069     0.3279 H       
  52 H52           -3.2582     8.5292    -0.5937 H       
  53 H53            0.6004     8.9478     1.5816 H       
  54 H54           -0.7919     8.1318     2.5276 H       
  55 H55            0.9616    -3.4384    -3.6615 H       
  56 H56            0.8397    -6.8857    -1.1406 H       
  57 H57            0.7596    -4.8860    -5.6463 H       
  58 H58            0.5436    -9.9292    -4.9610 H       
  59 H59           -0.9832    -9.0695    -4.5734 H       
  60 H60            1.4908    -8.0275    -6.0009 H       
  61 H61           -1.4923    -7.3281    -6.0409 H       
  62 H62           -0.2620    -6.5866    -7.0921 H       
  63 H63           -1.6167    -9.3342    -9.1085 H       
@<TRIPOS>BOND
   1    1    2 ar
   2    1    6 ar
   3    1   34 1
   4    2    3 ar
   5    2   13 1
   6    3    4 ar
   7    3    8 1
   8    4    5 ar
   9    4   14 1
  10    5    6 ar
  11    5   35 1
  12    6    7 1
  13    7   15 1
  14    8    9 2
  15    8   10 1
  16   10   11 1
  17   10   36 1
  18   10   37 1
  19   11   12 1
  20   12   22 ar
  21   12   23 ar
  22   13   38 1
  23   13   39 1
  24   13   40 1
  25   14   41 1
  26   14   42 1
  27   14   43 1
  28   15   16 1
  29   15   44 1
  30   15   45 1
  31   16   17 1
  32   16   46 1
  33   16   47 1
  34   17   18 1
  35   17   48 1
  36   17   49 1
  37   18   19 1
  38   18   20 2
  39   18   21 2
  40   19   50 1
  41   19   51 1
  42   19   52 1
  43   20   53 1
  44   20   54 1
  45   22   26 ar
  46   22   55 1
  47   23   24 ar
  48   23   56 1
  49   24   25 ar
  50   24   27 1
  51   25   26 ar
  52   25   29 1
  53   26   57 1
  54   27   28 1
  55   28   29 1
  56   28   58 1
  57   28   59 1
  58   29   30 1
  59   29   60 1
  60   30   31 1
  61   30   61 1
  62   30   62 1
  63   31   32 1
  64   31   33 2
  65   32   63 1

#	End of record

