#	Name: ASD10800039
#	Creating user name:	WinNT
#	Creation time:	15. 06. 2019 21:28

#	Modifying user name:	WinNT
#	Modification time:	15. 06. 2019 21:28

#	Program:	/corina/corina34_cracker 3.40 0067  02.08.2006

@<TRIPOS>MOLECULE
ASD10800039
  52   55    0    0    0
SMALL
NO_CHARGES


@<TRIPOS>ATOM
   1 C1             0.0207     1.2473     0.1927 C.ar    
   2 C2             0.1035    -0.1258     0.4100 C.ar    
   3 C3             1.3238    -0.7634     0.4708 C.ar    
   4 C4             2.4914    -0.0387     0.3155 C.ar    
   5 C5             2.4235     1.3217     0.1077 C.ar    
   6 C6             1.1895     1.9718     0.0531 C.ar    
   7 C7             3.6934     2.1153    -0.0617 C.3     
   8 C8             4.1167     2.6949     1.2895 C.3     
   9 N9             4.7520     1.2399    -0.5708 N.pl3   
  10 C10            5.3156     3.5880     1.0996 C.ar    
  11 C11            5.1403     4.9340     0.8379 C.ar    
  12 C12            6.5907     3.0623     1.1926 C.ar    
  13 C13            7.6905     3.8815     1.0184 C.ar    
  14 C14            7.5151     5.2263     0.7507 C.ar    
  15 C15            6.2400     5.7532     0.6637 C.ar    
  16 C16            9.0806     3.3086     1.1208 C.3     
  17 C17            6.0489     7.2193     0.3720 C.3     
  18 C18            4.8834     1.0350    -1.9248 C.2     
  19 N19            5.8267     0.3631    -2.4804 N.2     
  20 S20            3.7750     1.6512    -3.1560 S.3     
  21 C21            4.6701     0.9416    -4.5756 C.3     
  22 C22            5.8563     0.2182    -3.9188 C.3     
  23 S23            1.1923     3.7213    -0.1772 S.3     
  24 C24           -0.5421     4.0714    -0.5864 C.3     
  25 C25           -1.4134     3.3127     0.4244 C.3     
  26 C26           -1.3600     1.8286     0.1073 C.3     
  27 H27           -0.8028    -0.7001     0.5330 H       
  28 H28            1.3683    -1.8291     0.6402 H       
  29 H29            3.4495    -0.5354     0.3570 H       
  30 H30            3.5227     2.9277    -0.7682 H       
  31 H31            3.2948     3.2745     1.7097 H       
  32 H32            4.3730     1.8823     1.9692 H       
  33 H33            5.3603     0.8047     0.0468 H       
  34 H34            4.1441     5.3455     0.7693 H       
  35 H35            6.7277     2.0117     1.4017 H       
  36 H36            8.3743     5.8664     0.6150 H       
  37 H37            9.4066     2.9684     0.1379 H       
  38 H38            9.7638     4.0759     1.4848 H       
  39 H39            9.0766     2.4672     1.8137 H       
  40 H40            5.9879     7.3703    -0.7058 H       
  41 H41            5.1275     7.5658     0.8401 H       
  42 H42            6.8929     7.7822     0.7706 H       
  43 H43            4.0399     0.2321    -5.1119 H       
  44 H44            5.0184     1.7294    -5.2434 H       
  45 H45            6.7868     0.6389    -4.2999 H       
  46 H46            5.8143    -0.8408    -4.1734 H       
  47 H47           -0.7321     5.1420    -0.5095 H       
  48 H48           -0.7613     3.7268    -1.5969 H       
  49 H49           -1.0356     3.4836     1.4325 H       
  50 H50           -2.4429     3.6639     0.3546 H       
  51 H51           -1.7415     1.6733    -0.9018 H       
  52 H52           -2.0062     1.2987     0.8072 H       
@<TRIPOS>BOND
   1    1    2 ar
   2    1    6 ar
   3    1   26 1
   4    2    3 ar
   5    2   27 1
   6    3    4 ar
   7    3   28 1
   8    4    5 ar
   9    4   29 1
  10    5    6 ar
  11    5    7 1
  12    6   23 1
  13    7    8 1
  14    7    9 1
  15    7   30 1
  16    8   10 1
  17    8   31 1
  18    8   32 1
  19    9   18 1
  20    9   33 1
  21   10   11 ar
  22   10   12 ar
  23   11   15 ar
  24   11   34 1
  25   12   13 ar
  26   12   35 1
  27   13   14 ar
  28   13   16 1
  29   14   15 ar
  30   14   36 1
  31   15   17 1
  32   16   37 1
  33   16   38 1
  34   16   39 1
  35   17   40 1
  36   17   41 1
  37   17   42 1
  38   18   19 2
  39   18   20 1
  40   19   22 1
  41   20   21 1
  42   21   22 1
  43   21   43 1
  44   21   44 1
  45   22   45 1
  46   22   46 1
  47   23   24 1
  48   24   25 1
  49   24   47 1
  50   24   48 1
  51   25   26 1
  52   25   49 1
  53   25   50 1
  54   26   51 1
  55   26   52 1

#	End of record

