#	Name: ASD10950075
#	Creating user name:	WinNT
#	Creation time:	15. 06. 2019 21:28

#	Modifying user name:	WinNT
#	Modification time:	15. 06. 2019 21:28

#	Program:	/corina/corina34_cracker 3.40 0067  02.08.2006

@<TRIPOS>MOLECULE
ASD10950075
  54   57    0    0    0
SMALL
NO_CHARGES


@<TRIPOS>ATOM
   1 C1             1.5542     1.3307     1.6754 C.3     
   2 O2             1.2970    -0.0692     1.3886 O.3     
   3 C3             0.0101    -0.4345     1.2292 C.2     
   4 O4            -0.8729     0.3939     1.3272 O.2     
   5 C5            -0.3271    -1.8424     0.9354 C.ar    
   6 C6            -1.6599    -2.2243     0.7696 C.ar    
   7 C7            -1.9677    -3.5407     0.4954 C.ar    
   8 C8            -0.9594    -4.4817     0.3846 C.ar    
   9 C9             0.3634    -4.1101     0.5477 C.ar    
  10 C10            0.6858    -2.7960     0.8165 C.ar    
  11 C11           -1.3035    -5.9181     0.0853 C.3     
  12 N12           -0.4567    -6.4239    -1.0014 N.am    
  13 C13           -0.3989    -5.8950    -2.3664 C.3     
  14 C14            0.6708    -4.8041    -2.4458 C.3     
  15 C15            0.7303    -4.2601    -3.8499 C.ar    
  16 C16           -0.0607    -3.1833    -4.2196 C.ar    
  17 C17            0.0275    -2.7160    -5.5222 C.ar    
  18 C18            0.8946    -3.3348    -6.4023 C.ar    
  19 N19            1.6320    -4.3577    -6.0158 N.ar    
  20 C20            1.5784    -4.8248    -4.7840 C.ar    
  21 C21            0.2571    -7.4589    -0.5227 C.2     
  22 O22            1.0600    -8.1077    -1.1633 O.2     
  23 C23           -0.0796    -7.6896     0.8985 C.2     
  24 C24           -1.0086    -6.7842     1.2877 C.2     
  25 C25           -1.6109    -6.6669     2.6180 C.2     
  26 O26           -0.9270    -6.3377     3.5683 O.2     
  27 C27           -3.0531    -6.9493     2.8056 C.ar    
  28 C28           -3.6557    -6.8098     4.0603 C.ar    
  29 C29           -5.0033    -7.0832     4.1899 C.ar    
  30 N30           -5.7184    -7.4703     3.1522 N.ar    
  31 C31           -5.1904    -7.6144     1.9529 C.ar    
  32 C32           -3.8515    -7.3573     1.7319 C.ar    
  33 O33            0.4545    -8.6520     1.6844 O.3     
  34 H34            2.6276     1.4889     1.7802 H       
  35 H35            1.1745     1.9446     0.8587 H       
  36 H36            1.0536     1.6096     2.6026 H       
  37 H37           -2.4479    -1.4909     0.8562 H       
  38 H38           -2.9982    -3.8376     0.3673 H       
  39 H39            1.1456    -4.8497     0.4602 H       
  40 H40            1.7187    -2.5072     0.9436 H       
  41 H41           -2.3551    -6.0018    -0.1891 H       
  42 H42           -0.1490    -6.6999    -3.0576 H       
  43 H43           -1.3680    -5.4739    -2.6342 H       
  44 H44            0.4209    -3.9992    -1.7546 H       
  45 H45            1.6399    -5.2252    -2.1780 H       
  46 H46           -0.7299    -2.7195    -3.5100 H       
  47 H47           -0.5743    -1.8792    -5.8449 H       
  48 H48            0.9691    -2.9769    -7.4186 H       
  49 H49            2.1974    -5.6644    -4.5041 H       
  50 H50           -3.0759    -6.4934     4.9148 H       
  51 H51           -5.4776    -6.9787     5.1545 H       
  52 H52           -5.8141    -7.9338     1.1312 H       
  53 H53           -3.4257    -7.4771     0.7466 H       
  54 H54            1.1050    -9.2098     1.2362 H       
@<TRIPOS>BOND
   1    1    2 1
   2    1   34 1
   3    1   35 1
   4    1   36 1
   5    2    3 1
   6    3    4 2
   7    3    5 1
   8    5    6 ar
   9    5   10 ar
  10    6    7 ar
  11    6   37 1
  12    7    8 ar
  13    7   38 1
  14    8    9 ar
  15    8   11 1
  16    9   10 ar
  17    9   39 1
  18   10   40 1
  19   11   12 1
  20   11   24 1
  21   11   41 1
  22   12   13 1
  23   12   21 am
  24   13   14 1
  25   13   42 1
  26   13   43 1
  27   14   15 1
  28   14   44 1
  29   14   45 1
  30   15   16 ar
  31   15   20 ar
  32   16   17 ar
  33   16   46 1
  34   17   18 ar
  35   17   47 1
  36   18   19 ar
  37   18   48 1
  38   19   20 ar
  39   20   49 1
  40   21   22 2
  41   21   23 1
  42   23   24 2
  43   23   33 1
  44   24   25 1
  45   25   26 2
  46   25   27 1
  47   27   28 ar
  48   27   32 ar
  49   28   29 ar
  50   28   50 1
  51   29   30 ar
  52   29   51 1
  53   30   31 ar
  54   31   32 ar
  55   31   52 1
  56   32   53 1
  57   33   54 1

#	End of record

