#	Name: ASD11740007
#	Creating user name:	WinNT
#	Creation time:	15. 06. 2019 21:29

#	Modifying user name:	WinNT
#	Modification time:	15. 06. 2019 21:29

#	Program:	/corina/corina34_cracker 3.40 0067  02.08.2006

@<TRIPOS>MOLECULE
ASD11740007
  38   39    0    0    0
SMALL
NO_CHARGES


@<TRIPOS>ATOM
   1 C1            -0.0204     1.1588     0.0188 C.ar    
   2 C2             0.2059    -0.2022     0.0246 C.ar    
   3 C3             1.4961    -0.6988     0.1250 C.ar    
   4 C4             2.5677     0.1615     0.2202 C.ar    
   5 C5             2.3554     1.5427     0.2152 C.ar    
   6 C6             1.0478     2.0424     0.1134 C.ar    
   7 N7             0.8227     3.4129     0.1068 N.am    
   8 S8            -0.5223     4.0347     0.8463 S.o2    
   9 O9            -0.3612     5.4425     0.7403 O.2     
  10 O10           -1.6082     3.3718     0.2134 O.2     
  11 C11            3.4975     2.4690     0.3172 C.2     
  12 N12            4.7514     1.9846     0.4157 N.am    
  13 O13            3.3084     3.6705     0.3125 O.2     
  14 C14            5.8424     2.8630     0.4307 C.ar    
  15 C15            7.0498     2.4896    -0.1614 C.ar    
  16 C16            8.1262     3.3648    -0.1432 C.ar    
  17 C17            8.0004     4.6023     0.4603 C.ar    
  18 C18            6.8043     4.9716     1.0472 C.ar    
  19 C19            5.7243     4.1080     1.0288 C.ar    
  20 S20            7.2069     0.9115    -0.9293 S.3     
  21 C21            8.9195     0.9174    -1.5274 C.3     
  22 C22           -0.3738     3.5054     2.5750 C.3     
  23 H23           -1.0283     1.5377    -0.0639 H       
  24 H24           -0.6276    -0.8850    -0.0492 H       
  25 H25            1.6621    -1.7660     0.1290 H       
  26 H26            3.5708    -0.2310     0.2989 H       
  27 H27            1.4533     4.0059    -0.3309 H       
  28 H28            4.8982     1.0277     0.4761 H       
  29 H29            9.0622     3.0794    -0.6000 H       
  30 H30            8.8392     5.2824     0.4737 H       
  31 H31            6.7117     5.9393     1.5176 H       
  32 H32            4.7916     4.4000     1.4883 H       
  33 H33            9.0565     1.7402    -2.2290 H       
  34 H34            9.5985     1.0423    -0.6839 H       
  35 H35            9.1325    -0.0268    -2.0285 H       
  36 H36            0.5463     3.9065     3.0000 H       
  37 H37           -1.2276     3.8751     3.1428 H       
  38 H38           -0.3508     2.4166     2.6210 H       
@<TRIPOS>BOND
   1    1    2 ar
   2    1    6 ar
   3    1   23 1
   4    2    3 ar
   5    2   24 1
   6    3    4 ar
   7    3   25 1
   8    4    5 ar
   9    4   26 1
  10    5    6 ar
  11    5   11 1
  12    6    7 1
  13    7    8 am
  14    7   27 1
  15    8    9 2
  16    8   10 2
  17    8   22 1
  18   11   12 am
  19   11   13 2
  20   12   14 1
  21   12   28 1
  22   14   15 ar
  23   14   19 ar
  24   15   16 ar
  25   15   20 1
  26   16   17 ar
  27   16   29 1
  28   17   18 ar
  29   17   30 1
  30   18   19 ar
  31   18   31 1
  32   19   32 1
  33   20   21 1
  34   21   33 1
  35   21   34 1
  36   21   35 1
  37   22   36 1
  38   22   37 1
  39   22   38 1

#	End of record

