#	Name: ASD10100012
#	Creating user name:	WinNT
#	Creation time:	15. 06. 2019 21:24

#	Modifying user name:	WinNT
#	Modification time:	15. 06. 2019 21:24

#	Program:	/corina/corina34_cracker 3.40 0067  02.08.2006

@<TRIPOS>MOLECULE
ASD10100012
  48   50    0    0    0
SMALL
NO_CHARGES


@<TRIPOS>ATOM
   1 C1             0.9426    -1.2359     1.7044 C.ar    
   2 C2             0.4797    -1.6404     0.4661 C.ar    
   3 C3             0.3234    -2.9861     0.1925 C.ar    
   4 C4             0.6304    -3.9278     1.1571 C.ar    
   5 C5             1.0941    -3.5235     2.3948 C.ar    
   6 C6             1.2491    -2.1773     2.6689 C.ar    
   7 S7             1.1488     0.4794     2.0506 S.o2    
   8 O8             2.1066     0.5653     3.0968 O.2     
   9 O9             1.3090     1.1257     0.7953 O.2     
  10 N10           -0.2814     1.0279     2.6798 N.am    
  11 C11           -0.1822    -3.4270    -1.1569 C.3     
  12 C12           -0.4994     1.0094     4.1284 C.3     
  13 C13           -3.2533     2.4324     0.1592 C.2     
  14 N14           -3.3060     1.1622     0.5990 N.am    
  15 C15           -2.3521     0.6799     1.4196 C.2     
  16 C16           -1.2925     1.5141     1.8187 C.2     
  17 C17           -1.2547     2.8035     1.3618 C.2     
  18 N18           -2.2511     3.2525     0.5251 N.am    
  19 O19           -2.4076    -0.4729     1.8141 O.2     
  20 O20           -4.1225     2.8447    -0.5848 O.2     
  21 C21           -2.2201     4.6308     0.0297 C.3     
  22 C22           -2.9659     5.5252     0.9862 C.ar    
  23 C23           -2.2948     6.1309     2.0320 C.ar    
  24 C24           -2.9789     6.9514     2.9094 C.ar    
  25 C25           -4.3340     7.1665     2.7407 C.ar    
  26 C26           -5.0049     6.5615     1.6943 C.ar    
  27 C27           -4.3199     5.7445     0.8144 C.ar    
  28 N28           -0.2300     3.6430     1.7349 N.pl3   
  29 H29            0.2398    -0.9048    -0.2874 H       
  30 H30            0.5076    -4.9794     0.9436 H       
  31 H31            1.3333    -4.2591     3.1485 H       
  32 H32            1.6107    -1.8613     3.6362 H       
  33 H33            0.6619    -3.5746    -1.8307 H       
  34 H34           -0.7309    -4.3629    -1.0514 H       
  35 H35           -0.8432    -2.6623    -1.5649 H       
  36 H36           -1.2374     1.7662     4.3944 H       
  37 H37           -0.8624     0.0265     4.4287 H       
  38 H38            0.4394     1.2219     4.6398 H       
  39 H39           -4.0376     0.5882     0.3231 H       
  40 H40           -1.1857     4.9654    -0.0491 H       
  41 H41           -2.6920     4.6748    -0.9519 H       
  42 H42           -1.2362     5.9629     2.1638 H       
  43 H43           -2.4548     7.4240     3.7269 H       
  44 H44           -4.8686     7.8069     3.4266 H       
  45 H45           -6.0636     6.7293     1.5627 H       
  46 H46           -4.8433     5.2748    -0.0053 H       
  47 H47            0.4814     3.3154     2.3071 H       
  48 H48           -0.2193     4.5623     1.4257 H       
@<TRIPOS>BOND
   1    1    2 ar
   2    1    6 ar
   3    1    7 1
   4    2    3 ar
   5    2   29 1
   6    3    4 ar
   7    3   11 1
   8    4    5 ar
   9    4   30 1
  10    5    6 ar
  11    5   31 1
  12    6   32 1
  13    7    8 2
  14    7    9 2
  15    7   10 am
  16   10   12 1
  17   10   16 1
  18   11   33 1
  19   11   34 1
  20   11   35 1
  21   12   36 1
  22   12   37 1
  23   12   38 1
  24   13   14 am
  25   13   18 am
  26   13   20 2
  27   14   15 am
  28   14   39 1
  29   15   16 1
  30   15   19 2
  31   16   17 2
  32   17   18 1
  33   17   28 1
  34   18   21 1
  35   21   22 1
  36   21   40 1
  37   21   41 1
  38   22   23 ar
  39   22   27 ar
  40   23   24 ar
  41   23   42 1
  42   24   25 ar
  43   24   43 1
  44   25   26 ar
  45   25   44 1
  46   26   27 ar
  47   26   45 1
  48   27   46 1
  49   28   47 1
  50   28   48 1

#	End of record

