#	Name: ASD10160140
#	Creating user name:	WinNT
#	Creation time:	15. 06. 2019 21:25

#	Modifying user name:	WinNT
#	Modification time:	15. 06. 2019 21:25

#	Program:	/corina/corina34_cracker 3.40 0067  02.08.2006

@<TRIPOS>MOLECULE
ASD10160140
  50   51    0    0    0
SMALL
NO_CHARGES


@<TRIPOS>ATOM
   1 C1            -2.2279    -2.6084     4.8627 C.2     
   2 C2            -1.6267    -3.0102     3.5778 C.ar    
   3 C3            -0.3022    -3.4610     3.5329 C.ar    
   4 C4             0.2562    -3.8360     2.3274 C.ar    
   5 C5            -0.4939    -3.7660     1.1611 C.ar    
   6 C6            -1.8119    -3.3181     1.2016 C.ar    
   7 C7            -2.3797    -2.9476     2.4012 C.ar    
   8 O8            -1.5730    -2.6684     5.8856 O.2     
   9 N9            -3.5016    -2.1695     4.9028 N.am    
  10 S10           -4.1768    -1.7182     6.3460 S.o2    
  11 O11           -5.5062    -1.3456     6.0096 O.2     
  12 O12           -3.9203    -2.8157     7.2113 O.2     
  13 C13           -3.2192    -0.2656     6.8592 C.3     
  14 F14           -2.5369    -3.2521     0.0635 F       
  15 F15            0.4285    -3.5285     4.6672 F       
  16 O16            0.0593    -4.1349    -0.0222 O.3     
  17 C17            2.4213    -3.8526    -0.1457 C.ar    
  18 C18            1.3102    -4.6677    -0.0036 C.ar    
  19 C19            1.4894    -6.0392     0.1590 C.ar    
  20 C20            2.7802    -6.5384     0.1724 C.ar    
  21 C21            3.8485    -5.6589     0.0240 C.ar    
  22 N22            3.6391    -4.3611    -0.1280 N.ar    
  23 N23            5.1520    -6.1498     0.0359 N.pl3   
  24 C24            6.2823    -5.2309    -0.1198 C.3     
  25 C25            6.6491    -4.6383     1.2423 C.3     
  26 C26            5.4928    -3.7752     1.7511 C.3     
  27 C27            7.4835    -5.9911    -0.6855 C.3     
  28 O28            7.9184    -6.9680     0.2625 O.3     
  29 C29            9.0419    -7.7378    -0.1701 C.3     
  30 Cl30           3.0630    -8.2395     0.3725 Cl      
  31 H31            1.2780    -4.1840     2.2914 H       
  32 H32           -3.4034    -2.6050     2.4320 H       
  33 H33           -4.0227    -2.1179     4.0863 H       
  34 H34           -3.3116     0.5157     6.1047 H       
  35 H35           -3.5999     0.1025     7.8119 H       
  36 H36           -2.1706    -0.5420     6.9693 H       
  37 H37            2.2892    -2.7888    -0.2767 H       
  38 H38            0.6410    -6.6977     0.2724 H       
  39 H39            5.3114    -7.1001     0.1473 H       
  40 H40            6.0061    -4.4277    -0.8029 H       
  41 H41            6.8392    -5.4451     1.9502 H       
  42 H42            7.5442    -4.0243     1.1422 H       
  43 H43            5.7542    -3.3531     2.7215 H       
  44 H44            5.3028    -2.9685     1.0432 H       
  45 H45            4.5978    -4.3892     1.8512 H       
  46 H46            7.1958    -6.4871    -1.6124 H       
  47 H47            8.2953    -5.2915    -0.8845 H       
  48 H48            9.3101    -8.4561     0.6047 H       
  49 H49            8.7865    -8.2701    -1.0863 H       
  50 H50            9.8860    -7.0745    -0.3585 H       
@<TRIPOS>BOND
   1    1    2 1
   2    1    8 2
   3    1    9 am
   4    2    3 ar
   5    2    7 ar
   6    3    4 ar
   7    3   15 1
   8    4    5 ar
   9    4   31 1
  10    5    6 ar
  11    5   16 1
  12    6    7 ar
  13    6   14 1
  14    7   32 1
  15    9   10 am
  16    9   33 1
  17   10   11 2
  18   10   12 2
  19   10   13 1
  20   13   34 1
  21   13   35 1
  22   13   36 1
  23   16   18 1
  24   17   18 ar
  25   17   22 ar
  26   17   37 1
  27   18   19 ar
  28   19   20 ar
  29   19   38 1
  30   20   21 ar
  31   20   30 1
  32   21   22 ar
  33   21   23 1
  34   23   24 1
  35   23   39 1
  36   24   25 1
  37   24   27 1
  38   24   40 1
  39   25   26 1
  40   25   41 1
  41   25   42 1
  42   26   43 1
  43   26   44 1
  44   26   45 1
  45   27   28 1
  46   27   46 1
  47   27   47 1
  48   28   29 1
  49   29   48 1
  50   29   49 1
  51   29   50 1

#	End of record

