#	Name: ASD15190002
#	Creating user name:	WinNT
#	Creation time:	15. 06. 2019 21:31

#	Modifying user name:	WinNT
#	Modification time:	15. 06. 2019 21:31

#	Program:	/corina/corina34_cracker 3.40 0067  02.08.2006

@<TRIPOS>MOLECULE
ASD15190002
  33   33    0    0    0
SMALL
NO_CHARGES


@<TRIPOS>ATOM
   1 C1            -0.0187     1.5267     0.0104 C.3     
   2 C2             0.0021    -0.0041     0.0020 C.3     
   3 C3             0.6675    -0.4908    -1.2890 C.3     
   4 C4            -0.0886     0.0869    -2.4893 C.3     
   5 C5            -0.1059     1.6142    -2.3847 C.3     
   6 C6            -0.9109     2.1963    -3.5483 C.3     
   7 N7             0.7610    -0.4897     1.1572 N.am    
   8 O8             1.3219     2.0215     0.0003 O.3     
   9 O9             0.6255    -1.9183    -1.3396 O.3     
  10 O10            0.5666    -0.3015    -3.6984 O.3     
  11 O11           -0.7097     1.9988    -1.1479 O.3     
  12 O12           -0.8301     3.6226    -3.5170 O.3     
  13 S13           -0.0291    -0.9027     2.5527 S.o2    
  14 O14            0.9666    -1.3608     3.4571 O.2     
  15 O15           -0.9114     0.1716     2.8472 O.2     
  16 O16           -0.9067    -2.1048     2.2347 O.3     
  17 S17           -1.5988     4.3109    -4.6358 S.o2    
  18 O18           -1.2500     5.6871    -4.5747 O.2     
  19 O19           -1.4159     3.5137    -5.7978 O.2     
  20 O20           -3.0774     4.2263    -4.2848 O.3     
  21 H21           -0.5292     1.8784     0.9070 H       
  22 H22           -1.0190    -0.3825     0.0506 H       
  23 H23            1.7038    -0.1541    -1.3144 H       
  24 H24           -1.1115    -0.2897    -2.4911 H       
  25 H25            0.9155     1.9928    -2.4240 H       
  26 H26           -0.5041     1.8299    -4.4908 H       
  27 H27           -1.9530     1.8894    -3.4586 H       
  28 H28            1.7263    -0.5694     1.1046 H       
  29 H29            1.3850     2.9865     0.0049 H       
  30 H30            1.0304    -2.2958    -2.1324 H       
  31 H31            0.1406     0.0302    -4.5007 H       
  32 H32           -1.4169    -2.4299     2.9892 H       
  33 H33           -3.6606     4.6379    -4.9371 H       
@<TRIPOS>BOND
   1    1    2 1
   2    1    8 1
   3    1   11 1
   4    1   21 1
   5    2    3 1
   6    2    7 1
   7    2   22 1
   8    3    4 1
   9    3    9 1
  10    3   23 1
  11    4    5 1
  12    4   10 1
  13    4   24 1
  14    5    6 1
  15    5   11 1
  16    5   25 1
  17    6   12 1
  18    6   26 1
  19    6   27 1
  20    7   13 am
  21    7   28 1
  22    8   29 1
  23    9   30 1
  24   10   31 1
  25   12   17 1
  26   13   14 2
  27   13   15 2
  28   13   16 1
  29   16   32 1
  30   17   18 2
  31   17   19 2
  32   17   20 1
  33   20   33 1

#	End of record

