#	Name: ASD10240001
#	Creating user name:	WinNT
#	Creation time:	15. 06. 2019 21:26

#	Modifying user name:	WinNT
#	Modification time:	15. 06. 2019 21:26

#	Program:	/corina/corina34_cracker 3.40 0067  02.08.2006

@<TRIPOS>MOLECULE
ASD10240001
  62   65    0    0    0
SMALL
NO_CHARGES


@<TRIPOS>ATOM
   1 C1            -0.0167     1.3833     0.0096 C.ar    
   2 C2             0.0021    -0.0041     0.0020 C.ar    
   3 C3             1.2114    -0.6735    -0.0130 C.ar    
   4 C4             2.3939     0.0429    -0.0213 C.ar    
   5 C5             2.3811     1.4297    -0.0137 C.ar    
   6 C6             1.1716     2.0991     0.0021 C.ar    
   7 C7             1.2324    -2.1859    -0.0190 C.3     
   8 N8             1.6612    -2.6574    -1.3381 N.am    
   9 C9             3.0677    -2.8782    -1.6440 C.3     
  10 C10            3.8921    -1.6022    -1.6924 C.3     
  11 S11            3.9296    -0.8356    -0.0426 S.3     
  12 C12            0.7346    -2.8912    -2.2885 C.2     
  13 C13            1.1585    -3.3765    -3.6508 C.3     
  14 O14           -0.4402    -2.7111    -2.0474 O.2     
  15 C15           -0.0774    -3.5616    -4.5335 C.3     
  16 N16            0.3357    -4.0347    -5.8615 N.3     
  17 C17           -0.8265    -4.4490    -6.6577 C.3     
  18 C18           -0.3505    -5.0693    -7.9732 C.3     
  19 C19            0.4803    -4.0408    -8.7456 C.3     
  20 C20            1.6570    -3.5898    -7.8757 C.3     
  21 C21            1.1227    -3.0124    -6.5630 C.3     
  22 C22            1.0100    -4.6747   -10.0334 C.3     
  23 C23            3.0775    -3.4168   -10.6727 C.ar    
  24 C24            3.7316    -2.4574   -11.4226 C.ar    
  25 C25            3.0315    -1.7103   -12.3514 C.ar    
  26 C26            1.6774    -1.9229   -12.5306 C.ar    
  27 C27            1.0232    -2.8820   -11.7802 C.ar    
  28 C28            1.7232    -3.6291   -10.8514 C.ar    
  29 O29           -1.2053     2.0442     0.0189 O.3     
  30 C30           -1.1535     3.4723     0.0264 C.3     
  31 H31           -0.9245    -0.5588     0.0081 H       
  32 H32            3.3089     1.9825    -0.0194 H       
  33 H33            1.1518     3.1789     0.0079 H       
  34 H34            1.9288    -2.5433     0.7394 H       
  35 H35            0.2331    -2.5647     0.1958 H       
  36 H36            3.4898    -3.5366    -0.8849 H       
  37 H37            3.1396    -3.3759    -2.6111 H       
  38 H38            4.9090    -1.8388    -2.0055 H       
  39 H39            3.4457    -0.9086    -2.4050 H       
  40 H40            1.8241    -2.6437    -4.1067 H       
  41 H41            1.6798    -4.3286    -3.5514 H       
  42 H42           -0.7431    -4.2945    -4.0776 H       
  43 H43           -0.5988    -2.6096    -4.6330 H       
  44 H44           -1.4064    -5.1835    -6.0987 H       
  45 H45           -1.4495    -3.5802    -6.8703 H       
  46 H46            0.2612    -5.9463    -7.7616 H       
  47 H47           -1.2137    -5.3625    -8.5707 H       
  48 H48           -0.1420    -3.1803    -8.9912 H       
  49 H49            2.3002    -4.4436    -7.6626 H       
  50 H50            2.2280    -2.8260    -8.4035 H       
  51 H51            0.4906    -2.1503    -6.7760 H       
  52 H52            1.9585    -2.7035    -5.9353 H       
  53 H53            1.7043    -5.4772    -9.7845 H       
  54 H54            0.1772    -5.0799   -10.6082 H       
  55 H55            3.6253    -4.0036    -9.9502 H       
  56 H56            4.7895    -2.2913   -11.2827 H       
  57 H57            3.5425    -0.9602   -12.9369 H       
  58 H58            1.1304    -1.3387   -13.2557 H       
  59 H59           -0.0348    -3.0479   -11.9199 H       
  60 H60           -2.1672     3.8726     0.0334 H       
  61 H61           -0.6226     3.8119     0.9157 H       
  62 H62           -0.6310     3.8216    -0.8642 H       
@<TRIPOS>BOND
   1    1    2 ar
   2    1    6 ar
   3    1   29 1
   4    2    3 ar
   5    2   31 1
   6    3    4 ar
   7    3    7 1
   8    4    5 ar
   9    4   11 1
  10    5    6 ar
  11    5   32 1
  12    6   33 1
  13    7    8 1
  14    7   34 1
  15    7   35 1
  16    8    9 1
  17    8   12 am
  18    9   10 1
  19    9   36 1
  20    9   37 1
  21   10   11 1
  22   10   38 1
  23   10   39 1
  24   12   13 1
  25   12   14 2
  26   13   15 1
  27   13   40 1
  28   13   41 1
  29   15   16 1
  30   15   42 1
  31   15   43 1
  32   16   17 1
  33   16   21 1
  34   17   18 1
  35   17   44 1
  36   17   45 1
  37   18   19 1
  38   18   46 1
  39   18   47 1
  40   19   20 1
  41   19   22 1
  42   19   48 1
  43   20   21 1
  44   20   49 1
  45   20   50 1
  46   21   51 1
  47   21   52 1
  48   22   28 1
  49   22   53 1
  50   22   54 1
  51   23   24 ar
  52   23   28 ar
  53   23   55 1
  54   24   25 ar
  55   24   56 1
  56   25   26 ar
  57   25   57 1
  58   26   27 ar
  59   26   58 1
  60   27   28 ar
  61   27   59 1
  62   29   30 1
  63   30   60 1
  64   30   61 1
  65   30   62 1

#	End of record

