#	Name: ASD11820019
#	Creating user name:	WinNT
#	Creation time:	15. 06. 2019 21:29

#	Modifying user name:	WinNT
#	Modification time:	15. 06. 2019 21:29

#	Program:	/corina/corina34_cracker 3.40 0067  02.08.2006

@<TRIPOS>MOLECULE
ASD11820019
  32   35    0    0    0
SMALL
NO_CHARGES


@<TRIPOS>ATOM
   1 C1             2.2996     3.2630     2.5182 C.ar    
   2 C2             3.1024     2.5249     3.3603 C.ar    
   3 C3             3.8627     1.4770     2.8622 C.ar    
   4 C4             3.8273     1.1588     1.5220 C.ar    
   5 C5             2.2541     2.9524     1.1615 C.ar    
   6 C6             1.5293     3.5126     0.0064 C.2     
   7 C7             3.0232     1.8920     0.6556 C.ar    
   8 N8             2.7820     1.8161    -0.7007 N.pl3   
   9 C9             1.9010     2.7738    -1.0787 C.2     
  10 C10            0.5907     4.6438     0.0209 C.2     
  11 C11            1.0984     6.0186     0.1345 C.2     
  12 O12           -0.6076     4.4420    -0.0611 O.2     
  13 C13            1.2239     8.3111     0.2267 C.ar    
  14 C14            0.3063     7.2602     0.0670 C.ar    
  15 C15            2.3947     6.3970     0.3290 C.2     
  16 N16            2.4742     7.7487     0.3822 N.pl3   
  17 C17           -0.5754     9.8829     0.0318 C.ar    
  18 C18           -1.4806     8.8436    -0.1258 C.ar    
  19 C19           -1.0473     7.5358    -0.1091 C.ar    
  20 C20            0.7671     9.6247     0.2043 C.ar    
  21 H21            1.7051     4.0755     2.9091 H       
  22 H22            3.1401     2.7635     4.4130 H       
  23 H23            4.4888     0.9052     3.5312 H       
  24 H24            4.4235     0.3412     1.1445 H       
  25 H25            3.1866     1.1689    -1.2994 H       
  26 H26            1.5462     2.9287    -2.0869 H       
  27 H27            3.2314     5.7211     0.4260 H       
  28 H28            3.2944     8.2502     0.5115 H       
  29 H29           -0.9259    10.9043     0.0168 H       
  30 H30           -2.5301     9.0605    -0.2598 H       
  31 H31           -1.7539     6.7283    -0.2324 H       
  32 H32            1.4634    10.4412     0.3262 H       
@<TRIPOS>BOND
   1    1    2 ar
   2    1    5 ar
   3    1   21 1
   4    2    3 ar
   5    2   22 1
   6    3    4 ar
   7    3   23 1
   8    4    7 ar
   9    4   24 1
  10    5    7 ar
  11    5    6 1
  12    6    9 2
  13    6   10 1
  14    7    8 1
  15    8    9 1
  16    8   25 1
  17    9   26 1
  18   10   11 1
  19   10   12 2
  20   11   15 2
  21   11   14 1
  22   13   16 1
  23   13   20 ar
  24   13   14 ar
  25   14   19 ar
  26   15   16 1
  27   15   27 1
  28   16   28 1
  29   17   18 ar
  30   17   20 ar
  31   17   29 1
  32   18   19 ar
  33   18   30 1
  34   19   31 1
  35   20   32 1

#	End of record

