#	Name: ASD16660002
#	Creating user name:	WinNT
#	Creation time:	15. 06. 2019 21:31

#	Modifying user name:	WinNT
#	Modification time:	15. 06. 2019 21:31

#	Program:	/corina/corina34_cracker 3.40 0067  02.08.2006

@<TRIPOS>MOLECULE
ASD16660002
  50   53    0    0    0
SMALL
NO_CHARGES


@<TRIPOS>ATOM
   1 C1             0.4064     1.5801     0.0772 C.ar    
   2 C2            -0.4716    -1.6695     1.4077 C.ar    
   3 C3            -0.7889     2.2704    -0.0238 C.ar    
   4 C4            -0.7961     3.6537    -0.0013 C.ar    
   5 C5             0.3906     4.3504     0.1227 C.ar    
   6 C6             1.5914     3.6613     0.2247 C.ar    
   7 C7             1.5958     2.2713     0.2066 C.ar    
   8 C8             0.1772    -0.4137    -1.3794 C.3     
   9 C9             0.6168    -2.4481     1.0026 C.ar    
  10 C10            0.8032    -3.7030     1.4940 C.ar    
  11 C11           -0.1072    -4.2337     2.4242 C.ar    
  12 C12           -1.2114    -3.4440     2.8358 C.ar    
  13 C13           -1.3739    -2.1495     2.3141 C.ar    
  14 C14            0.4102     0.0733     0.0523 C.3     
  15 C15           -2.1223    -3.9723     3.7652 C.ar    
  16 C16           -1.8943    -5.2611     4.2430 C.ar    
  17 C17           -0.7737    -5.9802     3.7841 C.ar    
  18 C18           -2.8152    -5.8649     5.2180 C.2     
  19 C19           -2.5310    -7.0685     5.7592 C.2     
  20 C20           -3.4463    -7.6686     6.7282 C.2     
  21 C21           -3.3095    -3.1697     4.2317 C.3     
  22 C22           -3.3973    -2.8399     5.7231 C.3     
  23 C23           -3.0505    -1.7417     4.7159 C.3     
  24 N24            2.7937     4.3640     0.3497 N.pl3   
  25 N25            0.0600    -5.4663     2.9177 N.ar    
  26 O26           -0.6306    -0.4197     0.8983 O.3     
  27 O27           -3.1623    -8.8715     7.2691 O.3     
  28 O28           -4.4638    -7.0834     7.0470 O.2     
  29 Cl29           3.0943     1.4051     0.3405 Cl      
  30 Cl30          -2.2822     1.3988    -0.1797 Cl      
  31 H31           -1.7303     4.1896    -0.0810 H       
  32 H32            0.3840     5.4302     0.1398 H       
  33 H33           -0.7853    -0.0468    -1.7359 H       
  34 H34            0.9711    -0.0377    -2.0247 H       
  35 H35            0.1799    -1.5035    -1.3974 H       
  36 H36            1.3205    -2.0471     0.2882 H       
  37 H37            1.6492    -4.2907     1.1695 H       
  38 H38           -2.2092    -1.5394     2.6246 H       
  39 H39            1.3726    -0.2936     0.4088 H       
  40 H40           -0.5989    -6.9789     4.1562 H       
  41 H41           -3.7187    -5.3453     5.5011 H       
  42 H42           -1.6275    -7.5881     5.4762 H       
  43 H43           -4.2431    -3.3606     3.7026 H       
  44 H44           -4.3888    -2.8134     6.1752 H       
  45 H45           -2.5966    -3.2038     6.3670 H       
  46 H46           -2.0215    -1.3827     4.6971 H       
  47 H47           -3.8139    -0.9926     4.5054 H       
  48 H48            2.7893     5.3339     0.3653 H       
  49 H49            3.6323     3.8816     0.4210 H       
  50 H50           -3.8255    -9.1862     7.8985 H       
@<TRIPOS>BOND
   1    1   14 1
   2    1    7 ar
   3    1    3 ar
   4    2   26 1
   5    2   13 ar
   6    2    9 ar
   7    3    4 ar
   8    3   30 1
   9    4    5 ar
  10    4   31 1
  11    5    6 ar
  12    5   32 1
  13    6    7 ar
  14    6   24 1
  15    7   29 1
  16    8   33 1
  17    8   34 1
  18    8   35 1
  19    8   14 1
  20    9   36 1
  21    9   10 ar
  22   10   11 ar
  23   10   37 1
  24   11   12 ar
  25   11   25 ar
  26   12   15 ar
  27   12   13 ar
  28   13   38 1
  29   14   39 1
  30   14   26 1
  31   15   21 1
  32   15   16 ar
  33   16   18 1
  34   16   17 ar
  35   17   40 1
  36   17   25 ar
  37   18   41 1
  38   18   19 2
  39   19   20 1
  40   19   42 1
  41   20   27 1
  42   20   28 2
  43   21   22 1
  44   21   43 1
  45   21   23 1
  46   22   44 1
  47   22   45 1
  48   22   23 1
  49   23   46 1
  50   23   47 1
  51   24   48 1
  52   24   49 1
  53   27   50 1

#	End of record

