#	Name: ASD13630001
#	Creating user name:	WinNT
#	Creation time:	15. 06. 2019 21:30

#	Modifying user name:	WinNT
#	Modification time:	15. 06. 2019 21:30

#	Program:	/corina/corina34_cracker 3.40 0067  02.08.2006

@<TRIPOS>MOLECULE
ASD13630001
  31   33    0    0    0
SMALL
NO_CHARGES


@<TRIPOS>ATOM
   1 C1            -0.1295     1.4802     0.9755 C.ar    
   2 C2            -0.1478     0.1019     1.1739 C.ar    
   3 C3             0.9598    -0.6570     0.8675 C.ar    
   4 C4             2.0983    -0.0484     0.3596 C.ar    
   5 C5             2.1341     1.3080     0.1577 C.ar    
   6 S6            -1.3609     2.7090     1.2549 S.3     
   7 C7             1.0114     2.1064     0.4643 C.ar    
   8 N8             0.8638     3.4392     0.3339 N.2     
   9 C9            -0.2648     3.9578     0.6804 C.2     
  10 N10           -0.5710     5.3014     0.6051 N.pl3   
  11 N11            0.3823     6.2115     0.1300 N.2     
  12 C12            0.0569     7.4543    -0.0562 C.2     
  13 C13           -1.3547     7.8226    -0.2709 C.ar    
  14 C14           -1.7374     9.1662    -0.2699 C.ar    
  15 C15           -2.3148     6.8299    -0.4818 C.ar    
  16 C16           -3.6333     7.1818    -0.6818 C.ar    
  17 C17           -4.0061     8.5144    -0.6739 C.ar    
  18 C18           -3.0596     9.5033    -0.4713 C.ar    
  19 N19           -5.4232     8.8842    -0.8898 N.pl3   
  20 O20           -6.2578     8.0164    -1.0738 O.2     
  21 O21           -5.7546    10.0562    -0.8834 O.2     
  22 H22           -1.0333    -0.3733     1.5696 H       
  23 H23            0.9422    -1.7256     1.0230 H       
  24 H24            2.9644    -0.6479     0.1212 H       
  25 H25            3.0274     1.7680    -0.2384 H       
  26 H26           -1.4462     5.6156     0.8811 H       
  27 H27            0.8201     8.2185    -0.0540 H       
  28 H28           -0.9998     9.9390    -0.1116 H       
  29 H29           -2.0252     5.7895    -0.4886 H       
  30 H30           -4.3766     6.4155    -0.8453 H       
  31 H31           -3.3569    10.5416    -0.4708 H       
@<TRIPOS>BOND
   1    1    2 ar
   2    1    7 ar
   3    1    6 1
   4    2    3 ar
   5    2   22 1
   6    3    4 ar
   7    3   23 1
   8    4    5 ar
   9    4   24 1
  10    5    7 ar
  11    5   25 1
  12    6    9 1
  13    7    8 1
  14    8    9 2
  15    9   10 1
  16   10   11 1
  17   10   26 1
  18   11   12 2
  19   12   13 1
  20   12   27 1
  21   13   15 ar
  22   13   14 ar
  23   14   18 ar
  24   14   28 1
  25   15   16 ar
  26   15   29 1
  27   16   17 ar
  28   16   30 1
  29   17   18 ar
  30   17   19 1
  31   18   31 1
  32   19   20 2
  33   19   21 2

#	End of record

