#	Name: ASD14170019
#	Creating user name:	WinNT
#	Creation time:	15. 06. 2019 21:31

#	Modifying user name:	WinNT
#	Modification time:	15. 06. 2019 21:31

#	Program:	/corina/corina34_cracker 3.40 0067  02.08.2006

@<TRIPOS>MOLECULE
ASD14170019
  38   40    0    0    0
SMALL
NO_CHARGES


@<TRIPOS>ATOM
   1 C1             0.3627     1.8768     0.0296 C.2     
   2 C2             0.3893     0.4917    -0.2225 C.2     
   3 C3             1.5558    -0.0041     0.3306 C.2     
   4 N4             2.2071     1.0382     0.8936 N.pl3   
   5 N5             1.4433     2.1935     0.6915 N.2     
   6 N6             1.9801    -1.3296     0.3116 N.am    
   7 C7             3.1634    -1.6504    -0.2481 C.2     
   8 N8             3.5989    -2.9256    -0.2192 N.am    
   9 O9             3.8381    -0.7895    -0.7792 O.2     
  10 C10            4.8725    -3.2418    -0.7083 C.ar    
  11 C11            6.6486    -2.8621    -2.2742 C.ar    
  12 C12            7.3891    -3.8674    -1.6756 C.ar    
  13 C13            6.8702    -4.5637    -0.5970 C.ar    
  14 C14            5.6146    -4.2530    -0.1128 C.ar    
  15 C15            5.3925    -2.5484    -1.7931 C.ar    
  16 F16            8.6176    -4.1728    -2.1478 F       
  17 C17            3.4914     0.9701     1.5952 C.3     
  18 C18           -0.6423    -0.2905    -0.9469 C.ar    
  19 C19           -2.9422    -0.8959    -1.2750 C.ar    
  20 C20           -2.5681    -1.7512    -2.2985 C.ar    
  21 C21           -1.2331    -1.8820    -2.6444 C.ar    
  22 C22           -0.2701    -1.1562    -1.9737 C.ar    
  23 C23           -1.9861    -0.1661    -0.5988 C.ar    
  24 F24           -3.5076    -2.4638    -2.9579 F       
  25 H25           -0.4153     2.5607    -0.2760 H       
  26 H26            1.4242    -2.0224     0.7013 H       
  27 H27            3.0303    -3.6243     0.1404 H       
  28 H28            7.0550    -2.3203    -3.1154 H       
  29 H29            7.4493    -5.3477    -0.1317 H       
  30 H30            5.2103    -4.7960     0.7287 H       
  31 H31            4.8151    -1.7645    -2.2605 H       
  32 H32            4.3039     1.0813     0.8772 H       
  33 H33            3.5457     1.7712     2.3323 H       
  34 H34            3.5801     0.0071     2.0980 H       
  35 H35           -3.9842    -0.7970    -1.0088 H       
  36 H36           -0.9460    -2.5500    -3.4431 H       
  37 H37            0.7705    -1.2585    -2.2443 H       
  38 H38           -2.2786     0.5002     0.1993 H       
@<TRIPOS>BOND
   1    1    2 1
   2    1    5 2
   3    1   25 1
   4    2    3 2
   5    2   18 1
   6    3    4 1
   7    3    6 1
   8    4    5 1
   9    4   17 1
  10    6    7 am
  11    6   26 1
  12    7    8 am
  13    7    9 2
  14    8   10 1
  15    8   27 1
  16   10   15 ar
  17   10   14 ar
  18   11   12 ar
  19   11   15 ar
  20   11   28 1
  21   12   13 ar
  22   12   16 1
  23   13   14 ar
  24   13   29 1
  25   14   30 1
  26   15   31 1
  27   17   32 1
  28   17   33 1
  29   17   34 1
  30   18   23 ar
  31   18   22 ar
  32   19   20 ar
  33   19   23 ar
  34   19   35 1
  35   20   21 ar
  36   20   24 1
  37   21   22 ar
  38   21   36 1
  39   22   37 1
  40   23   38 1

#	End of record

