#	Name: ASD10160440
#	Creating user name:	WinNT
#	Creation time:	15. 06. 2019 21:25

#	Modifying user name:	WinNT
#	Modification time:	15. 06. 2019 21:25

#	Program:	/corina/corina34_cracker 3.40 0067  02.08.2006

@<TRIPOS>MOLECULE
ASD10160440
  48   50    0    0    0
SMALL
NO_CHARGES


@<TRIPOS>ATOM
   1 C1             0.2235     1.4262     0.1336 C.2     
   2 C2             0.2070    -0.0442     0.0499 C.ar    
   3 C3             1.3951    -0.7702     0.2030 C.ar    
   4 C4             1.3735    -2.1478     0.1241 C.ar    
   5 C5             0.1764    -2.8132    -0.1065 C.ar    
   6 C6            -1.0062    -2.0951    -0.2592 C.ar    
   7 C7            -0.9961    -0.7206    -0.1769 C.ar    
   8 O8             1.2692     2.0117     0.3357 O.2     
   9 O9            -0.9201     2.1229    -0.0196 O.3     
  10 F10            2.5598    -0.1231     0.4270 F       
  11 O11            0.1597    -4.1679    -0.1838 O.3     
  12 C12            2.0279    -5.3421    -1.0824 C.ar    
  13 C13            1.3314    -4.8323     0.0017 C.ar    
  14 C14            1.8463    -5.0084     1.2831 C.ar    
  15 C15            3.0428    -5.6910     1.4247 C.ar    
  16 C16            3.6849    -6.1739     0.2908 C.ar    
  17 N17            3.1658    -5.9877    -0.9107 N.ar    
  18 O18            4.8586    -6.8446     0.4184 O.3     
  19 C19            5.4702    -7.3164    -0.7839 C.3     
  20 C20            6.4115    -6.2423    -1.3327 C.3     
  21 C21            6.2665    -8.5884    -0.4858 C.3     
  22 F22            5.3903    -9.6056    -0.0924 F       
  23 F23            5.6675    -5.1197    -1.7117 F       
  24 Cl24           3.7321    -5.9398     2.9984 Cl      
  25 Cl25          -2.4982    -2.9345    -0.5472 Cl      
  26 C26           -0.8302     3.4777     0.0413 C.ar    
  27 C27           -0.3734     4.1938    -1.0557 C.ar    
  28 C28           -0.2834     5.5708    -0.9913 C.ar    
  29 C29           -0.6477     6.2353     0.1651 C.ar    
  30 C30           -1.1029     5.5239     1.2599 C.ar    
  31 C31           -1.2006     4.1473     1.1986 C.ar    
  32 C32           -0.5481     7.7375     0.2327 C.3     
  33 H33            2.2887    -2.7092     0.2416 H       
  34 H34           -1.9153    -0.1653    -0.2915 H       
  35 H35            1.6325    -5.2133    -2.0791 H       
  36 H36            1.3252    -4.6216     2.1463 H       
  37 H37            4.6988    -7.5352    -1.5223 H       
  38 H38            7.1287    -5.9596    -0.5621 H       
  39 H39            6.9444    -6.6344    -2.1989 H       
  40 H40            6.8045    -8.8985    -1.3816 H       
  41 H41            6.9784    -8.3919     0.3159 H       
  42 H42           -0.0880     3.6751    -1.9590 H       
  43 H43            0.0721     6.1287    -1.8450 H       
  44 H44           -1.3862     6.0452     2.1623 H       
  45 H45           -1.5608     3.5924     2.0523 H       
  46 H46           -1.4873     8.1792    -0.1002 H       
  47 H47           -0.3470     8.0425     1.2596 H       
  48 H48            0.2621     8.0773    -0.4125 H       
@<TRIPOS>BOND
   1    1    2 1
   2    1    8 2
   3    1    9 1
   4    2    3 ar
   5    2    7 ar
   6    3    4 ar
   7    3   10 1
   8    4    5 ar
   9    4   33 1
  10    5    6 ar
  11    5   11 1
  12    6    7 ar
  13    6   25 1
  14    7   34 1
  15    9   26 1
  16   11   13 1
  17   12   13 ar
  18   12   17 ar
  19   12   35 1
  20   13   14 ar
  21   14   15 ar
  22   14   36 1
  23   15   16 ar
  24   15   24 1
  25   16   17 ar
  26   16   18 1
  27   18   19 1
  28   19   20 1
  29   19   21 1
  30   19   37 1
  31   20   23 1
  32   20   38 1
  33   20   39 1
  34   21   22 1
  35   21   40 1
  36   21   41 1
  37   26   27 ar
  38   26   31 ar
  39   27   28 ar
  40   27   42 1
  41   28   29 ar
  42   28   43 1
  43   29   30 ar
  44   29   32 1
  45   30   31 ar
  46   30   44 1
  47   31   45 1
  48   32   46 1
  49   32   47 1
  50   32   48 1

#	End of record

