#	Name: ASD10160108
#	Creating user name:	WinNT
#	Creation time:	15. 06. 2019 21:25

#	Modifying user name:	WinNT
#	Modification time:	15. 06. 2019 21:25

#	Program:	/corina/corina34_cracker 3.40 0067  02.08.2006

@<TRIPOS>MOLECULE
ASD10160108
  41   43    0    0    0
SMALL
NO_CHARGES


@<TRIPOS>ATOM
   1 C1             0.0726     1.0322    -1.4401 C.ar    
   2 C2             0.0495    -0.1959    -0.7716 C.ar    
   3 C3             1.2895     1.6968    -1.6318 C.ar    
   4 C4             2.4602     1.1371    -1.1603 C.ar    
   5 C5             2.4308    -0.0824    -0.4974 C.ar    
   6 C6             1.2221    -0.7461    -0.3050 C.ar    
   7 C7            -1.1801     1.6221    -1.9467 C.2     
   8 N8            -2.3499     0.9777    -1.7658 N.am    
   9 O9            -1.1577     2.6902    -2.5277 O.2     
  10 S10           -3.7568     1.6403    -2.3348 S.o2    
  11 O11           -4.7624     0.7146    -1.9463 O.2     
  12 O12           -3.7486     2.9682    -1.8288 O.2     
  13 O13            3.5837    -0.6292    -0.0355 O.3     
  14 C14            4.7259     0.1003    -0.1472 C.ar    
  15 Cl15           1.1936    -2.2707     0.5248 Cl      
  16 C16            5.1003     0.9823     0.8640 C.ar    
  17 C17            5.5334    -0.0292    -1.2648 C.ar    
  18 N18            6.6443     0.6743    -1.3812 N.ar    
  19 C19            7.0296     1.5252    -0.4441 C.ar    
  20 C20            6.2705     1.7041     0.7090 C.ar    
  21 Cl21           6.7825     2.8225     1.9341 Cl      
  22 F22            1.3184     2.8833    -2.2772 F       
  23 N23            8.2098     2.2459    -0.6109 N.3     
  24 C24            8.8604     1.9060    -1.8900 C.3     
  25 C25            9.1704     3.3992    -2.0654 C.3     
  26 C26            7.9379     3.5837    -1.1689 C.3     
  27 F27           10.3725     3.8076    -1.4777 F       
  28 F28            9.0035     3.8693    -3.3724 F       
  29 C29           -3.5582     1.6450    -4.1379 C.3     
  30 H30           -0.8872    -0.7120    -0.6211 H       
  31 H31            3.4001     1.6483    -1.3077 H       
  32 H32           -2.3677     0.1258    -1.3023 H       
  33 H33            4.4913     1.1001     1.7480 H       
  34 H34            5.2509    -0.7142    -2.0505 H       
  35 H35            9.7510     1.2884    -1.7736 H       
  36 H36            8.1704     1.5150    -2.6377 H       
  37 H37            7.0017     3.6404    -1.7242 H       
  38 H38            8.0467     4.3880    -0.4413 H       
  39 H39           -3.4178     0.6232    -4.4906 H       
  40 H40           -4.4491     2.0699    -4.6004 H       
  41 H41           -2.6884     2.2446    -4.4060 H       
@<TRIPOS>BOND
   1    1    2 ar
   2    1    3 ar
   3    1    7 1
   4    2    6 ar
   5    2   30 1
   6    3    4 ar
   7    3   22 1
   8    4    5 ar
   9    4   31 1
  10    5    6 ar
  11    5   13 1
  12    6   15 1
  13    7    8 am
  14    7    9 2
  15    8   10 am
  16    8   32 1
  17   10   11 2
  18   10   12 2
  19   10   29 1
  20   13   14 1
  21   14   16 ar
  22   14   17 ar
  23   16   20 ar
  24   16   33 1
  25   17   18 ar
  26   17   34 1
  27   18   19 ar
  28   19   20 ar
  29   19   23 1
  30   20   21 1
  31   23   24 1
  32   23   26 1
  33   24   25 1
  34   24   35 1
  35   24   36 1
  36   25   26 1
  37   25   27 1
  38   25   28 1
  39   26   37 1
  40   26   38 1
  41   29   39 1
  42   29   40 1
  43   29   41 1

#	End of record

