#	Name: ASD10160107
#	Creating user name:	WinNT
#	Creation time:	15. 06. 2019 21:25

#	Modifying user name:	WinNT
#	Modification time:	15. 06. 2019 21:25

#	Program:	/corina/corina34_cracker 3.40 0067  02.08.2006

@<TRIPOS>MOLECULE
ASD10160107
  44   46    0    0    0
SMALL
NO_CHARGES


@<TRIPOS>ATOM
   1 C1             1.7585    -1.5555     3.5513 C.ar    
   2 C2             1.3253    -2.1599     2.3675 C.ar    
   3 C3             2.8134    -0.6355     3.5171 C.ar    
   4 C4             3.4201    -0.3298     2.3156 C.ar    
   5 C5             2.9849    -0.9332     1.1429 C.ar    
   6 C6             1.9369    -1.8485     1.1734 C.ar    
   7 C7             1.1027    -1.8814     4.8310 C.2     
   8 N8             0.0838    -2.7631     4.8607 N.am    
   9 O9             1.4810    -1.3545     5.8596 O.2     
  10 S10           -0.6528    -3.1291     6.2980 S.o2    
  11 O11           -1.6403    -4.0902     5.9510 O.2     
  12 O12            0.4208    -3.4628     7.1671 O.2     
  13 O13            3.5837    -0.6296    -0.0365 O.3     
  14 C14            4.6727     0.1844    -0.0086 C.ar    
  15 Cl15           1.3987    -2.5984    -0.2968 Cl      
  16 C16            5.9486    -0.3510     0.1481 C.ar    
  17 C17            4.5262     1.5555    -0.1416 C.ar    
  18 N18            5.5774     2.3530    -0.1157 N.ar    
  19 C19            6.8044     1.8813     0.0369 C.ar    
  20 C20            7.0285     0.5143     0.1708 C.ar    
  21 Cl21           8.6410    -0.0969     0.3711 Cl      
  22 F22            3.2363    -0.0478     4.6577 F       
  23 N23            7.8835     2.7619     0.0580 N.3     
  24 C24            7.4313     4.1558    -0.1046 C.3     
  25 C25            7.9460     4.9487     1.1151 C.3     
  26 C26            9.1388     4.0901     1.6121 C.3     
  27 C27            8.6301     2.6545     1.3296 C.3     
  28 F28           10.2959     4.3658     0.8757 F       
  29 F29            9.3598     4.2834     2.9800 F       
  30 C30           -1.4317    -1.5749     6.8161 C.3     
  31 H31            0.5122    -2.8704     2.3893 H       
  32 H32            4.2339     0.3796     2.2874 H       
  33 H33           -0.2180    -3.1833     4.0402 H       
  34 H34            6.0921    -1.4166     0.2498 H       
  35 H35            3.5399     1.9769    -0.2682 H       
  36 H36            7.8456     4.5754    -1.0213 H       
  37 H37            6.3424     4.1910    -0.1372 H       
  38 H38            8.2837     5.9407     0.8154 H       
  39 H39            7.1751     5.0184     1.8826 H       
  40 H40            7.9698     2.3214     2.1304 H       
  41 H41            9.4704     1.9690     1.2196 H       
  42 H42           -2.1499    -1.2586     6.0597 H       
  43 H43           -1.9461    -1.7250     7.7653 H       
  44 H44           -0.6671    -0.8071     6.9347 H       
@<TRIPOS>BOND
   1    1    2 ar
   2    1    3 ar
   3    1    7 1
   4    2    6 ar
   5    2   31 1
   6    3    4 ar
   7    3   22 1
   8    4    5 ar
   9    4   32 1
  10    5    6 ar
  11    5   13 1
  12    6   15 1
  13    7    8 am
  14    7    9 2
  15    8   10 am
  16    8   33 1
  17   10   11 2
  18   10   12 2
  19   10   30 1
  20   13   14 1
  21   14   16 ar
  22   14   17 ar
  23   16   20 ar
  24   16   34 1
  25   17   18 ar
  26   17   35 1
  27   18   19 ar
  28   19   20 ar
  29   19   23 1
  30   20   21 1
  31   23   24 1
  32   23   27 1
  33   24   25 1
  34   24   36 1
  35   24   37 1
  36   25   26 1
  37   25   38 1
  38   25   39 1
  39   26   27 1
  40   26   28 1
  41   26   29 1
  42   27   40 1
  43   27   41 1
  44   30   42 1
  45   30   43 1
  46   30   44 1

#	End of record

