#	Name: ASD10950080
#	Creating user name:	WinNT
#	Creation time:	15. 06. 2019 21:28

#	Modifying user name:	WinNT
#	Modification time:	15. 06. 2019 21:28

#	Program:	/corina/corina34_cracker 3.40 0067  02.08.2006

@<TRIPOS>MOLECULE
ASD10950080
  50   54    0    0    0
SMALL
NO_CHARGES


@<TRIPOS>ATOM
   1 O1             0.3837     0.2378    -1.3076 O.2     
   2 C2             0.3801     0.9345    -0.3102 C.2     
   3 C3             1.4580     1.9029    -0.0886 C.2     
   4 C4             2.7599     1.6209     0.1517 C.2     
   5 O5             3.2918     0.3795     0.2289 O.3     
   6 C6             3.5082     2.8852     0.3161 C.2     
   7 O7             4.6993     2.9663     0.5416 O.2     
   8 N8             2.6753     3.9328     0.1782 N.am    
   9 C9             1.3313     3.4085    -0.0911 C.3     
  10 C10            0.8452     3.8933    -1.4326 C.2     
  11 C11           -0.3650     4.4229    -1.6864 C.2     
  12 C12           -0.3939     4.7368    -3.0646 C.2     
  13 C13            0.8003     4.3802    -3.5707 C.2     
  14 O14            1.5489     3.8752    -2.5764 O.3     
  15 C15            3.0456     5.3470     0.2747 C.3     
  16 C16            3.4419     5.8660    -1.1089 C.3     
  17 C17            3.8228     7.3207    -1.0096 C.2     
  18 C18            3.0211     8.3733    -1.2363 C.2     
  19 N19            3.7153     9.5373    -1.0481 N.pl3   
  20 C20            5.0135     9.2549    -0.6866 C.ar    
  21 C21            5.1363     7.8543    -0.6413 C.ar    
  22 C22            6.3585     7.2730    -0.2977 C.ar    
  23 C23            7.4302     8.0688    -0.0068 C.ar    
  24 C24            7.3140     9.4516    -0.0497 C.ar    
  25 C25            6.1168    10.0460    -0.3829 C.ar    
  26 C26           -0.7148     0.8086     0.6756 C.ar    
  27 C27           -1.8137    -0.0203     0.4174 C.ar    
  28 C28           -2.8112    -0.1033     1.3728 C.ar    
  29 C29           -2.6924     0.6279     2.5411 C.ar    
  30 N30           -1.6452     1.4012     2.7578 N.ar    
  31 C31           -0.6679     1.5096     1.8824 C.ar    
  32 H32            4.2420     0.3691     0.4080 H       
  33 H33            0.6426     3.7220     0.6934 H       
  34 H34           -1.1618     4.5780    -0.9741 H       
  35 H35           -1.2170     5.1778    -3.6072 H       
  36 H36            1.1067     4.4858    -4.6009 H       
  37 H37            2.1970     5.9200     0.6484 H       
  38 H38            3.8873     5.4563     0.9586 H       
  39 H39            4.2905     5.2929    -1.4826 H       
  40 H40            2.6002     5.7566    -1.7928 H       
  41 H41            1.9823     8.3106    -1.5250 H       
  42 H42            3.3476    10.4287    -1.1539 H       
  43 H43            6.4561     6.1980    -0.2616 H       
  44 H44            8.3753     7.6187     0.2589 H       
  45 H45            8.1701    10.0675     0.1831 H       
  46 H46            6.0365    11.1226    -0.4135 H       
  47 H47           -1.8811    -0.5800    -0.5038 H       
  48 H48           -3.6736    -0.7320     1.2079 H       
  49 H49           -3.4698     0.5651     3.2882 H       
  50 H50            0.1730     2.1529     2.0956 H       
@<TRIPOS>BOND
   1    1    2 2
   2    2    3 1
   3    2   26 1
   4    3    4 2
   5    3    9 1
   6    4    5 1
   7    4    6 1
   8    5   32 1
   9    6    7 2
  10    6    8 am
  11    8    9 1
  12    8   15 1
  13    9   10 1
  14    9   33 1
  15   10   11 2
  16   10   14 1
  17   11   12 1
  18   11   34 1
  19   12   13 2
  20   12   35 1
  21   13   14 1
  22   13   36 1
  23   15   16 1
  24   15   37 1
  25   15   38 1
  26   16   17 1
  27   16   39 1
  28   16   40 1
  29   17   18 2
  30   17   21 1
  31   18   19 1
  32   18   41 1
  33   19   20 1
  34   19   42 1
  35   20   21 ar
  36   20   25 ar
  37   21   22 ar
  38   22   23 ar
  39   22   43 1
  40   23   24 ar
  41   23   44 1
  42   24   25 ar
  43   24   45 1
  44   25   46 1
  45   26   27 ar
  46   26   31 ar
  47   27   28 ar
  48   27   47 1
  49   28   29 ar
  50   28   48 1
  51   29   30 ar
  52   29   49 1
  53   30   31 ar
  54   31   50 1

#	End of record

