#	Name: ASD10420036
#	Creating user name:	WinNT
#	Creation time:	15. 06. 2019 21:27

#	Modifying user name:	WinNT
#	Modification time:	15. 06. 2019 21:27

#	Program:	/corina/corina34_cracker 3.40 0067  02.08.2006

@<TRIPOS>MOLECULE
ASD10420036
  70   74    0    0    0
SMALL
NO_CHARGES


@<TRIPOS>ATOM
   1 N1             2.7682    -2.8805     2.0493 N.am    
   2 C2             2.1436    -3.2788     0.7800 C.3     
   3 C3             1.7757    -2.0128    -0.0037 C.3     
   4 N4             2.9465    -1.1251    -0.0383 N.am    
   5 C5             3.5711    -0.7268     1.2309 C.3     
   6 C6             3.9390    -1.9928     2.0146 C.3     
   7 C7             2.2728    -3.3169     3.2242 C.2     
   8 O8             1.3012    -4.0464     3.2405 O.2     
   9 O9             2.8545    -2.9445     4.3800 O.3     
  10 C10            3.4388    -0.6846    -1.2131 C.2     
  11 O11            2.9718    -1.0939    -2.2609 O.2     
  12 C12            6.5455     1.1658    -1.1002 C.2     
  13 C13            5.8345    -0.0284    -0.9883 C.2     
  14 C14            4.4995     0.2546    -1.2291 C.2     
  15 N15            4.3765     1.6048    -1.4877 N.pl3   
  16 C16            3.2861     2.3719    -1.7797 C.2     
  17 C17            3.4138     3.6991    -1.9980 C.2     
  18 C18            4.6745     4.3096    -1.9272 C.2     
  19 C19            5.7713     3.5534    -1.6363 C.2     
  20 C20            5.6181     2.1761    -1.4127 C.2     
  21 C21            8.0049     1.3393    -0.9176 C.ar    
  22 C22            8.8003     1.7518    -1.9868 C.ar    
  23 C23           10.1593     1.9116    -1.8103 C.ar    
  24 C24           10.7335     1.6636    -0.5762 C.ar    
  25 C25            9.9500     1.2537     0.4879 C.ar    
  26 C26            8.5889     1.0963     0.3258 C.ar    
  27 C27            6.4131    -1.3818    -0.6650 C.3     
  28 C28            6.7736    -2.0926    -1.9440 C.ar    
  29 C29            8.0685    -2.0342    -2.4270 C.ar    
  30 C30            8.3989    -2.6869    -3.6012 C.ar    
  31 C31            7.4355    -3.3972    -4.2928 C.ar    
  32 C32            6.1414    -3.4566    -3.8118 C.ar    
  33 C33            5.8104    -2.8090    -2.6333 C.ar    
  34 F34            4.5467    -2.8717    -2.1595 F       
  35 Cl35           9.2789    -1.1416    -1.5599 Cl      
  36 C36            2.2675    -3.4526     5.6070 C.3     
  37 C37            2.3118    -4.9819     5.5985 C.3     
  38 C38            3.0579    -2.9261     6.8066 C.3     
  39 C39            0.8142    -2.9850     5.7089 C.3     
  40 H40            2.8450    -3.8777     0.1992 H       
  41 H41            1.2430    -3.8588     0.9816 H       
  42 H42            1.4905    -2.2820    -1.0207 H       
  43 H43            0.9464    -1.5054     0.4892 H       
  44 H44            4.4717    -0.1468     1.0293 H       
  45 H45            2.8697    -0.1279     1.8118 H       
  46 H46            4.2241    -1.7236     3.0316 H       
  47 H47            4.7683    -2.5002     1.5217 H       
  48 H48            2.3102     1.9128    -1.8373 H       
  49 H49            2.5413     4.2924    -2.2283 H       
  50 H50            4.7759     5.3705    -2.1021 H       
  51 H51            6.7484     4.0097    -1.5788 H       
  52 H52            8.3533     1.9454    -2.9507 H       
  53 H53           10.7763     2.2306    -2.6374 H       
  54 H54           11.7978     1.7900    -0.4431 H       
  55 H55           10.4041     1.0609     1.4486 H       
  56 H56            7.9776     0.7814     1.1585 H       
  57 H57            7.3071    -1.2582    -0.0537 H       
  58 H58            5.6770    -1.9703    -0.1173 H       
  59 H59            9.4101    -2.6411    -3.9780 H       
  60 H60            7.6943    -3.9058    -5.2098 H       
  61 H61            5.3892    -4.0117    -4.3526 H       
  62 H62            3.3471    -5.3150     5.5260 H       
  63 H63            1.8711    -5.3633     6.5197 H       
  64 H64            1.7487    -5.3570     4.7439 H       
  65 H65            3.0263    -1.8366     6.8126 H       
  66 H66            2.6172    -3.3075     7.7277 H       
  67 H67            4.0932    -3.2592     6.7340 H       
  68 H68            0.2511    -3.3601     4.8543 H       
  69 H69            0.3736    -3.3664     6.6300 H       
  70 H70            0.7827    -1.8955     5.7149 H       
@<TRIPOS>BOND
   1    1    2 1
   2    1    6 1
   3    1    7 am
   4    2    3 1
   5    2   40 1
   6    2   41 1
   7    3    4 1
   8    3   42 1
   9    3   43 1
  10    4    5 1
  11    4   10 am
  12    5    6 1
  13    5   44 1
  14    5   45 1
  15    6   46 1
  16    6   47 1
  17    7    8 2
  18    7    9 1
  19    9   36 1
  20   10   11 2
  21   10   14 1
  22   12   13 1
  23   12   20 2
  24   12   21 1
  25   13   14 2
  26   13   27 1
  27   14   15 1
  28   15   16 1
  29   15   20 1
  30   16   17 2
  31   16   48 1
  32   17   18 1
  33   17   49 1
  34   18   19 2
  35   18   50 1
  36   19   20 1
  37   19   51 1
  38   21   22 ar
  39   21   26 ar
  40   22   23 ar
  41   22   52 1
  42   23   24 ar
  43   23   53 1
  44   24   25 ar
  45   24   54 1
  46   25   26 ar
  47   25   55 1
  48   26   56 1
  49   27   28 1
  50   27   57 1
  51   27   58 1
  52   28   29 ar
  53   28   33 ar
  54   29   30 ar
  55   29   35 1
  56   30   31 ar
  57   30   59 1
  58   31   32 ar
  59   31   60 1
  60   32   33 ar
  61   32   61 1
  62   33   34 1
  63   36   37 1
  64   36   39 1
  65   36   38 1
  66   37   62 1
  67   37   63 1
  68   37   64 1
  69   38   65 1
  70   38   66 1
  71   38   67 1
  72   39   68 1
  73   39   69 1
  74   39   70 1

#	End of record

