#	Name: ASD14300007
#	Creating user name:	WinNT
#	Creation time:	15. 06. 2019 21:31

#	Modifying user name:	WinNT
#	Modification time:	15. 06. 2019 21:31

#	Program:	/corina/corina34_cracker 3.40 0067  02.08.2006

@<TRIPOS>MOLECULE
ASD14300007
  83   86    0    0    0
SMALL
NO_CHARGES


@<TRIPOS>ATOM
   1 N1             2.1191     0.5489    -0.1594 N.pl3   
   2 C2             1.3786    -0.5931    -0.1710 C.2     
   3 C3             0.0763    -0.2631    -0.0132 C.2     
   4 C4            -0.0010     1.1319     0.1010 C.2     
   5 C5             1.2709     1.6187     0.0086 C.2     
   6 C6             1.6652     3.0375     0.0775 C.ar    
   7 N7             2.9546     3.3693     0.1469 N.ar    
   8 C8             3.3080     4.6485     0.2085 C.ar    
   9 N9             2.3767     5.5976     0.2014 N.ar    
  10 C10            1.0905     5.2686     0.1321 C.ar    
  11 N11            0.7334     3.9904     0.0649 N.ar    
  12 C12            3.5122     0.6220    -0.2904 C.ar    
  13 C13            4.3315    -0.0512     0.6059 C.ar    
  14 C14            5.7044     0.0224     0.4739 C.ar    
  15 C15            6.2631     0.7660    -0.5494 C.ar    
  16 C16            5.4498     1.4379    -1.4434 C.ar    
  17 C17            4.0761     1.3631    -1.3202 C.ar    
  18 N18            0.1256     6.2556     0.1248 N.pl3   
  19 N19            4.6429     4.9925     0.2805 N.3     
  20 C20            5.4470     3.8561     0.4054 C.3     
  21 C21            7.5825     4.6878    -0.5560 C.3     
  22 C22            5.0168     5.8959    -0.8257 C.3     
  23 C23            6.1385     6.7826    -0.3461 C.3     
  24 C24            7.5146     6.2174    -0.7371 C.3     
  25 C25           -1.2934     5.8931     0.1604 C.3     
  26 C26            0.5205     7.6658     0.0816 C.3     
  27 C27            6.9148     4.2242     0.7137 C.3     
  28 C28           -1.7912     5.9224     1.6068 C.3     
  29 C29           -3.2993     5.6656     1.6325 C.3     
  30 C30           -3.8182     5.8173     3.0638 C.3     
  31 C31            0.6312     8.1199    -1.3753 C.3     
  32 C32            1.0436     9.5926    -1.4205 C.3     
  33 C33            1.1544    10.0467    -2.8773 C.3     
  34 C34            1.5668    11.5194    -2.9225 C.3     
  35 C35            1.6775    11.9735    -4.3794 C.3     
  36 C36           -5.3263     5.5606     3.0894 C.3     
  37 C37           -5.8452     5.7123     4.5207 C.3     
  38 H38            1.7658    -1.5947    -0.2867 H       
  39 H39           -0.7554    -0.9513     0.0187 H       
  40 H40           -0.9006     1.7139     0.2363 H       
  41 H41            3.8957    -0.6315     1.4058 H       
  42 H42            6.3422    -0.5010     1.1708 H       
  43 H43            7.3369     0.8223    -0.6504 H       
  44 H44            5.8891     2.0184    -2.2411 H       
  45 H45            3.4413     1.8845    -2.0214 H       
  46 H46            5.0599     3.2339     1.2123 H       
  47 H47            5.4106     3.2909    -0.5259 H       
  48 H48            7.0938     4.2106    -1.4054 H       
  49 H49            8.6283     4.3815    -0.5361 H       
  50 H50            5.3507     5.3105    -1.6824 H       
  51 H51            4.1594     6.5068    -1.1081 H       
  52 H52            6.0224     7.7728    -0.7867 H       
  53 H53            6.0846     6.8690     0.7391 H       
  54 H54            8.2788     6.6824    -0.1143 H       
  55 H55            7.7141     6.4600    -1.7808 H       
  56 H56           -1.8653     6.6047    -0.4352 H       
  57 H57           -1.4227     4.8908    -0.2481 H       
  58 H58           -0.2290     8.2688     0.5941 H       
  59 H59            1.4848     7.7883     0.5747 H       
  60 H60            6.9424     5.0244     1.4533 H       
  61 H61            7.4365     3.3493     1.1015 H       
  62 H62           -1.2813     5.1498     2.1823 H       
  63 H63           -1.5814     6.8988     2.0436 H       
  64 H64           -3.8014     6.3852     0.9858 H       
  65 H65           -3.5019     4.6551     1.2777 H       
  66 H66           -3.3161     5.0978     3.7105 H       
  67 H67           -3.6156     6.8279     3.4185 H       
  68 H68            1.3806     7.5168    -1.8879 H       
  69 H69           -0.3331     7.9973    -1.8684 H       
  70 H70            0.2942    10.1956    -0.9079 H       
  71 H71            2.0079     9.7151    -0.9274 H       
  72 H72            1.9038     9.4436    -3.3899 H       
  73 H73            0.1900     9.9241    -3.3704 H       
  74 H74            0.8173    12.1224    -2.4099 H       
  75 H75            2.5311    11.6419    -2.4294 H       
  76 H76            2.4270    11.3704    -4.8920 H       
  77 H77            0.7132    11.8509    -4.8725 H       
  78 H78            1.9713    13.0226    -4.4116 H       
  79 H79           -5.8284     6.2801     2.4427 H       
  80 H80           -5.5289     4.5500     2.7347 H       
  81 H81           -5.3431     4.9927     5.1674 H       
  82 H82           -5.6426     6.7228     4.8754 H       
  83 H83           -6.9196     5.5294     4.5390 H       
@<TRIPOS>BOND
   1    1    2 1
   2    1    5 1
   3    1   12 1
   4    2    3 2
   5    2   38 1
   6    3    4 1
   7    3   39 1
   8    4    5 2
   9    4   40 1
  10    5    6 1
  11    6    7 ar
  12    6   11 ar
  13    7    8 ar
  14    8    9 ar
  15    8   19 1
  16    9   10 ar
  17   10   11 ar
  18   10   18 1
  19   12   13 ar
  20   12   17 ar
  21   13   14 ar
  22   13   41 1
  23   14   15 ar
  24   14   42 1
  25   15   16 ar
  26   15   43 1
  27   16   17 ar
  28   16   44 1
  29   17   45 1
  30   18   25 1
  31   18   26 1
  32   19   20 1
  33   19   22 1
  34   20   27 1
  35   20   46 1
  36   20   47 1
  37   21   24 1
  38   21   27 1
  39   21   48 1
  40   21   49 1
  41   22   23 1
  42   22   50 1
  43   22   51 1
  44   23   24 1
  45   23   52 1
  46   23   53 1
  47   24   54 1
  48   24   55 1
  49   25   28 1
  50   25   56 1
  51   25   57 1
  52   26   31 1
  53   26   58 1
  54   26   59 1
  55   27   60 1
  56   27   61 1
  57   28   29 1
  58   28   62 1
  59   28   63 1
  60   29   30 1
  61   29   64 1
  62   29   65 1
  63   30   36 1
  64   30   66 1
  65   30   67 1
  66   31   32 1
  67   31   68 1
  68   31   69 1
  69   32   33 1
  70   32   70 1
  71   32   71 1
  72   33   34 1
  73   33   72 1
  74   33   73 1
  75   34   35 1
  76   34   74 1
  77   34   75 1
  78   35   76 1
  79   35   77 1
  80   35   78 1
  81   36   37 1
  82   36   79 1
  83   36   80 1
  84   37   81 1
  85   37   82 1
  86   37   83 1

#	End of record

