#	Name: ASD13490035
#	Creating user name:	WinNT
#	Creation time:	15. 06. 2019 21:30

#	Modifying user name:	WinNT
#	Modification time:	15. 06. 2019 21:30

#	Program:	/corina/corina34_cracker 3.40 0067  02.08.2006

@<TRIPOS>MOLECULE
ASD13490035
  56   60    0    0    0
SMALL
NO_CHARGES


@<TRIPOS>ATOM
   1 C1             0.0025     1.3078    -0.1630 C.ar    
   2 C2            -2.2383     1.3241    -0.7008 C.ar    
   3 N3            -1.0889     1.9625    -0.5263 N.ar    
   4 N4            -0.0036    -0.0003     0.0425 N.ar    
   5 C5            -2.2892    -0.0428    -0.4866 C.ar    
   6 C6            -1.1227    -0.7064    -0.1060 C.ar    
   7 O7            -3.4612    -0.7093    -0.6650 O.3     
   8 N8            -1.0986    -2.0709     0.1261 N.3     
   9 C9            -2.2255    -2.7607    -0.5135 C.3     
  10 C10           -3.5250    -2.0387    -0.1351 C.3     
  11 N11            1.1871     2.0107     0.0015 N.pl3   
  12 C12            1.1918     3.4063    -0.0966 C.ar    
  13 C13            2.3043     5.4433    -0.7112 C.ar    
  14 C14            1.1955     6.1720    -0.2877 C.ar    
  15 C15            0.0916     5.5137     0.2340 C.ar    
  16 C16            0.0892     4.1361     0.3299 C.ar    
  17 C17            2.3006     4.0617    -0.6149 C.ar    
  18 C18           -2.2823    -4.1881    -0.0335 C.ar    
  19 C19           -2.5839    -5.2042    -0.9209 C.ar    
  20 C20           -2.6361    -6.5136    -0.4806 C.ar    
  21 C21           -2.3861    -6.8068     0.8470 C.ar    
  22 C22           -2.0836    -5.7908     1.7341 C.ar    
  23 C23           -2.0272    -4.4819     1.2929 C.ar    
  24 N24            1.1972     7.5737    -0.3840 N.pl3   
  25 C25            2.1683     8.4072     0.0525 C.2     
  26 N26            1.8150     9.6358    -0.2124 N.2     
  27 C27            0.6196     9.6318    -0.8205 C.2     
  28 C28            0.2177     8.3519    -0.9431 C.2     
  29 C29           -0.1386    10.8466    -1.2900 C.3     
  30 O30            3.3887     6.0873    -1.2187 O.3     
  31 C31            4.4896     5.2761    -1.6336 C.3     
  32 C32            0.1826    -2.6539    -0.2942 C.3     
  33 H33           -3.1249     1.8648    -0.9975 H       
  34 H34           -2.0987    -2.7417    -1.5960 H       
  35 H35           -3.6222    -1.9989     0.9498 H       
  36 H36           -4.3777    -2.5657    -0.5632 H       
  37 H37            2.0122     1.5346     0.1846 H       
  38 H38           -0.7680     6.0789     0.5626 H       
  39 H39           -0.7710     3.6253     0.7366 H       
  40 H40            3.1595     3.4947    -0.9423 H       
  41 H41           -2.7792    -4.9751    -1.9581 H       
  42 H42           -2.8724    -7.3073    -1.1737 H       
  43 H43           -2.4276    -7.8297     1.1911 H       
  44 H44           -1.8887    -6.0199     2.7714 H       
  45 H45           -1.7872    -3.6886     1.9853 H       
  46 H46            3.0840     8.1065     0.5399 H       
  47 H47           -0.7010     8.0058    -1.3933 H       
  48 H48            0.1435    11.0762    -2.3175 H       
  49 H49           -1.2092    10.6472    -1.2431 H       
  50 H50            0.1015    11.6949    -0.6491 H       
  51 H51            5.2860     5.9135    -2.0176 H       
  52 H52            4.8602     4.7041    -0.7830 H       
  53 H53            4.1621     4.5921    -2.4165 H       
  54 H54            0.9992    -2.1414     0.2144 H       
  55 H55            0.2018    -3.7129    -0.0367 H       
  56 H56            0.2974    -2.5399    -1.3721 H       
@<TRIPOS>BOND
   1    1    4 ar
   2    1   11 1
   3    1    3 ar
   4    2    3 ar
   5    2    5 ar
   6    2   33 1
   7    4    6 ar
   8    5    6 ar
   9    5    7 1
  10    6    8 1
  11    7   10 1
  12    8    9 1
  13    8   32 1
  14    9   10 1
  15    9   18 1
  16    9   34 1
  17   10   35 1
  18   10   36 1
  19   11   12 1
  20   11   37 1
  21   12   17 ar
  22   12   16 ar
  23   13   17 ar
  24   13   14 ar
  25   13   30 1
  26   14   15 ar
  27   14   24 1
  28   15   16 ar
  29   15   38 1
  30   16   39 1
  31   17   40 1
  32   18   19 ar
  33   18   23 ar
  34   19   20 ar
  35   19   41 1
  36   20   21 ar
  37   20   42 1
  38   21   22 ar
  39   21   43 1
  40   22   23 ar
  41   22   44 1
  42   23   45 1
  43   24   25 1
  44   24   28 1
  45   25   26 2
  46   25   46 1
  47   26   27 1
  48   27   28 2
  49   27   29 1
  50   28   47 1
  51   29   48 1
  52   29   49 1
  53   29   50 1
  54   30   31 1
  55   31   51 1
  56   31   52 1
  57   31   53 1
  58   32   54 1
  59   32   55 1
  60   32   56 1

#	End of record

