#	Name: ASD13490029
#	Creating user name:	WinNT
#	Creation time:	15. 06. 2019 21:30

#	Modifying user name:	WinNT
#	Modification time:	15. 06. 2019 21:30

#	Program:	/corina/corina34_cracker 3.40 0067  02.08.2006

@<TRIPOS>MOLECULE
ASD13490029
  53   57    0    0    0
SMALL
NO_CHARGES


@<TRIPOS>ATOM
   1 C1             0.0432     1.2236    -0.0063 C.ar    
   2 C2             0.0107     0.2023     0.9402 C.ar    
   3 C3             1.1688    -0.1541     1.6152 C.ar    
   4 C4             2.3541     0.5029     1.3500 C.ar    
   5 C5             2.3895     1.5223     0.4067 C.ar    
   6 C6             1.2327     1.8815    -0.2718 C.ar    
   7 N7            -1.1949    -0.4662     1.2115 N.pl3   
   8 C8            -2.3866     0.1088     1.4901 C.2     
   9 N9            -3.2697    -0.8328     1.6851 N.2     
  10 C10           -2.6812    -2.0292     1.5398 C.2     
  11 C11           -1.3847    -1.8230     1.2376 C.2     
  12 C12           -3.3541    -3.3699     1.6839 C.3     
  13 O13           -1.0898     1.5703    -0.6727 O.3     
  14 C14           -0.9823     2.6265    -1.6293 C.3     
  15 N15            3.5914     2.1871     0.1403 N.pl3   
  16 C16            4.7926     1.4950     0.1897 C.ar    
  17 C17            5.8989    -0.5165     0.4309 C.ar    
  18 N18            4.7737     0.1846     0.3759 N.ar    
  19 N19            5.9288     2.1633     0.0437 N.ar    
  20 C20            7.1071     0.1430     0.2902 C.ar    
  21 C21            7.0906     1.5257     0.0871 C.ar    
  22 O22            8.2781    -0.5417     0.3473 O.3     
  23 N23            8.2884     2.2148    -0.0703 N.pl3   
  24 C24            9.5331     1.5183     0.2981 C.3     
  25 C25            9.4348     0.0776    -0.2230 C.3     
  26 C26            8.3105     3.5231    -0.5615 C.ar    
  27 C27            8.7000     4.5702     0.2641 C.ar    
  28 C28            8.7207     5.8617    -0.2245 C.ar    
  29 C29            8.3536     6.1133    -1.5339 C.ar    
  30 C30            7.9653     5.0732    -2.3584 C.ar    
  31 C31            7.9484     3.7786    -1.8781 C.ar    
  32 H32            1.1434    -0.9460     2.3491 H       
  33 H33            3.2548     0.2242     1.8768 H       
  34 H34            1.2603     2.6734    -1.0056 H       
  35 H35           -2.5763     1.1707     1.5430 H       
  36 H36           -0.6380    -2.5812     1.0534 H       
  37 H37           -3.7466    -3.6852     0.7171 H       
  38 H38           -2.6303    -4.1034     2.0389 H       
  39 H39           -4.1722    -3.2908     2.3998 H       
  40 H40           -0.6460     3.5355    -1.1307 H       
  41 H41           -0.2633     2.3473    -2.3995 H       
  42 H42           -1.9556     2.8022    -2.0874 H       
  43 H43            3.5847     3.1320    -0.0788 H       
  44 H44            5.8721    -1.5853     0.5835 H       
  45 H45           10.3860     2.0193    -0.1597 H       
  46 H46            9.6457     1.5120     1.3823 H       
  47 H47           10.3269    -0.4774     0.0672 H       
  48 H48            9.3457     0.0874    -1.3094 H       
  49 H49            8.9861     4.3745     1.2869 H       
  50 H50            9.0234     6.6763     0.4168 H       
  51 H51            8.3700     7.1243    -1.9132 H       
  52 H52            7.6790     5.2732    -3.3804 H       
  53 H53            7.6496     2.9662    -2.5240 H       
@<TRIPOS>BOND
   1    1    2 ar
   2    1    6 ar
   3    1   13 1
   4    2    3 ar
   5    2    7 1
   6    3    4 ar
   7    3   32 1
   8    4    5 ar
   9    4   33 1
  10    5    6 ar
  11    5   15 1
  12    6   34 1
  13    7    8 1
  14    7   11 1
  15    8    9 2
  16    8   35 1
  17    9   10 1
  18   10   11 2
  19   10   12 1
  20   11   36 1
  21   12   37 1
  22   12   38 1
  23   12   39 1
  24   13   14 1
  25   14   40 1
  26   14   41 1
  27   14   42 1
  28   15   16 1
  29   15   43 1
  30   16   19 ar
  31   16   18 ar
  32   17   18 ar
  33   17   20 ar
  34   17   44 1
  35   19   21 ar
  36   20   21 ar
  37   20   22 1
  38   21   23 1
  39   22   25 1
  40   23   24 1
  41   23   26 1
  42   24   25 1
  43   24   45 1
  44   24   46 1
  45   25   47 1
  46   25   48 1
  47   26   27 ar
  48   26   31 ar
  49   27   28 ar
  50   27   49 1
  51   28   29 ar
  52   28   50 1
  53   29   30 ar
  54   29   51 1
  55   30   31 ar
  56   30   52 1
  57   31   53 1

#	End of record

