#	Name: ASD10100011
#	Creating user name:	WinNT
#	Creation time:	15. 06. 2019 21:24

#	Modifying user name:	WinNT
#	Modification time:	15. 06. 2019 21:24

#	Program:	/corina/corina34_cracker 3.40 0067  02.08.2006

@<TRIPOS>MOLECULE
ASD10100011
  45   47    0    0    0
SMALL
NO_CHARGES


@<TRIPOS>ATOM
   1 C1             0.9435    -1.2354     1.7025 C.ar    
   2 C2             0.4805    -1.6390     0.4640 C.ar    
   3 C3             0.3243    -2.9842     0.1888 C.ar    
   4 C4             0.6318    -3.9280     1.1541 C.ar    
   5 C5             1.0954    -3.5227     2.3942 C.ar    
   6 C6             1.2508    -2.1769     2.6671 C.ar    
   7 S7             1.1491     0.4798     2.0494 S.o2    
   8 O8             2.1070     0.5656     3.0955 O.2     
   9 O9             1.3087     1.1267     0.7943 O.2     
  10 N10           -0.2813     1.0274     2.6791 N.am    
  11 C11           -0.4990     1.0083     4.1277 C.3     
  12 F12            0.4790    -5.2434     0.8864 F       
  13 C13           -3.2543     2.4315     0.1596 C.2     
  14 N14           -3.3064     1.1611     0.5990 N.am    
  15 C15           -2.3521     0.6789     1.4192 C.2     
  16 C16           -1.2928     1.5135     1.8184 C.2     
  17 C17           -1.2556     2.8031     1.3620 C.2     
  18 N18           -2.2524     3.2519     0.5256 N.am    
  19 O19           -2.4070    -0.4740     1.8133 O.2     
  20 O20           -4.1238     2.8437    -0.5840 O.2     
  21 C21           -2.2221     4.6304     0.0307 C.3     
  22 C22           -2.9681     5.5242     0.9877 C.ar    
  23 C23           -2.2971     6.1298     2.0336 C.ar    
  24 C24           -2.9814     6.9496     2.9114 C.ar    
  25 C25           -4.3365     7.1642     2.7431 C.ar    
  26 C26           -5.0074     6.5593     1.6967 C.ar    
  27 C27           -4.3222     5.7429     0.8163 C.ar    
  28 N28           -0.2313     3.6429     1.7352 N.pl3   
  29 H29            0.2404    -0.9026    -0.2887 H       
  30 H30           -0.0378    -3.2992    -0.7787 H       
  31 H31            1.3355    -4.2580     3.1479 H       
  32 H32            1.6125    -1.8605     3.6343 H       
  33 H33           -1.2373     1.7646     4.3942 H       
  34 H34           -0.8615     0.0251     4.4277 H       
  35 H35            0.4399     1.2210     4.6390 H       
  36 H36           -4.0378     0.5869     0.3230 H       
  37 H37           -1.1879     4.9655    -0.0482 H       
  38 H38           -2.6943     4.6746    -0.9507 H       
  39 H39           -1.2383     5.9621     2.1651 H       
  40 H40           -2.4573     7.4222     3.7290 H       
  41 H41           -4.8713     7.8041     3.4293 H       
  42 H42           -6.0662     6.7266     1.5653 H       
  43 H43           -4.8456     5.2733    -0.0034 H       
  44 H44            0.4804     3.3154     2.3072 H       
  45 H45           -0.2209     4.5623     1.4263 H       
@<TRIPOS>BOND
   1    1    2 ar
   2    1    6 ar
   3    1    7 1
   4    2    3 ar
   5    2   29 1
   6    3    4 ar
   7    3   30 1
   8    4    5 ar
   9    4   12 1
  10    5    6 ar
  11    5   31 1
  12    6   32 1
  13    7    8 2
  14    7    9 2
  15    7   10 am
  16   10   11 1
  17   10   16 1
  18   11   33 1
  19   11   34 1
  20   11   35 1
  21   13   14 am
  22   13   18 am
  23   13   20 2
  24   14   15 am
  25   14   36 1
  26   15   16 1
  27   15   19 2
  28   16   17 2
  29   17   18 1
  30   17   28 1
  31   18   21 1
  32   21   22 1
  33   21   37 1
  34   21   38 1
  35   22   23 ar
  36   22   27 ar
  37   23   24 ar
  38   23   39 1
  39   24   25 ar
  40   24   40 1
  41   25   26 ar
  42   25   41 1
  43   26   27 ar
  44   26   42 1
  45   27   43 1
  46   28   44 1
  47   28   45 1

#	End of record

