#	Name: ASD10410233
#	Creating user name:	WinNT
#	Creation time:	15. 06. 2019 21:27

#	Modifying user name:	WinNT
#	Modification time:	15. 06. 2019 21:27

#	Program:	/corina/corina34_cracker 3.40 0067  02.08.2006

@<TRIPOS>MOLECULE
ASD10410233
  55   59    0    0    0
SMALL
NO_CHARGES


@<TRIPOS>ATOM
   1 C1             0.0476     1.1393     0.2466 C.ar    
   2 C2             0.1828    -0.1895     0.6208 C.ar    
   3 C3             1.4456    -0.7441     0.7692 C.ar    
   4 C4             2.5693     0.0266     0.5449 C.ar    
   5 C5             2.4349     1.3571     0.1703 C.ar    
   6 C6             1.1702     1.9114     0.0215 C.ar    
   7 O7            -0.9233    -0.9490     0.8427 O.3     
   8 N8             3.5734     2.1392    -0.0568 N.pl3   
   9 C9             4.7333     1.5521    -0.5602 C.2     
  10 N10            5.8857     2.1581    -0.7160 N.2     
  11 N11            4.8492     0.2788    -0.9560 N.2     
  12 C12            6.0758     0.0540    -1.3750 C.2     
  13 N13            6.7786     1.2124    -1.2457 N.pl3   
  14 C14            8.1120     1.4179    -1.5718 C.ar    
  15 N15            6.5640    -1.1443    -1.8572 N.pl3   
  16 C16            8.5067     2.5338    -2.3460 C.ar    
  17 C17           -0.7102    -2.3092     1.2252 C.3     
  18 C18           -2.0605    -2.9992     1.4292 C.3     
  19 N19           -2.7761    -3.0633     0.1479 N.3     
  20 C20           -3.9678    -3.9254     0.2508 C.3     
  21 C21           -5.1856    -3.0736    -0.1647 C.3     
  22 C22           -4.5489    -1.9485    -1.0225 C.3     
  23 C23           -3.2051    -1.7171    -0.2874 C.3     
  24 N24            9.0502     0.5769    -1.1616 N.ar    
  25 C25           10.3252     0.7614    -1.4651 C.ar    
  26 N26           10.7486     1.7743    -2.1832 N.ar    
  27 C27            9.8833     2.6881    -2.6450 C.ar    
  28 C28           10.3001     3.7830    -3.4150 C.ar    
  29 C29            9.3788     4.6832    -3.8596 C.ar    
  30 C30            8.0250     4.5335    -3.5603 C.ar    
  31 C31            7.5848     3.4761    -2.8169 C.ar    
  32 F32            7.1368     5.4439    -4.0158 F       
  33 H33           -0.9360     1.5690     0.1269 H       
  34 H34            1.5499    -1.7788     1.0606 H       
  35 H35            3.5524    -0.4052     0.6612 H       
  36 H36            1.0648     2.9459    -0.2701 H       
  37 H37            3.5553     3.0896     0.1362 H       
  38 H38            5.9826    -1.9189    -1.9098 H       
  39 H39            7.4884    -1.2114    -2.1434 H       
  40 H40           -0.1538    -2.8240     0.4420 H       
  41 H41           -0.1421    -2.3405     2.1550 H       
  42 H42           -1.8992    -4.0091     1.8062 H       
  43 H43           -2.6528    -2.4332     2.1482 H       
  44 H44           -3.8666    -4.7793    -0.4191 H       
  45 H45           -4.0890    -4.2694     1.2779 H       
  46 H46           -5.8836    -3.6632    -0.7591 H       
  47 H47           -5.6811    -2.6562     0.7118 H       
  48 H48           -4.3813    -2.2850    -2.0456 H       
  49 H49           -5.1637    -1.0487    -1.0048 H       
  50 H50           -3.3518    -1.0680     0.5759 H       
  51 H51           -2.4701    -1.2858    -0.9670 H       
  52 H52           11.0497     0.0459    -1.1050 H       
  53 H53           11.3453     3.9124    -3.6542 H       
  54 H54            9.7022     5.5259    -4.4527 H       
  55 H55            6.5341     3.3694    -2.5911 H       
@<TRIPOS>BOND
   1    1    2 ar
   2    1    6 ar
   3    1   33 1
   4    2    3 ar
   5    2    7 1
   6    3    4 ar
   7    3   34 1
   8    4    5 ar
   9    4   35 1
  10    5    6 ar
  11    5    8 1
  12    6   36 1
  13    7   17 1
  14    8    9 1
  15    8   37 1
  16    9   10 2
  17    9   11 1
  18   10   13 1
  19   11   12 2
  20   12   13 1
  21   12   15 1
  22   13   14 1
  23   14   16 ar
  24   14   24 ar
  25   15   38 1
  26   15   39 1
  27   16   27 ar
  28   16   31 ar
  29   17   18 1
  30   17   40 1
  31   17   41 1
  32   18   19 1
  33   18   42 1
  34   18   43 1
  35   19   20 1
  36   19   23 1
  37   20   21 1
  38   20   44 1
  39   20   45 1
  40   21   22 1
  41   21   46 1
  42   21   47 1
  43   22   23 1
  44   22   48 1
  45   22   49 1
  46   23   50 1
  47   23   51 1
  48   24   25 ar
  49   25   26 ar
  50   25   52 1
  51   26   27 ar
  52   27   28 ar
  53   28   29 ar
  54   28   53 1
  55   29   30 ar
  56   29   54 1
  57   30   31 ar
  58   30   32 1
  59   31   55 1

#	End of record

