#	Name: ASD10410148
#	Creating user name:	WinNT
#	Creation time:	15. 06. 2019 21:27

#	Modifying user name:	WinNT
#	Modification time:	15. 06. 2019 21:27

#	Program:	/corina/corina34_cracker 3.40 0067  02.08.2006

@<TRIPOS>MOLECULE
ASD10410148
  77   83    0    0    0
SMALL
NO_CHARGES


@<TRIPOS>ATOM
   1 C1             0.1422     1.0626     0.4722 C.ar    
   2 C2             0.2214    -0.3155     0.3200 C.ar    
   3 C3             1.4547    -0.9226     0.1225 C.ar    
   4 C4             2.6022    -0.1559     0.0770 C.ar    
   5 C5             2.5229     1.2223     0.2289 C.ar    
   6 C6             1.2896     1.8293     0.4269 C.ar    
   7 N7             3.6868     1.9998     0.1832 N.pl3   
   8 C8             3.6388     3.2889    -0.3198 C.2     
   9 N9             4.6702     4.1806    -0.3247 N.pl3   
  10 N10            2.5944     3.8560    -0.8772 N.2     
  11 C11            2.9096     5.1108    -1.2479 C.2     
  12 C12            4.1974     5.3401    -0.9155 C.2     
  13 N13            2.0478     6.0233    -1.8759 N.pl3   
  14 N14           -0.9417    -1.0926     0.3660 N.3     
  15 C15           -0.6307    -2.5173     0.1836 C.3     
  16 C16           -1.9151    -3.3385     0.3195 C.3     
  17 N17           -2.8923    -2.8836    -0.6794 N.3     
  18 C18           -3.2033    -1.4589    -0.4969 C.3     
  19 C19           -1.9189    -0.6377    -0.6328 C.3     
  20 C20           -4.1131    -3.6992    -0.6310 C.3     
  21 C21            5.9583     3.9657     0.1725 C.ar    
  22 N22            6.2772     2.8044     0.7153 N.ar    
  23 C23           -5.1280    -3.2136    -1.6911 C.3     
  24 C24           -5.3311    -4.4395    -2.6331 C.3     
  25 C25           -3.7986    -5.1727    -1.0324 C.3     
  26 C26           -5.1092    -5.9534    -0.7100 C.3     
  27 C27           -6.1241    -5.4678    -1.7700 C.3     
  28 C28           -3.8964    -5.0748    -2.5958 C.3     
  29 N29            7.4449     2.5611     1.1844 N.ar    
  30 C30            8.4200     3.4387     1.1667 C.ar    
  31 C31            8.2009     4.7193     0.6109 C.ar    
  32 C32            6.9252     4.9799     0.0939 C.ar    
  33 C33            9.0854     5.8567     0.4656 C.2     
  34 C34            8.5403     6.9135    -0.1106 C.2     
  35 S35            6.8668     6.6144    -0.5429 S.3     
  36 C36            9.2651     8.2096    -0.3671 C.3     
  37 C37           10.4687     7.9497    -1.2753 C.3     
  38 C38            8.3166     9.1983    -1.0479 C.3     
  39 C39            9.7460     8.7965     0.9615 C.3     
  40 H40           -0.8174     1.5351     0.6217 H       
  41 H41            1.5164    -1.9944     0.0048 H       
  42 H42            3.5613    -0.6281    -0.0762 H       
  43 H43            1.2280     2.9010     0.5449 H       
  44 H44            4.5265     1.6353     0.5040 H       
  45 H45            4.7522     6.2522    -1.0789 H       
  46 H46            1.1345     5.7672    -2.0786 H       
  47 H47            2.3655     6.9102    -2.1071 H       
  48 H48           -0.2032    -2.6722    -0.8070 H       
  49 H49            0.0850    -2.8333     0.9425 H       
  50 H50           -1.6917    -4.3927     0.1558 H       
  51 H51           -2.3281    -3.2049     1.3194 H       
  52 H52           -3.9190    -1.1428    -1.2558 H       
  53 H53           -3.6308    -1.3040     0.4937 H       
  54 H54           -2.1423     0.4165    -0.4692 H       
  55 H55           -1.5059    -0.7713    -1.6327 H       
  56 H56           -4.5557    -3.6608     0.3643 H       
  57 H57           -6.0702    -2.9384    -1.2171 H       
  58 H58           -4.7211    -2.3696    -2.2481 H       
  59 H59           -5.7476    -4.2210    -3.6164 H       
  60 H60           -2.8805    -5.5928    -0.6216 H       
  61 H61           -4.9452    -7.0268    -0.8046 H       
  62 H62           -5.4605    -5.7087     0.2925 H       
  63 H63           -6.9743    -4.9844    -1.2887 H       
  64 H64           -6.4591    -6.3025    -2.3858 H       
  65 H65           -3.8715    -6.0563    -3.0692 H       
  66 H66           -3.1424    -4.4063    -3.0114 H       
  67 H67            9.3865     3.1834     1.5757 H       
  68 H68           10.1114     5.8425     0.8025 H       
  69 H69           10.1261     7.5316    -2.2218 H       
  70 H70           10.9930     8.8872    -1.4608 H       
  71 H71           11.1445     7.2453    -0.7902 H       
  72 H72            7.4591     9.3835    -0.4009 H       
  73 H73            8.8409    10.1358    -1.2334 H       
  74 H74            7.9740     8.7802    -1.9944 H       
  75 H75           10.4218     8.0921     1.4465 H       
  76 H76           10.2703     9.7340     0.7760 H       
  77 H77            8.8886     8.9816     1.6085 H       
@<TRIPOS>BOND
   1    1    2 ar
   2    1    6 ar
   3    1   40 1
   4    2    3 ar
   5    2   14 1
   6    3    4 ar
   7    3   41 1
   8    4    5 ar
   9    4   42 1
  10    5    6 ar
  11    5    7 1
  12    6   43 1
  13    7    8 1
  14    7   44 1
  15    8    9 1
  16    8   10 2
  17    9   21 1
  18    9   12 1
  19   10   11 1
  20   11   12 2
  21   11   13 1
  22   12   45 1
  23   13   46 1
  24   13   47 1
  25   14   15 1
  26   14   19 1
  27   15   16 1
  28   15   48 1
  29   15   49 1
  30   16   17 1
  31   16   50 1
  32   16   51 1
  33   17   18 1
  34   17   20 1
  35   18   19 1
  36   18   52 1
  37   18   53 1
  38   19   54 1
  39   19   55 1
  40   20   23 1
  41   20   25 1
  42   20   56 1
  43   21   22 ar
  44   21   32 ar
  45   22   29 ar
  46   23   24 1
  47   23   57 1
  48   23   58 1
  49   24   27 1
  50   24   28 1
  51   24   59 1
  52   25   26 1
  53   25   28 1
  54   25   60 1
  55   26   27 1
  56   26   61 1
  57   26   62 1
  58   27   63 1
  59   27   64 1
  60   28   65 1
  61   28   66 1
  62   29   30 ar
  63   30   31 ar
  64   30   67 1
  65   31   32 ar
  66   31   33 1
  67   32   35 1
  68   33   34 2
  69   33   68 1
  70   34   35 1
  71   34   36 1
  72   36   37 1
  73   36   38 1
  74   36   39 1
  75   37   69 1
  76   37   70 1
  77   37   71 1
  78   38   72 1
  79   38   73 1
  80   38   74 1
  81   39   75 1
  82   39   76 1
  83   39   77 1

#	End of record

