#	Name: ASD13490062
#	Creating user name:	WinNT
#	Creation time:	15. 06. 2019 21:30

#	Modifying user name:	WinNT
#	Modification time:	15. 06. 2019 21:30

#	Program:	/corina/corina34_cracker 3.40 0067  02.08.2006

@<TRIPOS>MOLECULE
ASD13490062
  59   63    0    0    0
SMALL
NO_CHARGES


@<TRIPOS>ATOM
   1 C1            -0.0155     1.4973     0.0129 C.2     
   2 C2             0.0070    -0.0057     0.0047 C.3     
   3 C3             0.2476    -0.5314    -1.4101 C.3     
   4 N4             1.1381     2.1894     0.0030 N.am    
   5 C5             1.3493     0.2929    -2.0817 C.3     
   6 C6             2.3441     1.4862    -0.1194 C.ar    
   7 C7             2.4816     0.5350    -1.1200 C.ar    
   8 C8             3.3934     1.7349     0.7532 C.ar    
   9 C9             3.6606    -0.1785    -1.2349 C.ar    
  10 C10            4.7055     0.0679    -0.3588 C.ar    
  11 C11            4.5726     1.0244     0.6302 C.ar    
  12 O12           -1.0753     2.0869     0.0235 O.2     
  13 C13            1.1336     3.6499     0.1175 C.3     
  14 C14            1.1822     4.2711    -1.2798 C.3     
  15 N15           -1.2774    -0.5108     0.4960 N.pl3   
  16 N16           -1.4470    -1.5725     1.2026 N.2     
  17 N17           -2.6934    -1.7396     1.4719 N.2     
  18 C18           -3.3952    -0.7360     0.9155 C.2     
  19 C19           -2.4840     0.0634     0.2881 C.2     
  20 C20           -4.8647    -0.5353     0.9764 C.ar    
  21 C21           -5.6647    -1.4437     1.6665 C.ar    
  22 C22           -7.0338    -1.2537     1.7213 C.ar    
  23 C23           -7.6099    -0.1547     1.0865 C.ar    
  24 C24           -6.8116     0.7483     0.3995 C.ar    
  25 C25           -5.4447     0.5648     0.3483 C.ar    
  26 N26           -8.9988     0.0382     1.1419 N.pl3   
  27 C27           -9.6474     1.1942     1.4906 C.2     
  28 C28          -10.9677     0.9401     1.4107 C.2     
  29 N29          -11.1260    -0.3343     1.0243 N.2     
  30 C30           -9.9538    -0.8833     0.8544 C.2     
  31 C31          -12.0754     1.9186     1.7047 C.3     
  32 F32            3.7934    -1.1148    -2.1998 F       
  33 F33            0.1271     3.7701    -2.0498 F       
  34 F34            1.0648     5.6614    -1.1764 F       
  35 F35            2.3990     3.9500    -1.8909 F       
  36 O36           -7.8170    -2.1386     2.3935 O.3     
  37 C37           -7.1591    -3.2418     3.0198 C.3     
  38 H38            0.8048    -0.3569     0.6592 H       
  39 H39            0.5539    -1.5763    -1.3621 H       
  40 H40           -0.6720    -0.4489    -1.9894 H       
  41 H41            1.7239    -0.2465    -2.9516 H       
  42 H42            0.9384     1.2499    -2.4034 H       
  43 H43            3.2893     2.4817     1.5264 H       
  44 H44            5.6264    -0.4890    -0.4489 H       
  45 H45            5.3913     1.2168     1.3078 H       
  46 H46            0.2252     3.9716     0.6268 H       
  47 H47            2.0041     3.9722     0.6889 H       
  48 H48           -2.6859     0.9695    -0.2638 H       
  49 H49           -5.2166    -2.2949     2.1575 H       
  50 H50           -7.2601     1.5988    -0.0923 H       
  51 H51           -4.8248     1.2719    -0.1827 H       
  52 H52           -9.1880     2.1292     1.7754 H       
  53 H53           -9.7738    -1.9008     0.5402 H       
  54 H54          -12.3403     2.4525     0.7921 H       
  55 H55          -12.9470     1.3799     2.0765 H       
  56 H56          -11.7402     2.6313     2.4582 H       
  57 H57           -6.6354    -3.8286     2.2652 H       
  58 H58           -6.4428    -2.8694     3.7522 H       
  59 H59           -7.8973    -3.8688     3.5199 H       
@<TRIPOS>BOND
   1    1    2 1
   2    1    4 am
   3    1   12 2
   4    2    3 1
   5    2   15 1
   6    2   38 1
   7    3    5 1
   8    3   39 1
   9    3   40 1
  10    4    6 1
  11    4   13 1
  12    5    7 1
  13    5   41 1
  14    5   42 1
  15    6    7 ar
  16    6    8 ar
  17    7    9 ar
  18    8   11 ar
  19    8   43 1
  20    9   10 ar
  21    9   32 1
  22   10   11 ar
  23   10   44 1
  24   11   45 1
  25   13   14 1
  26   13   46 1
  27   13   47 1
  28   14   33 1
  29   14   34 1
  30   14   35 1
  31   15   16 1
  32   15   19 1
  33   16   17 2
  34   17   18 1
  35   18   19 2
  36   18   20 1
  37   19   48 1
  38   20   21 ar
  39   20   25 ar
  40   21   22 ar
  41   21   49 1
  42   22   23 ar
  43   22   36 1
  44   23   24 ar
  45   23   26 1
  46   24   25 ar
  47   24   50 1
  48   25   51 1
  49   26   27 1
  50   26   30 1
  51   27   28 2
  52   27   52 1
  53   28   29 1
  54   28   31 1
  55   29   30 2
  56   30   53 1
  57   31   54 1
  58   31   55 1
  59   31   56 1
  60   36   37 1
  61   37   57 1
  62   37   58 1
  63   37   59 1

#	End of record

