#	Name: ASD15500002
#	Creating user name:	WinNT
#	Creation time:	15. 06. 2019 21:31

#	Modifying user name:	WinNT
#	Modification time:	15. 06. 2019 21:31

#	Program:	/corina/corina34_cracker 3.40 0067  02.08.2006

@<TRIPOS>MOLECULE
ASD15500002
  54   57    0    0    0
SMALL
NO_CHARGES


@<TRIPOS>ATOM
   1 C1             0.0876     1.2733     0.5869 C.2     
   2 C2             1.1177     1.2097    -0.2809 C.2     
   3 C3             2.2361     0.5604     0.1986 C.2     
   4 C4             2.1289     0.0945     1.4466 C.2     
   5 S5             0.5375     0.4775     2.0896 S.3     
   6 C6            -1.2152     1.9174     0.3193 C.2     
   7 C7             1.0520     1.8010    -1.6655 C.3     
   8 C8            -2.2480     1.1837    -0.1311 C.2     
   9 C9            -1.3829     3.3680     0.5466 C.2     
  10 C10           -0.4132     4.2084     0.9608 C.2     
  11 C11           -0.8102     5.5218     1.1017 C.2     
  12 C12           -2.0917     5.7607     0.8072 C.2     
  13 S13           -2.8763     4.2669     0.3116 S.3     
  14 C14           -2.0475    -0.2708    -0.4707 C.3     
  15 C15           -3.0589    -1.1192     0.3028 C.3     
  16 N16           -2.8635    -2.5370    -0.0282 N.3     
  17 C17           -3.5353    -3.4033     0.9495 C.3     
  18 C18            0.9932     3.7490     1.2475 C.3     
  19 C19           -5.0573    -3.2452     0.8219 C.3     
  20 C20           -5.7551    -4.3376     1.6367 C.3     
  21 C21           -5.5412    -5.7007     0.9656 C.3     
  22 C22           -4.0713    -5.8629     0.6816 C.2     
  23 C23           -3.1879    -4.8377     0.6778 C.2     
  24 O24           -3.3774    -6.9635     0.3948 O.3     
  25 N25           -2.2008    -6.7148     0.2255 N.2     
  26 C26           -1.9521    -5.4358     0.3726 C.2     
  27 O27           -0.7504    -4.8166     0.2534 O.3     
  28 C28           -3.3238    -2.8273    -1.3927 C.3     
  29 H29            3.1324     0.4372    -0.3912 H       
  30 H30            2.9029    -0.4375     1.9798 H       
  31 H31            1.3086     2.8595    -1.6212 H       
  32 H32            1.7571     1.2831    -2.3156 H       
  33 H33            0.0426     1.6882    -2.0612 H       
  34 H34           -3.2212     1.6367    -0.2494 H       
  35 H35           -0.1352     6.2999     1.4265 H       
  36 H36           -2.5719     6.7265     0.8610 H       
  37 H37           -2.1934    -0.4174    -1.5409 H       
  38 H38           -1.0362    -0.5717    -0.1972 H       
  39 H39           -2.9130    -0.9725     1.3730 H       
  40 H40           -4.0702    -0.8182     0.0294 H       
  41 H41           -3.2209    -3.1328     1.9575 H       
  42 H42            1.5527     3.6873     0.3141 H       
  43 H43            1.4786     4.4602     1.9158 H       
  44 H44            0.9654     2.7671     1.7200 H       
  45 H45           -5.3536    -2.2661     1.1983 H       
  46 H46           -5.3450    -3.3337    -0.2257 H       
  47 H47           -5.3392    -4.3601     2.6440 H       
  48 H48           -6.8225    -4.1236     1.6907 H       
  49 H49           -5.8764    -6.4951     1.6325 H       
  50 H50           -6.1026    -5.7427     0.0322 H       
  51 H51           -0.2511    -4.7645     1.0799 H       
  52 H52           -2.7605    -2.2217    -2.1027 H       
  53 H53           -3.1676    -3.8835    -1.6118 H       
  54 H54           -4.3848    -2.5919    -1.4760 H       
@<TRIPOS>BOND
   1    1    2 2
   2    1    5 1
   3    1    6 1
   4    2    3 1
   5    2    7 1
   6    3    4 2
   7    3   29 1
   8    4    5 1
   9    4   30 1
  10    6    8 2
  11    6    9 1
  12    7   31 1
  13    7   32 1
  14    7   33 1
  15    8   14 1
  16    8   34 1
  17    9   10 2
  18    9   13 1
  19   10   11 1
  20   10   18 1
  21   11   12 2
  22   11   35 1
  23   12   13 1
  24   12   36 1
  25   14   15 1
  26   14   37 1
  27   14   38 1
  28   15   16 1
  29   15   39 1
  30   15   40 1
  31   16   17 1
  32   16   28 1
  33   17   19 1
  34   17   23 1
  35   17   41 1
  36   18   42 1
  37   18   43 1
  38   18   44 1
  39   19   20 1
  40   19   45 1
  41   19   46 1
  42   20   21 1
  43   20   47 1
  44   20   48 1
  45   21   22 1
  46   21   49 1
  47   21   50 1
  48   22   24 1
  49   22   23 2
  50   23   26 1
  51   24   25 1
  52   25   26 2
  53   26   27 1
  54   27   51 1
  55   28   52 1
  56   28   53 1
  57   28   54 1

#	End of record

