#	Name: ASD10950012
#	Creating user name:	WinNT
#	Creation time:	15. 06. 2019 21:28

#	Modifying user name:	WinNT
#	Modification time:	15. 06. 2019 21:28

#	Program:	/corina/corina34_cracker 3.40 0067  02.08.2006

@<TRIPOS>MOLECULE
ASD10950012
  59   63    0    0    0
SMALL
NO_CHARGES


@<TRIPOS>ATOM
   1 C1             0.6929     1.3526    -2.2017 C.3     
   2 O2             0.5981    -0.0467    -1.8259 O.3     
   3 C3             1.1166    -0.3959    -0.6326 C.2     
   4 O4             1.6337     0.4455     0.0747 O.2     
   5 C5             1.0563    -1.8022    -0.1841 C.ar    
   6 C6             1.5927    -2.1676     1.0522 C.ar    
   7 C7             1.5330    -3.4826     1.4648 C.ar    
   8 C8             0.9433    -4.4384     0.6567 C.ar    
   9 C9             0.4098    -4.0832    -0.5696 C.ar    
  10 C10            0.4575    -2.7709    -0.9920 C.ar    
  11 C11            0.8822    -5.8731     1.1139 C.3     
  12 N12           -0.4735    -6.4041     0.9299 N.am    
  13 C13           -1.6927    -5.8922     1.5605 C.3     
  14 C14           -2.3169    -4.8184     0.6670 C.3     
  15 C15           -3.5710    -4.2918     1.3157 C.2     
  16 C16           -4.8257    -4.7091     1.0838 C.2     
  17 N17           -5.7036    -3.9995     1.8571 N.pl3   
  18 C18           -5.0179    -3.0852     2.6249 C.ar    
  19 C19           -3.6517    -3.2319     2.3236 C.ar    
  20 C20           -2.7072    -2.4250     2.9612 C.ar    
  21 C21           -3.1157    -1.4959     3.8758 C.ar    
  22 C22           -4.4628    -1.3475     4.1770 C.ar    
  23 C23           -5.4110    -2.1353     3.5623 C.ar    
  24 C24           -0.3988    -7.4436     0.0791 C.2     
  25 O25           -1.3439    -8.1120    -0.2899 O.2     
  26 C26            1.0032    -7.6520    -0.3408 C.2     
  27 C27            1.7894    -6.7291     0.2613 C.2     
  28 C28            3.2410    -6.5873     0.1140 C.2     
  29 O29            3.7145    -6.2592    -0.9576 O.2     
  30 C30            4.1296    -6.8429     1.2678 C.ar    
  31 C31            5.5142    -6.6663     1.1533 C.ar    
  32 C32            6.3013    -6.9185     2.2629 C.ar    
  33 C33            5.7017    -7.3330     3.4386 C.ar    
  34 N34            4.3939    -7.4911     3.5178 N.ar    
  35 C35            3.6020    -7.2589     2.4921 C.ar    
  36 O36            1.4324    -8.6128    -1.1908 O.3     
  37 H37            1.7413     1.6483    -2.2400 H       
  38 H38            0.2386     1.4971    -3.1819 H       
  39 H39            0.1700     1.9628    -1.4653 H       
  40 H40            2.0535    -1.4226     1.6838 H       
  41 H41            1.9478    -3.7667     2.4206 H       
  42 H42           -0.0488    -4.8344    -1.1957 H       
  43 H43            0.0407    -2.4949    -1.9493 H       
  44 H44            1.1738    -5.9448     2.1618 H       
  45 H45           -2.4018    -6.7088     1.6966 H       
  46 H46           -1.4462    -5.4597     2.5302 H       
  47 H47           -1.6078    -4.0018     0.5309 H       
  48 H48           -2.5634    -5.2509    -0.3027 H       
  49 H49           -5.1013    -5.4888     0.3892 H       
  50 H50           -6.6658    -4.1222     1.8632 H       
  51 H51           -1.6575    -2.5352     2.7325 H       
  52 H52           -2.3847    -0.8720     4.3687 H       
  53 H53           -4.7702    -0.6089     4.9025 H       
  54 H54           -6.4565    -2.0123     3.8034 H       
  55 H55            5.9561    -6.3420     0.2227 H       
  56 H56            7.3728    -6.7935     2.2115 H       
  57 H57            6.3140    -7.5309     4.3060 H       
  58 H58            2.5362    -7.3993     2.5958 H       
  59 H59            0.7284    -9.1853    -1.5251 H       
@<TRIPOS>BOND
   1    1    2 1
   2    1   37 1
   3    1   38 1
   4    1   39 1
   5    2    3 1
   6    3    4 2
   7    3    5 1
   8    5    6 ar
   9    5   10 ar
  10    6    7 ar
  11    6   40 1
  12    7    8 ar
  13    7   41 1
  14    8    9 ar
  15    8   11 1
  16    9   10 ar
  17    9   42 1
  18   10   43 1
  19   11   12 1
  20   11   27 1
  21   11   44 1
  22   12   13 1
  23   12   24 am
  24   13   14 1
  25   13   45 1
  26   13   46 1
  27   14   15 1
  28   14   47 1
  29   14   48 1
  30   15   16 2
  31   15   19 1
  32   16   17 1
  33   16   49 1
  34   17   18 1
  35   17   50 1
  36   18   19 ar
  37   18   23 ar
  38   19   20 ar
  39   20   21 ar
  40   20   51 1
  41   21   22 ar
  42   21   52 1
  43   22   23 ar
  44   22   53 1
  45   23   54 1
  46   24   25 2
  47   24   26 1
  48   26   27 2
  49   26   36 1
  50   27   28 1
  51   28   29 2
  52   28   30 1
  53   30   31 ar
  54   30   35 ar
  55   31   32 ar
  56   31   55 1
  57   32   33 ar
  58   32   56 1
  59   33   34 ar
  60   33   57 1
  61   34   35 ar
  62   35   58 1
  63   36   59 1

#	End of record

