#	Name: ASD10160293
#	Creating user name:	WinNT
#	Creation time:	15. 06. 2019 21:25

#	Modifying user name:	WinNT
#	Modification time:	15. 06. 2019 21:25

#	Program:	/corina/corina34_cracker 3.40 0067  02.08.2006

@<TRIPOS>MOLECULE
ASD10160293
  26   27    0    0    0
SMALL
NO_CHARGES


@<TRIPOS>ATOM
   1 C1            -0.0159     1.3201     0.0093 C.ar    
   2 N2             0.0021    -0.0041     0.0020 N.ar    
   3 C3             1.1476    -0.6659    -0.0125 C.ar    
   4 C4             2.3410     0.0470    -0.0200 C.ar    
   5 C5             2.2828     1.4359    -0.0120 C.ar    
   6 N6             1.1013     2.0310     0.0025 N.ar    
   7 O7             3.5377    -0.5994    -0.0344 O.3     
   8 N8            -1.2357     1.9790     0.0186 N.3     
   9 C9            -1.0472     3.4353     0.0256 C.3     
  10 C10           -2.4052     4.1275    -0.1110 C.3     
  11 C11           -3.3072     3.7052     1.0521 C.3     
  12 C12           -3.4480     2.1805     1.0509 C.3     
  13 C13           -2.0598     1.5448     1.1539 C.3     
  14 H14            1.1554    -1.7458    -0.0180 H       
  15 H15            3.1903     2.0215    -0.0171 H       
  16 H16            3.8755    -0.7819    -0.9220 H       
  17 H17           -0.5788     3.7363     0.9627 H       
  18 H18           -0.4075     3.7227    -0.8088 H       
  19 H19           -2.2665     5.2084    -0.0900 H       
  20 H20           -2.8681     3.8376    -1.0543 H       
  21 H21           -2.8634     4.0293     1.9934 H       
  22 H22           -4.2900     4.1619     0.9353 H       
  23 H23           -4.0543     1.8704     1.9020 H       
  24 H24           -3.9274     1.8600     0.1259 H       
  25 H25           -2.1555     0.4591     1.1389 H       
  26 H26           -1.5866     1.8547     2.0856 H       
@<TRIPOS>BOND
   1    1    2 ar
   2    1    6 ar
   3    1    8 1
   4    2    3 ar
   5    3    4 ar
   6    3   14 1
   7    4    5 ar
   8    4    7 1
   9    5    6 ar
  10    5   15 1
  11    7   16 1
  12    8    9 1
  13    8   13 1
  14    9   10 1
  15    9   17 1
  16    9   18 1
  17   10   11 1
  18   10   19 1
  19   10   20 1
  20   11   12 1
  21   11   21 1
  22   11   22 1
  23   12   13 1
  24   12   23 1
  25   12   24 1
  26   13   25 1
  27   13   26 1

#	End of record

