#	Name: ASD15500003
#	Creating user name:	WinNT
#	Creation time:	15. 06. 2019 21:31

#	Modifying user name:	WinNT
#	Modification time:	15. 06. 2019 21:31

#	Program:	/corina/corina34_cracker 3.40 0067  02.08.2006

@<TRIPOS>MOLECULE
ASD15500003
  54   56    0    0    0
SMALL
NO_CHARGES


@<TRIPOS>ATOM
   1 C1            -0.3157     1.2090    -0.0102 C.2     
   2 C2             0.7617     1.1314    -0.8173 C.2     
   3 C3             1.9009     0.6423    -0.2126 C.2     
   4 C4             1.7637     0.3207     1.0772 C.2     
   5 S5             0.1143     0.6392     1.5974 S.3     
   6 C6            -1.6494     1.7022    -0.4123 C.2     
   7 C7             0.7241     1.5459    -2.2657 C.3     
   8 C8            -2.5955     0.8337    -0.8103 C.2     
   9 C9            -1.9433     3.1500    -0.3770 C.2     
  10 C10           -1.0681     4.1139    -0.0261 C.2     
  11 C11           -1.5745     5.3962    -0.0701 C.2     
  12 C12           -2.8517     5.4877    -0.4526 C.2     
  13 S13           -3.4868     3.8836    -0.7934 S.3     
  14 C14           -2.2629    -0.6291    -0.9544 C.3     
  15 C15           -3.2436    -1.4593    -0.1239 C.3     
  16 N16           -2.9193    -2.8852    -0.2644 N.3     
  17 C17           -3.5691    -3.6789     0.7871 C.3     
  18 C18            0.3512     3.8139     0.3822 C.3     
  19 C19           -5.0836    -3.6661     0.5696 C.3     
  20 C20           -5.7199    -4.6935     1.5138 C.3     
  21 C21           -5.3031    -6.0940     1.0598 C.3     
  22 C22           -3.8162    -6.1521     0.8629 C.2     
  23 C23           -3.0522    -5.0873     0.7386 C.2     
  24 O24           -0.7973    -4.2265     0.3755 O.3     
  25 C25           -1.6101    -5.2891     0.5406 C.2     
  26 O26           -1.1503    -6.4140     0.5257 O.2     
  27 C27           -3.2849    -3.3792    -1.5987 C.3     
  28 H28            2.8348     0.5273    -0.7426 H       
  29 H29            2.5478    -0.0755     1.7055 H       
  30 H30            0.8922     2.6202    -2.3406 H       
  31 H31            1.5027     1.0171    -2.8153 H       
  32 H32           -0.2500     1.3002    -2.6887 H       
  33 H33           -3.5938     1.1843    -1.0267 H       
  34 H34           -0.9825     6.2624     0.1861 H       
  35 H35           -3.4086     6.4086    -0.5432 H       
  36 H36           -2.3397    -0.9175    -2.0028 H       
  37 H37           -1.2469    -0.8071    -0.6021 H       
  38 H38           -3.1668    -1.1709     0.9244 H       
  39 H39           -4.2596    -1.2813    -0.4763 H       
  40 H40           -3.3402    -3.2454     1.7606 H       
  41 H41            0.9663     3.6860    -0.5085 H       
  42 H42            0.7405     4.6401     0.9771 H       
  43 H43            0.3733     2.8985     0.9735 H       
  44 H44           -5.4767    -2.6736     0.7899 H       
  45 H45           -5.3074    -3.9306    -0.4638 H       
  46 H46           -5.3718    -4.5199     2.5321 H       
  47 H47           -6.8055    -4.6038     1.4746 H       
  48 H48           -5.5960    -6.8214     1.8169 H       
  49 H49           -5.8016    -6.3325     0.1203 H       
  50 H50           -3.3460    -7.1235     0.8210 H       
  51 H51            0.1305    -4.4105     0.1741 H       
  52 H52           -2.7361    -2.8197    -2.3562 H       
  53 H53           -3.0342    -4.4372    -1.6757 H       
  54 H54           -4.3557    -3.2473    -1.7541 H       
@<TRIPOS>BOND
   1    1    2 2
   2    1    5 1
   3    1    6 1
   4    2    3 1
   5    2    7 1
   6    3    4 2
   7    3   28 1
   8    4    5 1
   9    4   29 1
  10    6    8 2
  11    6    9 1
  12    7   30 1
  13    7   31 1
  14    7   32 1
  15    8   14 1
  16    8   33 1
  17    9   10 2
  18    9   13 1
  19   10   11 1
  20   10   18 1
  21   11   12 2
  22   11   34 1
  23   12   13 1
  24   12   35 1
  25   14   15 1
  26   14   36 1
  27   14   37 1
  28   15   16 1
  29   15   38 1
  30   15   39 1
  31   16   17 1
  32   16   27 1
  33   17   19 1
  34   17   23 1
  35   17   40 1
  36   18   41 1
  37   18   42 1
  38   18   43 1
  39   19   20 1
  40   19   44 1
  41   19   45 1
  42   20   21 1
  43   20   46 1
  44   20   47 1
  45   21   22 1
  46   21   48 1
  47   21   49 1
  48   22   23 2
  49   22   50 1
  50   23   25 1
  51   24   25 1
  52   24   51 1
  53   25   26 2
  54   27   52 1
  55   27   53 1
  56   27   54 1

#	End of record

