#	Name: ASD10610090
#	Creating user name:	WinNT
#	Creation time:	15. 06. 2019 21:27

#	Modifying user name:	WinNT
#	Modification time:	15. 06. 2019 21:27

#	Program:	/corina/corina34_cracker 3.40 0067  02.08.2006

@<TRIPOS>MOLECULE
ASD10610090
  54   56    0    0    0
SMALL
NO_CHARGES


@<TRIPOS>ATOM
   1 O1             0.3053     1.5488    -0.1317 O.3     
   2 C2             0.2484     0.1184    -0.2068 C.3     
   3 C3             1.5562     0.0660     0.5926 C.3     
   4 C4             1.7330     1.4458    -0.0533 C.3     
   5 C5             1.3776     0.0929     2.0887 C.2     
   6 O6             0.3704     0.5663     2.5708 O.2     
   7 N7             2.3371    -0.4092     2.8911 N.am    
   8 C8             2.2158    -0.2828     4.3456 C.3     
   9 C9             2.7631     1.0761     4.7869 C.3     
  10 C10            4.4484    -3.4017     6.2381 C.ar    
  11 C11            3.3748    -2.8110     6.9016 C.ar    
  12 C12            2.6557    -1.8037     6.2861 C.ar    
  13 C13            3.0023    -1.3817     5.0126 C.ar    
  14 C14            4.0670    -1.9658     4.3515 C.ar    
  15 C15            4.7912    -2.9728     4.9574 C.ar    
  16 C16            5.2278    -4.4790     6.8956 C.ar    
  17 C17            4.5789    -5.6168     7.3837 C.ar    
  18 C18            5.3146    -6.6192     7.9970 C.ar    
  19 C19            6.6859    -6.4923     8.1253 C.ar    
  20 C20            7.3310    -5.3664     7.6427 C.ar    
  21 C21            6.6099    -4.3635     7.0241 C.ar    
  22 F22            1.6144    -1.2293     6.9272 F       
  23 O23            3.2315    -5.7399     7.2580 O.3     
  24 C24            2.7487    -6.4497     6.1155 C.3     
  25 C25            1.2281    -6.5917     6.2084 C.3     
  26 F26            0.8957    -7.2967     7.3702 F       
  27 F27            0.6428    -5.3217     6.2501 F       
  28 Cl28           9.0525    -5.2174     7.8095 Cl      
  29 Cl29           4.5139    -8.0344     8.6050 Cl      
  30 N30            2.5097    -0.9475     0.1347 N.am    
  31 C31            2.1970    -2.2555     0.2227 C.2     
  32 O32            1.0935    -2.5913     0.5975 O.2     
  33 C33            3.2186    -3.3009    -0.1444 C.3     
  34 F34            2.6651    -4.5742     0.0270 F       
  35 F35            3.5978    -3.1333    -1.4805 F       
  36 F36            4.3411    -3.1655     0.6795 F       
  37 H37           -0.6014    -0.3094     0.3252 H       
  38 H38            0.3461    -0.2659    -1.2221 H       
  39 H39            2.2183     1.4081    -1.0286 H       
  40 H40            2.1840     2.1810     0.6131 H       
  41 H41            3.1079    -0.8541     2.5055 H       
  42 H42            1.1668    -0.3621     4.6310 H       
  43 H43            2.6728     1.1701     5.8690 H       
  44 H44            3.8120     1.1554     4.5015 H       
  45 H45            2.1942     1.8709     4.3044 H       
  46 H46            3.1047    -3.1399     7.8942 H       
  47 H47            4.3327    -1.6334     3.3589 H       
  48 H48            5.6222    -3.4280     4.4392 H       
  49 H49            7.2559    -7.2748     8.6042 H       
  50 H50            7.1168    -3.4886     6.6447 H       
  51 H51            3.0077    -5.9004     5.2104 H       
  52 H52            3.2047    -7.4391     6.0830 H       
  53 H53            0.8599    -7.1331     5.3370 H       
  54 H54            3.3662    -0.6772    -0.2319 H       
@<TRIPOS>BOND
   1    1    2 1
   2    1    4 1
   3    2    3 1
   4    2   37 1
   5    2   38 1
   6    3    4 1
   7    3    5 1
   8    3   30 1
   9    4   39 1
  10    4   40 1
  11    5    6 2
  12    5    7 am
  13    7    8 1
  14    7   41 1
  15    8    9 1
  16    8   13 1
  17    8   42 1
  18    9   43 1
  19    9   44 1
  20    9   45 1
  21   10   11 ar
  22   10   15 ar
  23   10   16 1
  24   11   12 ar
  25   11   46 1
  26   12   13 ar
  27   12   22 1
  28   13   14 ar
  29   14   15 ar
  30   14   47 1
  31   15   48 1
  32   16   17 ar
  33   16   21 ar
  34   17   18 ar
  35   17   23 1
  36   18   19 ar
  37   18   29 1
  38   19   20 ar
  39   19   49 1
  40   20   21 ar
  41   20   28 1
  42   21   50 1
  43   23   24 1
  44   24   25 1
  45   24   51 1
  46   24   52 1
  47   25   26 1
  48   25   27 1
  49   25   53 1
  50   30   31 am
  51   30   54 1
  52   31   32 2
  53   31   33 1
  54   33   34 1
  55   33   35 1
  56   33   36 1

#	End of record

