#	Name: ASD10340012
#	Creating user name:	WinNT
#	Creation time:	15. 06. 2019 21:26

#	Modifying user name:	WinNT
#	Modification time:	15. 06. 2019 21:26

#	Program:	/corina/corina34_cracker 3.40 0067  02.08.2006

@<TRIPOS>MOLECULE
ASD10340012
  57   61    0    0    0
SMALL
NO_CHARGES


@<TRIPOS>ATOM
   1 C1            -0.0167     1.3779     0.0096 C.ar    
   2 C2             0.0021    -0.0041     0.0020 C.ar    
   3 C3             1.2086    -0.6790    -0.0132 C.ar    
   4 C4             2.3961     0.0283    -0.0212 C.ar    
   5 C5             2.3773     1.4107    -0.0145 C.ar    
   6 C6             1.1711     2.0854     0.0021 C.ar    
   7 C7             1.2291    -2.1858    -0.0205 C.3     
   8 N8             1.2219    -2.6689    -1.4077 N.3     
   9 C9             3.6720     2.1819    -0.0223 C.3     
  10 N10            4.0794     2.4383    -1.4060 N.pl3   
  11 N11            3.7218     3.5597    -2.1613 N.2     
  12 C12            4.2499     3.4823    -3.3540 C.2     
  13 C13            5.0137     2.2362    -3.4209 C.ar    
  14 C14            4.8763     1.6201    -2.1637 C.ar    
  15 C15            5.7818     1.6187    -4.4185 C.ar    
  16 C16            6.3914     0.4080    -4.1572 C.ar    
  17 C17            6.2474    -0.1982    -2.9162 C.ar    
  18 C18            5.5034     0.3987    -1.9245 C.ar    
  19 O19            5.9245     2.2076    -5.6339 O.3     
  20 C20            6.7218     1.5185    -6.5991 C.3     
  21 N21            4.1097     4.4200    -4.3805 N.am    
  22 S22            3.2040     5.7848    -4.1372 S.o2    
  23 O23            3.2853     6.5397    -5.3384 O.2     
  24 O24            1.9736     5.3543    -3.5716 O.2     
  25 C25            4.0165     6.7356    -2.8961 C.2     
  26 C26            4.9428     7.6671    -3.1251 C.2     
  27 C27            5.4417     8.2855    -1.9910 C.2     
  28 C28            4.9192     7.8547    -0.8405 C.2     
  29 S29            3.7241     6.6062    -1.1666 S.3     
  30 Cl30           5.3483     8.4423     0.7357 Cl      
  31 C31            1.2414    -4.1371    -1.4540 C.3     
  32 C32            0.6411    -4.7267    -2.7442 C.3     
  33 O33            1.7678    -5.6261    -2.7229 O.3     
  34 C34            2.5787    -4.7263    -1.9410 C.3     
  35 H35           -0.9592     1.9051     0.0170 H       
  36 H36           -0.9258    -0.5567     0.0083 H       
  37 H37            3.3386    -0.4989    -0.0324 H       
  38 H38            1.1565     3.1653     0.0077 H       
  39 H39            2.1290    -2.5394     0.4828 H       
  40 H40            0.3493    -2.5636     0.5004 H       
  41 H41            0.4304    -2.3017    -1.9144 H       
  42 H42            3.5333     3.1300     0.4972 H       
  43 H43            4.4441     1.6008     0.4820 H       
  44 H44            6.9838    -0.0708    -4.9229 H       
  45 H45            6.7295    -1.1456    -2.7253 H       
  46 H46            5.3993    -0.0828    -0.9634 H       
  47 H47            7.7336     1.3948    -6.2129 H       
  48 H48            6.2863     0.5392    -6.7975 H       
  49 H49            6.7536     2.0960    -7.5230 H       
  50 H50            4.5430     4.2714    -5.2355 H       
  51 H51            5.2787     7.9200    -4.1199 H       
  52 H52            6.1961     9.0570    -2.0340 H       
  53 H53            0.8618    -4.5970    -0.5416 H       
  54 H54           -0.3198    -5.2201    -2.5980 H       
  55 H55            0.6439    -4.0363    -3.5876 H       
  56 H56            3.1732    -4.0357    -2.5391 H       
  57 H57            3.1547    -5.2193    -1.1578 H       
@<TRIPOS>BOND
   1    1    2 ar
   2    1    6 ar
   3    1   35 1
   4    2    3 ar
   5    2   36 1
   6    3    4 ar
   7    3    7 1
   8    4    5 ar
   9    4   37 1
  10    5    6 ar
  11    5    9 1
  12    6   38 1
  13    7    8 1
  14    7   39 1
  15    7   40 1
  16    8   31 1
  17    8   41 1
  18    9   10 1
  19    9   42 1
  20    9   43 1
  21   10   11 1
  22   10   14 1
  23   11   12 2
  24   12   13 1
  25   12   21 1
  26   13   14 ar
  27   13   15 ar
  28   14   18 ar
  29   15   16 ar
  30   15   19 1
  31   16   17 ar
  32   16   44 1
  33   17   18 ar
  34   17   45 1
  35   18   46 1
  36   19   20 1
  37   20   47 1
  38   20   48 1
  39   20   49 1
  40   21   22 am
  41   21   50 1
  42   22   23 2
  43   22   24 2
  44   22   25 1
  45   25   26 2
  46   25   29 1
  47   26   27 1
  48   26   51 1
  49   27   28 2
  50   27   52 1
  51   28   29 1
  52   28   30 1
  53   31   32 1
  54   31   34 1
  55   31   53 1
  56   32   33 1
  57   32   54 1
  58   32   55 1
  59   33   34 1
  60   34   56 1
  61   34   57 1

#	End of record

