#	Name: ASD16450001
#	Creating user name:	WinNT
#	Creation time:	15. 06. 2019 21:31

#	Modifying user name:	WinNT
#	Modification time:	15. 06. 2019 21:31

#	Program:	/corina/corina34_cracker 3.40 0067  02.08.2006

@<TRIPOS>MOLECULE
ASD16450001
  54   56    0    0    0
SMALL
NO_CHARGES


@<TRIPOS>ATOM
   1 C1            -0.0519     1.4257    -0.0956 C.3     
   2 C2            -0.6764     1.9214     1.2104 C.3     
   3 C3            -0.8648     1.9333    -1.2858 C.3     
   4 O4            -0.0322    -0.0032    -0.1043 O.3     
   5 O5             1.3569     3.3874    -0.2327 O.3     
   6 O6            -1.8413     4.0978     1.1644 O.3     
   7 C7             2.0063     1.4337    -1.4973 C.3     
   8 C8            -2.9288     1.9290     0.1311 C.3     
   9 C9             1.2024     1.9175    -2.7077 C.3     
  10 C10           -1.0527     2.0309    -3.7571 C.3     
  11 C11            1.8263     1.3030    -3.9669 C.3     
  12 C12           -0.3422     1.8147    -5.0587 C.2     
  13 C13            0.9297     1.4996    -5.1513 C.2     
  14 C14            2.0438    -0.1947    -3.7424 C.3     
  15 C15            1.5067     1.3305    -6.4940 C.2     
  16 C16            2.7893     1.0119    -6.6306 C.2     
  17 C17            1.3794     1.9588    -0.2067 C.3     
  18 C18           -2.1136     1.4077     1.3164 C.3     
  19 C19           -0.6794     3.4283     1.2254 C.2     
  20 C20            0.1397     1.4013     2.3954 C.3     
  21 C21           -0.2480     1.4339    -2.5960 C.3     
  22 C22           -2.3037     1.4236    -1.1785 C.3     
  23 C23           -0.8734     3.4633    -1.2794 C.3     
  24 O24            0.3640     4.0338     1.2923 O.2     
  25 H25            0.4741    -0.3940     0.6209 H       
  26 H26            2.2318     3.7933    -0.3022 H       
  27 H27           -1.7926     5.0635     1.1769 H       
  28 H28            2.0117     0.3439    -1.4791 H       
  29 H29            3.0304     1.7990    -1.5741 H       
  30 H30           -3.9536     1.5655     0.2069 H       
  31 H31           -2.9280     3.0190     0.1409 H       
  32 H32            1.2378     3.0053    -2.7674 H       
  33 H33           -1.1822     3.1005    -3.5919 H       
  34 H34           -2.0317     1.5534    -3.7987 H       
  35 H35            2.7868     1.7802    -4.1613 H       
  36 H36           -0.9079     1.9239    -5.9722 H       
  37 H37            1.0866    -0.6741    -3.5376 H       
  38 H38            2.4872    -0.6353    -4.6353 H       
  39 H39            2.7125    -0.3416    -2.8942 H       
  40 H40            0.8876     1.4654    -7.3687 H       
  41 H41            3.2129     0.8877    -7.6163 H       
  42 H42            3.4084     0.8770    -5.7560 H       
  43 H43            1.9628     1.6186     0.6488 H       
  44 H44           -2.1142     0.3177     1.3066 H       
  45 H45           -2.5566     1.7632     2.2467 H       
  46 H46            1.1635     1.7676     2.3202 H       
  47 H47           -0.3051     1.7543     3.3258 H       
  48 H48            0.1420     0.3113     2.3845 H       
  49 H49           -0.2899     0.3454    -2.6354 H       
  50 H50           -2.8834     1.7938    -2.0242 H       
  51 H51           -2.3069     0.3336    -1.1856 H       
  52 H52            0.1516     3.8322    -1.2408 H       
  53 H53           -1.3568     3.8278    -2.1858 H       
  54 H54           -1.4209     3.8199    -0.4070 H       
@<TRIPOS>BOND
   1    1    4 1
   2    1   17 1
   3    1    2 1
   4    1    3 1
   5    2   20 1
   6    2   18 1
   7    2   19 1
   8    3   21 1
   9    3   22 1
  10    3   23 1
  11    4   25 1
  12    5   26 1
  13    5   17 1
  14    6   27 1
  15    6   19 1
  16    7   28 1
  17    7   29 1
  18    7    9 1
  19    7   17 1
  20    8   18 1
  21    8   22 1
  22    8   30 1
  23    8   31 1
  24    9   11 1
  25    9   32 1
  26    9   21 1
  27   10   21 1
  28   10   12 1
  29   10   33 1
  30   10   34 1
  31   11   14 1
  32   11   35 1
  33   11   13 1
  34   12   13 2
  35   12   36 1
  36   13   15 1
  37   14   37 1
  38   14   38 1
  39   14   39 1
  40   15   16 2
  41   15   40 1
  42   16   41 1
  43   16   42 1
  44   17   43 1
  45   18   44 1
  46   18   45 1
  47   19   24 2
  48   20   46 1
  49   20   47 1
  50   20   48 1
  51   21   49 1
  52   22   50 1
  53   22   51 1
  54   23   52 1
  55   23   53 1
  56   23   54 1

#	End of record

