#	Name: ASD10160509
#	Creating user name:	WinNT
#	Creation time:	15. 06. 2019 21:26

#	Modifying user name:	WinNT
#	Modification time:	15. 06. 2019 21:26

#	Program:	/corina/corina34_cracker 3.40 0067  02.08.2006

@<TRIPOS>MOLECULE
ASD10160509
  36   37    0    0    0
SMALL
NO_CHARGES


@<TRIPOS>ATOM
   1 C1            -0.0188     1.5336     0.0105 C.3     
   2 C2            -0.0063    -0.0009    -0.0902 C.3     
   3 C3             1.3866     0.1308    -0.7284 C.3     
   4 C4             1.5175     1.4668     0.0217 C.3     
   5 C5            -0.5846     2.2140    -1.2094 C.2     
   6 O6            -0.9331     1.5561    -2.1610 O.2     
   7 O7            -0.7014     3.5508    -1.2386 O.3     
   8 C8            -0.6100     2.0494     1.2971 C.ar    
   9 C9            -1.9304     1.7715     1.6029 C.ar    
  10 C10           -2.4642     2.2514     2.7901 C.ar    
  11 C11           -1.6472     2.9952     3.6277 C.ar    
  12 C12           -0.3377     3.2321     3.2551 C.ar    
  13 N13            0.1384     2.7558     2.1212 N.ar    
  14 Cl14          -2.9066     0.8350     0.5149 Cl      
  15 C15           -1.2547     4.1379    -2.4459 C.3     
  16 C16           -2.6672     3.5967    -2.6752 C.3     
  17 C17           -1.3098     5.6594    -2.2942 C.3     
  18 C18           -0.3698     3.7763    -3.6406 C.3     
  19 H19            0.0025    -0.5019     0.8778 H       
  20 H20           -0.7611    -0.4002    -0.7677 H       
  21 H21            2.0935    -0.6287    -0.3943 H       
  22 H22            1.3616     0.2394    -1.8127 H       
  23 H23            1.9930     2.2525    -0.5655 H       
  24 H24            1.9430     1.3671     1.0203 H       
  25 H25           -3.4918     2.0508     3.0553 H       
  26 H26           -2.0295     3.3848     4.5596 H       
  27 H27            0.3047     3.8109     3.9022 H       
  28 H28           -3.2976     3.8543    -1.8241 H       
  29 H29           -3.0826     4.0374    -3.5815 H       
  30 H30           -2.6279     2.5128    -2.7833 H       
  31 H31           -0.3035     6.0450    -2.1308 H       
  32 H32           -1.7251     6.1001    -3.2005 H       
  33 H33           -1.9402     5.9170    -1.4430 H       
  34 H34           -0.3305     2.6924    -3.7487 H       
  35 H35           -0.7851     4.2170    -4.5469 H       
  36 H36            0.6365     4.1619    -3.4773 H       
@<TRIPOS>BOND
   1    1    2 1
   2    1    4 1
   3    1    5 1
   4    1    8 1
   5    2    3 1
   6    2   19 1
   7    2   20 1
   8    3    4 1
   9    3   21 1
  10    3   22 1
  11    4   23 1
  12    4   24 1
  13    5    6 2
  14    5    7 1
  15    7   15 1
  16    8    9 ar
  17    8   13 ar
  18    9   10 ar
  19    9   14 1
  20   10   11 ar
  21   10   25 1
  22   11   12 ar
  23   11   26 1
  24   12   13 ar
  25   12   27 1
  26   15   16 1
  27   15   18 1
  28   15   17 1
  29   16   28 1
  30   16   29 1
  31   16   30 1
  32   17   31 1
  33   17   32 1
  34   17   33 1
  35   18   34 1
  36   18   35 1
  37   18   36 1

#	End of record

