#	Name: ASD12630002
#	Creating user name:	WinNT
#	Creation time:	15. 06. 2019 21:30

#	Modifying user name:	WinNT
#	Modification time:	15. 06. 2019 21:30

#	Program:	/corina/corina34_cracker 3.40 0067  02.08.2006

@<TRIPOS>MOLECULE
ASD12630002
  38   39    0    0    0
SMALL
NO_CHARGES


@<TRIPOS>ATOM
   1 C1            -0.0244     1.3524     0.1029 C.2     
   2 N2             0.0109     0.0035    -0.0923 N.am    
   3 N3             1.3485    -0.3849     0.0871 N.2     
   4 C4             2.0282     0.6995     0.3696 C.2     
   5 N5             1.1985     1.7499     0.3792 N.2     
   6 C6            -1.0298    -0.7971    -0.3965 C.2     
   7 N7            -0.8364    -2.1209    -0.5598 N.am    
   8 O8            -2.1425    -0.3253    -0.5235 O.2     
   9 C9            -1.9676    -2.9911    -0.8905 C.3     
  10 C10           -2.1899    -2.9855    -2.4043 C.3     
  11 C11           -1.6674    -4.4171    -0.4243 C.3     
  12 N12           -1.1426     2.1579     0.0194 N.pl3   
  13 C13           -1.0146     3.5459     0.1319 C.ar    
  14 C14            0.2773     5.5437    -0.1701 C.ar    
  15 C15            0.1537     4.1725    -0.2819 C.ar    
  16 C16           -2.0579     4.3011     0.6523 C.ar    
  17 C17           -1.9290     5.6715     0.7618 C.ar    
  18 C18           -0.7615     6.2928     0.3535 C.ar    
  19 Cl19          -0.6023     8.0158     0.4937 Cl      
  20 N20            3.3977     0.7509     0.6203 N.pl3   
  21 C21            1.5447     6.2244    -0.6189 C.3     
  22 H22            0.0517    -2.4975    -0.4585 H       
  23 H23           -2.8648    -2.6266    -0.3902 H       
  24 H24           -3.0316    -3.6330    -2.6503 H       
  25 H25           -2.4038    -1.9696    -2.7364 H       
  26 H26           -1.2927    -3.3500    -2.9046 H       
  27 H27           -1.5091    -4.4210     0.6541 H       
  28 H28           -2.5091    -5.0645    -0.6704 H       
  29 H29           -0.7703    -4.7816    -0.9247 H       
  30 H30           -2.0171     1.7610    -0.1173 H       
  31 H31            0.9650     3.5882    -0.6904 H       
  32 H32           -2.9693     3.8168     0.9707 H       
  33 H33           -2.7399     6.2591     1.1661 H       
  34 H34            3.9266    -0.0617     0.5925 H       
  35 H35            3.8222     1.5993     0.8227 H       
  36 H36            1.4562     6.5008    -1.6695 H       
  37 H37            1.7076     7.1203    -0.0199 H       
  38 H38            2.3870     5.5443    -0.4918 H       
@<TRIPOS>BOND
   1    1    2 1
   2    1    5 2
   3    1   12 1
   4    2    3 1
   5    2    6 am
   6    3    4 2
   7    4    5 1
   8    4   20 1
   9    6    7 am
  10    6    8 2
  11    7    9 1
  12    7   22 1
  13    9   10 1
  14    9   11 1
  15    9   23 1
  16   10   24 1
  17   10   25 1
  18   10   26 1
  19   11   27 1
  20   11   28 1
  21   11   29 1
  22   12   13 1
  23   12   30 1
  24   13   16 ar
  25   13   15 ar
  26   14   15 ar
  27   14   18 ar
  28   14   21 1
  29   15   31 1
  30   16   17 ar
  31   16   32 1
  32   17   18 ar
  33   17   33 1
  34   18   19 1
  35   20   34 1
  36   20   35 1
  37   21   36 1
  38   21   37 1
  39   21   38 1

#	End of record

