#	Name: ASD10220052
#	Creating user name:	WinNT
#	Creation time:	15. 06. 2019 21:26

#	Modifying user name:	WinNT
#	Modification time:	15. 06. 2019 21:26

#	Program:	/corina/corina34_cracker 3.40 0067  02.08.2006

@<TRIPOS>MOLECULE
ASD10220052
  39   42    0    0    0
SMALL
NO_CHARGES


@<TRIPOS>ATOM
   1 C1             0.1248     1.5369     0.4912 C.2     
   2 C2             0.1503     0.0599     0.3974 C.ar    
   3 C3            -1.0183    -0.6879     0.6706 C.ar    
   4 C4            -2.2564     0.0350     1.0123 C.2     
   5 C5            -2.3502     1.4234     0.8649 C.2     
   6 C6            -1.2219     2.2183     0.3751 C.2     
   7 O7            -3.4232    -0.4031     1.4794 O.3     
   8 C8            -4.2915     0.6052     1.6504 C.2     
   9 C9            -3.6982     1.7850     1.2882 C.2     
  10 O10           -1.3550     3.3304    -0.0947 O.2     
  11 O11            1.1425     2.1759     0.6596 O.2     
  12 C12           -4.2935     3.1305     1.3197 C.2     
  13 O13           -4.9383     3.5327     0.3700 O.2     
  14 C14           -4.1078     3.9932     2.5057 C.ar    
  15 C15            1.3215    -0.6053     0.0438 C.ar    
  16 C16           -0.9834    -2.0743     0.6030 C.ar    
  17 C17           -4.5773     5.3083     2.4967 C.ar    
  18 C18           -4.4007     6.1079     3.6066 C.ar    
  19 C19           -3.7595     5.6097     4.7272 C.ar    
  20 C20           -3.2918     4.3074     4.7429 C.ar    
  21 C21           -3.4673     3.4950     3.6420 C.ar    
  22 C22            0.1935    -2.7170     0.2547 C.ar    
  23 C23            1.3347    -1.9871    -0.0258 C.ar    
  24 C24           -5.7019     0.4616     2.1614 C.3     
  25 C25           -3.5693     6.4896     5.9358 C.3     
  26 H26            2.2175    -0.0437    -0.1761 H       
  27 H27           -1.8707    -2.6498     0.8216 H       
  28 H28           -5.0772     5.6986     1.6225 H       
  29 H29           -4.7633     7.1252     3.6010 H       
  30 H30           -2.7920     3.9250     5.6206 H       
  31 H31           -3.1018     2.4788     3.6556 H       
  32 H32            0.2203    -3.7954     0.2021 H       
  33 H33            2.2439    -2.5004    -0.3019 H       
  34 H34           -5.9371    -0.5954     2.2867 H       
  35 H35           -5.7944     0.9706     3.1207 H       
  36 H36           -6.3944     0.9055     1.4462 H       
  37 H37           -4.4258     6.3825     6.6015 H       
  38 H38           -2.6614     6.1937     6.4614 H       
  39 H39           -3.4833     7.5289     5.6187 H       
@<TRIPOS>BOND
   1    1    2 1
   2    1   11 2
   3    1    6 1
   4    2    3 ar
   5    2   15 ar
   6    3    4 1
   7    3   16 ar
   8    4    5 2
   9    4    7 1
  10    5    6 1
  11    5    9 1
  12    6   10 2
  13    7    8 1
  14    8    9 2
  15    8   24 1
  16    9   12 1
  17   12   13 2
  18   12   14 1
  19   14   17 ar
  20   14   21 ar
  21   15   23 ar
  22   15   26 1
  23   16   22 ar
  24   16   27 1
  25   17   18 ar
  26   17   28 1
  27   18   19 ar
  28   18   29 1
  29   19   20 ar
  30   19   25 1
  31   20   21 ar
  32   20   30 1
  33   21   31 1
  34   22   23 ar
  35   22   32 1
  36   23   33 1
  37   24   34 1
  38   24   35 1
  39   24   36 1
  40   25   37 1
  41   25   38 1
  42   25   39 1

#	End of record

