#	Name: ASD10420115
#	Creating user name:	WinNT
#	Creation time:	15. 06. 2019 21:27

#	Modifying user name:	WinNT
#	Modification time:	15. 06. 2019 21:27

#	Program:	/corina/corina34_cracker 3.40 0067  02.08.2006

@<TRIPOS>MOLECULE
ASD10420115
  84   89    0    0    0
SMALL
NO_CHARGES


@<TRIPOS>ATOM
   1 N1            -0.0737     0.3927     0.4971 N.pl3   
   2 C2            -0.3725    -0.8772     0.0781 C.2     
   3 C3            -1.7423    -0.9199    -0.2463 C.2     
   4 C4            -2.2612     0.3516    -0.0135 C.2     
   5 C5            -1.2247     1.1503     0.4492 C.2     
   6 N6             1.2348     0.7107     0.8841 N.2     
   7 C7             2.1817    -0.1863     0.8529 C.2     
   8 C8             1.9155    -1.5011     0.4290 C.2     
   9 C9             0.6347    -1.8481     0.0406 C.2     
  10 C10           -1.3299     2.5164     0.8051 C.2     
  11 O11           -1.6214     2.8279     1.9461 O.2     
  12 C12           -3.6908     0.7810    -0.2211 C.3     
  13 C13           -4.4466     0.6549     1.0765 C.ar    
  14 C14           -4.7879     1.7883     1.7901 C.ar    
  15 C15           -4.8033    -0.5939     1.5497 C.ar    
  16 C16           -5.4969    -0.7112     2.7400 C.ar    
  17 C17           -5.8346     0.4202     3.4578 C.ar    
  18 C18           -2.4910    -2.0968    -0.7431 C.ar    
  19 C19           -2.6545    -3.2177     0.0712 C.ar    
  20 C20           -3.3532    -4.3112    -0.3975 C.ar    
  21 C21           -3.8912    -4.2976    -1.6721 C.ar    
  22 C22           -3.7325    -3.1890    -2.4845 C.ar    
  23 C23           -3.0408    -2.0870    -2.0253 C.ar    
  24 C24           -4.4046     3.1500     1.2706 C.3     
  25 C25           -5.4823     1.6721     2.9821 C.ar    
  26 F26           -5.8115     2.7790     3.6833 F       
  27 N27            2.9351    -2.4467     0.4011 N.pl3   
  28 C28            2.6506    -3.8586     0.0995 C.3     
  29 C29            3.6121    -4.3211    -1.0013 C.3     
  30 O30            4.9534    -4.0121    -0.6150 O.3     
  31 C31            5.2097    -2.6146    -0.4567 C.3     
  32 C32            4.3309    -2.0638     0.6664 C.3     
  33 N33           -1.1076     3.4725    -0.1185 N.am    
  34 C34           -1.1099     4.8957     0.2526 C.3     
  35 C35            0.1760     5.5390    -0.2773 C.3     
  36 N36            0.2958     5.2727    -1.7169 N.3     
  37 C37            0.4197     3.8335    -1.9841 C.3     
  38 C38           -0.8502     3.1200    -1.5231 C.3     
  39 C39            0.1265     7.0497    -0.0399 C.3     
  40 C40            1.4398     7.6657    -0.4483 C.2     
  41 N41            1.6274     8.9948    -0.3270 N.am    
  42 O42            2.3280     6.9653    -0.8860 O.2     
  43 C43            2.9042     9.5936    -0.7239 C.3     
  44 C44            2.8546    11.1043    -0.4866 C.3     
  45 C45            4.1375    11.7059    -0.8854 C.1     
  46 N46            5.1275    12.1703    -1.1932 N.1     
  47 H47            3.1825     0.0840     1.1559 H       
  48 H48            0.4148    -2.8534    -0.2872 H       
  49 H49           -3.7137     1.8181    -0.5557 H       
  50 H50           -4.1551     0.1456    -0.9753 H       
  51 H51           -4.5405    -1.4787     0.9889 H       
  52 H52           -5.7751    -1.6874     3.1088 H       
  53 H53           -6.3769     0.3284     4.3873 H       
  54 H54           -2.2347    -3.2297     1.0662 H       
  55 H55           -3.4802    -5.1798     0.2317 H       
  56 H56           -4.4370    -5.1562    -2.0346 H       
  57 H57           -4.1545    -3.1845    -3.4786 H       
  58 H58           -2.9176    -1.2222    -2.6603 H       
  59 H59           -5.2120     3.5438     0.6533 H       
  60 H60           -4.2278     3.8226     2.1100 H       
  61 H61           -3.4968     3.0686     0.6729 H       
  62 H62            2.7997    -4.4625     0.9946 H       
  63 H63            1.6216    -3.9603    -0.2454 H       
  64 H64            3.5127    -5.3972    -1.1430 H       
  65 H65            3.3738    -3.8070    -1.9324 H       
  66 H66            6.2598    -2.4631    -0.2067 H       
  67 H67            4.9773    -2.0943    -1.3859 H       
  68 H68            4.4141    -0.9774     0.6968 H       
  69 H69            4.6520    -2.4839     1.6195 H       
  70 H70           -1.9753     5.3883    -0.1908 H       
  71 H71           -1.1469     4.9911     1.3378 H       
  72 H72            1.0353     5.1166     0.2435 H       
  73 H73           -0.4814     5.6690    -2.2239 H       
  74 H74            0.5611     3.6728    -3.0529 H       
  75 H75            1.2756     3.4348    -1.4396 H       
  76 H76           -0.7155     2.0420    -1.6112 H       
  77 H77           -1.6902     3.4386    -2.1404 H       
  78 H78           -0.6785     7.4844    -0.6325 H       
  79 H79           -0.0537     7.2457     1.0170 H       
  80 H80            0.9170     9.5549     0.0231 H       
  81 H81            3.7092     9.1589    -0.1314 H       
  82 H82            3.0844     9.3976    -1.7809 H       
  83 H83            2.0496    11.5389    -1.0791 H       
  84 H84            2.6744    11.3003     0.5704 H       
@<TRIPOS>BOND
   1    1    2 1
   2    1    6 1
   3    1    5 1
   4    2    3 2
   5    2    9 1
   6    3    4 1
   7    3   18 1
   8    4    5 2
   9    4   12 1
  10    5   10 1
  11    6    7 2
  12    7    8 1
  13    7   47 1
  14    8    9 2
  15    8   27 1
  16    9   48 1
  17   10   11 2
  18   10   33 am
  19   12   13 1
  20   12   49 1
  21   12   50 1
  22   13   14 ar
  23   13   15 ar
  24   14   24 1
  25   14   25 ar
  26   15   16 ar
  27   15   51 1
  28   16   17 ar
  29   16   52 1
  30   17   25 ar
  31   17   53 1
  32   18   19 ar
  33   18   23 ar
  34   19   20 ar
  35   19   54 1
  36   20   21 ar
  37   20   55 1
  38   21   22 ar
  39   21   56 1
  40   22   23 ar
  41   22   57 1
  42   23   58 1
  43   24   59 1
  44   24   60 1
  45   24   61 1
  46   25   26 1
  47   27   28 1
  48   27   32 1
  49   28   29 1
  50   28   62 1
  51   28   63 1
  52   29   30 1
  53   29   64 1
  54   29   65 1
  55   30   31 1
  56   31   32 1
  57   31   66 1
  58   31   67 1
  59   32   68 1
  60   32   69 1
  61   33   34 1
  62   33   38 1
  63   34   35 1
  64   34   70 1
  65   34   71 1
  66   35   36 1
  67   35   39 1
  68   35   72 1
  69   36   37 1
  70   36   73 1
  71   37   38 1
  72   37   74 1
  73   37   75 1
  74   38   76 1
  75   38   77 1
  76   39   40 1
  77   39   78 1
  78   39   79 1
  79   40   41 am
  80   40   42 2
  81   41   43 1
  82   41   80 1
  83   43   44 1
  84   43   81 1
  85   43   82 1
  86   44   45 1
  87   44   83 1
  88   44   84 1
  89   45   46 3

#	End of record

