#	Name: ASD10610145
#	Creating user name:	WinNT
#	Creation time:	15. 06. 2019 21:28

#	Modifying user name:	WinNT
#	Modification time:	15. 06. 2019 21:28

#	Program:	/corina/corina34_cracker 3.40 0067  02.08.2006

@<TRIPOS>MOLECULE
ASD10610145
  22   23    0    0    0
SMALL
NO_CHARGES


@<TRIPOS>ATOM
   1 C1            -0.0189     1.5392     0.0105 C.3     
   2 C2             0.0021    -0.0041     0.0020 C.3     
   3 C3             1.3509    -0.3133    -0.6816 C.3     
   4 C4             2.2235     0.8908    -0.3988 C.ar    
   5 C5             3.5974     1.0429    -0.4836 C.ar    
   6 C6             4.1833     2.2549    -0.1715 C.ar    
   7 C7             3.3952     3.3200     0.2265 C.ar    
   8 C8             2.0252     3.1695     0.3109 C.ar    
   9 C9             1.4365     1.9552    -0.0012 C.ar    
  10 C10           -0.7212     2.0594    -1.2171 C.2     
  11 O11           -1.1681     1.2860    -2.0308 O.2     
  12 O12           -0.8504     3.3819    -1.4067 O.3     
  13 Br13           6.0599     2.4571    -0.2877 Br      
  14 H14           -0.5098     1.9059     0.9120 H       
  15 H15           -0.0163    -0.3974     1.0184 H       
  16 H16           -0.8284    -0.3996    -0.5828 H       
  17 H17            1.7951    -1.2115    -0.2527 H       
  18 H18            1.2113    -0.4353    -1.7557 H       
  19 H19            4.2129     0.2115    -0.7942 H       
  20 H20            3.8511     4.2680     0.4712 H       
  21 H21            1.4106     4.0013     0.6220 H       
  22 H22           -1.3085     3.6678    -2.2089 H       
@<TRIPOS>BOND
   1    1    2 1
   2    1    9 1
   3    1   10 1
   4    1   14 1
   5    2    3 1
   6    2   15 1
   7    2   16 1
   8    3    4 1
   9    3   17 1
  10    3   18 1
  11    4    5 ar
  12    4    9 ar
  13    5    6 ar
  14    5   19 1
  15    6    7 ar
  16    6   13 1
  17    7    8 ar
  18    7   20 1
  19    8    9 ar
  20    8   21 1
  21   10   11 2
  22   10   12 1
  23   12   22 1

#	End of record

