#	Name: ASD10410090
#	Creating user name:	WinNT
#	Creation time:	15. 06. 2019 21:26

#	Modifying user name:	WinNT
#	Modification time:	15. 06. 2019 21:26

#	Program:	/corina/corina34_cracker 3.40 0067  02.08.2006

@<TRIPOS>MOLECULE
ASD10410090
  75   81    0    0    0
SMALL
NO_CHARGES


@<TRIPOS>ATOM
   1 C1             0.0305     1.1176     0.1446 C.ar    
   2 C2             0.1860    -0.1672     0.6485 C.ar    
   3 C3             1.4585    -0.6740     0.8774 C.ar    
   4 C4             2.5691     0.0996     0.6045 C.ar    
   5 C5             2.4137     1.3844     0.1006 C.ar    
   6 C6             1.1412     1.8910    -0.1288 C.ar    
   7 N7             3.5401     2.1691    -0.1757 N.pl3   
   8 C8             4.7183     1.5671    -0.6149 C.2     
   9 N9             5.8604     2.1824    -0.8065 N.2     
  10 N10            4.8652     0.2682    -0.9025 N.2     
  11 C11            6.1016     0.0358    -1.2873 C.2     
  12 N12            6.7791     1.2154    -1.2461 N.pl3   
  13 C13            8.1127     1.4217    -1.5730 C.ar    
  14 N14            6.6203    -1.1876    -1.6630 N.pl3   
  15 N15           -0.9399    -0.9510     0.9260 N.3     
  16 C16           -0.5491    -2.2679     1.4482 C.3     
  17 C17           -1.8053    -3.0625     1.8128 C.3     
  18 N18           -2.6560    -3.2024     0.6227 N.3     
  19 C19           -3.0468    -1.8855     0.1005 C.3     
  20 C20           -1.7906    -1.0909    -0.2642 C.3     
  21 C21           -3.8376    -4.0251     0.9140 C.3     
  22 N22            8.6276     0.9127    -2.6834 N.ar    
  23 C23            9.8966     1.1017    -3.0075 C.ar    
  24 N24           10.7267     1.7959    -2.2655 N.ar    
  25 C25           10.3089     2.3550    -1.1204 C.ar    
  26 C26            8.9554     2.1844    -0.7338 C.ar    
  27 C27           11.1683     3.1026    -0.3051 C.ar    
  28 C28           10.6933     3.6523     0.8526 C.ar    
  29 C29            9.3556     3.4777     1.2365 C.ar    
  30 C30            8.4941     2.7584     0.4582 C.ar    
  31 C31           -4.8310    -4.1092    -0.2574 C.3     
  32 C32           -4.9844    -5.6112     0.0846 C.3     
  33 C33           -3.5956    -5.5314     0.7338 C.3     
  34 C34           -6.1864    -3.4504     0.0553 C.3     
  35 C35           -7.1129    -4.5693     0.5736 C.3     
  36 C36           -6.1412    -5.6490     1.1109 C.3     
  37 O37            8.9103     4.0350     2.3939 O.3     
  38 C38            7.5380     3.8218     2.7307 C.3     
  39 O39           11.5280     4.3770     1.6422 O.3     
  40 C40           12.8791     4.5197     1.1991 C.3     
  41 H41           -0.9590     1.5100    -0.0377 H       
  42 H42            1.5793    -1.6731     1.2693 H       
  43 H43            3.5587    -0.2943     0.7833 H       
  44 H44            1.0203     2.8900    -0.5210 H       
  45 H45            3.5005     3.1316    -0.0616 H       
  46 H46            6.0555    -1.9762    -1.6578 H       
  47 H47            7.5496    -1.2584    -1.9322 H       
  48 H48            0.0148    -2.8080     0.6876 H       
  49 H49            0.0696    -2.1380     2.3361 H       
  50 H50           -1.5188    -4.0505     2.1733 H       
  51 H51           -2.3551    -2.5358     2.5929 H       
  52 H52           -3.6655    -2.0154    -0.7874 H       
  53 H53           -3.6107    -1.3454     0.8611 H       
  54 H54           -2.0771    -0.1029    -0.6246 H       
  55 H55           -1.2409    -1.6176    -1.0442 H       
  56 H56           -4.3062    -3.7692     1.8643 H       
  57 H57           10.2657     0.6645    -3.9235 H       
  58 H58           12.2006     3.2435    -0.5896 H       
  59 H59            7.4658     2.6291     0.7617 H       
  60 H60           -4.4204    -3.8813    -1.2410 H       
  61 H61           -5.0786    -6.2960    -0.7582 H       
  62 H62           -2.7806    -5.7623     0.0478 H       
  63 H63           -3.5233    -6.0762     1.6751 H       
  64 H64           -6.0614    -2.6848     0.8210 H       
  65 H65           -6.6043    -3.0091    -0.8495 H       
  66 H66           -7.7498    -4.1962     1.3756 H       
  67 H67           -7.7176    -4.9710    -0.2395 H       
  68 H68           -6.6187    -6.6288     1.1184 H       
  69 H69           -5.7831    -5.3853     2.1060 H       
  70 H70            7.3141     4.3185     3.6747 H       
  71 H71            6.9032     4.2316     1.9450 H       
  72 H72            7.3499     2.7527     2.8291 H       
  73 H73           13.3389     3.5352     1.1127 H       
  74 H74           12.8926     5.0136     0.2276 H       
  75 H75           13.4362     5.1190     1.9192 H       
@<TRIPOS>BOND
   1    1    2 ar
   2    1    6 ar
   3    1   41 1
   4    2    3 ar
   5    2   15 1
   6    3    4 ar
   7    3   42 1
   8    4    5 ar
   9    4   43 1
  10    5    6 ar
  11    5    7 1
  12    6   44 1
  13    7    8 1
  14    7   45 1
  15    8    9 2
  16    8   10 1
  17    9   12 1
  18   10   11 2
  19   11   12 1
  20   11   14 1
  21   12   13 1
  22   13   22 ar
  23   13   26 ar
  24   14   46 1
  25   14   47 1
  26   15   16 1
  27   15   20 1
  28   16   17 1
  29   16   48 1
  30   16   49 1
  31   17   18 1
  32   17   50 1
  33   17   51 1
  34   18   19 1
  35   18   21 1
  36   19   20 1
  37   19   52 1
  38   19   53 1
  39   20   54 1
  40   20   55 1
  41   21   31 1
  42   21   33 1
  43   21   56 1
  44   22   23 ar
  45   23   24 ar
  46   23   57 1
  47   24   25 ar
  48   25   26 ar
  49   25   27 ar
  50   26   30 ar
  51   27   28 ar
  52   27   58 1
  53   28   29 ar
  54   28   39 1
  55   29   30 ar
  56   29   37 1
  57   30   59 1
  58   31   32 1
  59   31   34 1
  60   31   60 1
  61   32   33 1
  62   32   36 1
  63   32   61 1
  64   33   62 1
  65   33   63 1
  66   34   35 1
  67   34   64 1
  68   34   65 1
  69   35   36 1
  70   35   66 1
  71   35   67 1
  72   36   68 1
  73   36   69 1
  74   37   38 1
  75   38   70 1
  76   38   71 1
  77   38   72 1
  78   39   40 1
  79   40   73 1
  80   40   74 1
  81   40   75 1

#	End of record

