#	Name: ASD11920035
#	Creating user name:	WinNT
#	Creation time:	15. 06. 2019 21:29

#	Modifying user name:	WinNT
#	Modification time:	15. 06. 2019 21:29

#	Program:	/corina/corina34_cracker 3.40 0067  02.08.2006

@<TRIPOS>MOLECULE
ASD11920035
  43   46    0    0    0
SMALL
NO_CHARGES


@<TRIPOS>ATOM
   1 C1            -0.0168     1.3893     0.0097 C.ar    
   2 C2             0.0021    -0.0041     0.0020 C.ar    
   3 C3             1.2210    -0.6791    -0.0132 C.ar    
   4 C4             2.4022     0.0347    -0.0207 C.ar    
   5 C5             2.3775     1.4177    -0.0126 C.ar    
   6 C6             1.1704     2.0930     0.0021 C.ar    
   7 C7             3.6706     2.1917    -0.0198 C.3     
   8 C8             4.0889     2.4578    -1.4429 C.ar    
   9 C9             3.6633     3.6107    -2.0831 C.ar    
  10 C10            4.0465     3.8511    -3.3804 C.ar    
  11 C11            4.8626     2.9409    -4.0593 C.ar    
  12 C12            5.2873     1.7828    -3.4080 C.ar    
  13 C13            4.9011     1.5525    -2.1032 C.ar    
  14 C14            3.6058     5.0941    -4.1170 C.3     
  15 C15            4.0833     5.2627    -5.5431 C.2     
  16 N16            4.8673     4.3234    -6.0998 N.am    
  17 C17            5.2608     3.2185    -5.4511 C.2     
  18 O18            5.9703     2.4194    -6.0294 O.2     
  19 O19            5.2976     4.5098    -7.4358 O.3     
  20 O20            3.7596     6.2412    -6.1814 O.2     
  21 C21           -1.2710    -0.7660     0.0106 C.ar    
  22 C22           -2.4777    -2.8330     0.0115 C.ar    
  23 N23           -3.6189    -2.1714     0.0265 N.ar    
  24 C24           -3.6627    -0.8528     0.0283 C.ar    
  25 C25           -2.5028    -0.1057     0.0205 C.ar    
  26 C26           -1.2711    -2.1637     0.0031 C.ar    
  27 H27           -0.9588     1.9175     0.0170 H       
  28 H28            1.2415    -1.7589    -0.0189 H       
  29 H29            3.3475    -0.4874    -0.0325 H       
  30 H30            1.1570     3.1729     0.0084 H       
  31 H31            3.5300     3.1390     0.5008 H       
  32 H32            4.4440     1.6117     0.4838 H       
  33 H33            3.0326     4.3174    -1.5644 H       
  34 H34            5.9179     1.0717    -3.9210 H       
  35 H35            5.2286     0.6566    -1.5968 H       
  36 H36            2.5160     5.1096    -4.1251 H       
  37 H37            3.9445     5.9589    -3.5464 H       
  38 H38            5.8577     3.7967    -7.7718 H       
  39 H39           -2.4879    -3.9129     0.0106 H       
  40 H40           -4.4512    -2.6695     0.0321 H       
  41 H41           -4.6193    -0.3515     0.0404 H       
  42 H42           -2.5460     0.9734     0.0225 H       
  43 H43           -0.3406    -2.7117    -0.0095 H       
@<TRIPOS>BOND
   1    1    2 ar
   2    1    6 ar
   3    1   27 1
   4    2    3 ar
   5    2   21 1
   6    3    4 ar
   7    3   28 1
   8    4    5 ar
   9    4   29 1
  10    5    6 ar
  11    5    7 1
  12    6   30 1
  13    7    8 1
  14    7   31 1
  15    7   32 1
  16    8    9 ar
  17    8   13 ar
  18    9   10 ar
  19    9   33 1
  20   10   11 ar
  21   10   14 1
  22   11   12 ar
  23   11   17 1
  24   12   13 ar
  25   12   34 1
  26   13   35 1
  27   14   15 1
  28   14   36 1
  29   14   37 1
  30   15   16 am
  31   15   20 2
  32   16   17 am
  33   16   19 1
  34   17   18 2
  35   19   38 1
  36   21   26 ar
  37   21   25 ar
  38   22   23 ar
  39   22   26 ar
  40   22   39 1
  41   23   24 ar
  42   23   40 1
  43   24   25 ar
  44   24   41 1
  45   25   42 1
  46   26   43 1

#	End of record

