#	Name: ASD11000289
#	Creating user name:	WinNT
#	Creation time:	15. 06. 2019 21:29

#	Modifying user name:	WinNT
#	Modification time:	15. 06. 2019 21:29

#	Program:	/corina/corina34_cracker 3.40 0067  02.08.2006

@<TRIPOS>MOLECULE
ASD11000289
  26   27    0    0    0
SMALL
NO_CHARGES


@<TRIPOS>ATOM
   1 C1            -0.0189     1.4266     0.0536 C.3     
   2 O2            -0.0003    -0.0023     0.0526 O.3     
   3 C3             2.8694     3.7143     0.0035 C.ar    
   4 N4             1.6288     3.2491     0.0250 N.ar    
   5 C5             1.3950     1.9474     0.0286 C.ar    
   6 C6             2.4664     1.0678     0.0095 C.ar    
   7 C7             3.7507     1.5883    -0.0128 C.ar    
   8 N8             3.9150     2.9009    -0.0151 N.ar    
   9 N9             3.0779     5.0837    -0.0055 N.pl3   
  10 C10            4.3766     5.5941     0.0908 C.ar    
  11 C11            4.7196     6.7562    -0.5881 C.ar    
  12 C12            6.0026     7.2578    -0.4914 C.ar    
  13 C13            6.9462     6.6038     0.2812 C.ar    
  14 C14            6.6074     5.4455     0.9584 C.ar    
  15 C15            5.3240     4.9428     0.8701 C.ar    
  16 Cl16           8.5581     7.2372     0.4006 Cl      
  17 H17           -0.5532     1.7836    -0.8268 H       
  18 H18           -0.5214     1.7828     0.9529 H       
  19 H19           -0.8784    -0.4071     0.0681 H       
  20 H20            2.3039     0.0001     0.0123 H       
  21 H21            4.6070     0.9303    -0.0277 H       
  22 H22            2.3232     5.6888    -0.0785 H       
  23 H23            3.9836     7.2668    -1.1915 H       
  24 H24            6.2699     8.1612    -1.0194 H       
  25 H25            7.3458     4.9368     1.5603 H       
  26 H26            5.0587     4.0417     1.4029 H       
@<TRIPOS>BOND
   1    1    2 1
   2    1    5 1
   3    1   17 1
   4    1   18 1
   5    2   19 1
   6    3    4 ar
   7    3    8 ar
   8    3    9 1
   9    4    5 ar
  10    5    6 ar
  11    6    7 ar
  12    6   20 1
  13    7    8 ar
  14    7   21 1
  15    9   10 1
  16    9   22 1
  17   10   11 ar
  18   10   15 ar
  19   11   12 ar
  20   11   23 1
  21   12   13 ar
  22   12   24 1
  23   13   14 ar
  24   13   16 1
  25   14   15 ar
  26   14   25 1
  27   15   26 1

#	End of record

