#	Name: ASD10160081
#	Creating user name:	WinNT
#	Creation time:	15. 06. 2019 21:25

#	Modifying user name:	WinNT
#	Modification time:	15. 06. 2019 21:25

#	Program:	/corina/corina34_cracker 3.40 0067  02.08.2006

@<TRIPOS>MOLECULE
ASD10160081
  46   47    0    0    0
SMALL
NO_CHARGES


@<TRIPOS>ATOM
   1 C1             0.3704     1.0996     1.9635 C.2     
   2 C2             0.2881    -0.2781     1.4403 C.ar    
   3 C3             1.3727    -0.8332     0.7553 C.ar    
   4 C4             1.2908    -2.1226     0.2677 C.ar    
   5 C5             0.1276    -2.8678     0.4592 C.ar    
   6 C6            -0.9497    -2.3160     1.1392 C.ar    
   7 C7            -0.8718    -1.0320     1.6337 C.ar    
   8 O8             1.3826     1.7529     1.7988 O.2     
   9 N9            -0.6783     1.6353     2.6189 N.am    
  10 S10           -0.5859     3.1811     3.2059 S.o2    
  11 O11           -1.8385     3.3892     3.8438 O.2     
  12 O12            0.6263     3.2025     3.9472 O.2     
  13 C13           -0.4451     4.2198     1.7254 C.3     
  14 O14            2.3442    -2.6655    -0.3996 O.3     
  15 C15            3.5033    -1.8452    -0.5595 C.3     
  16 O16            0.0484    -4.1354    -0.0208 O.3     
  17 C17           -1.4072    -5.5716     1.2018 C.ar    
  18 C18           -1.1395    -4.7873     0.0912 C.ar    
  19 C19           -2.1021    -4.6746    -0.9083 C.ar    
  20 C20           -3.2976    -5.3557    -0.7519 C.ar    
  21 C21           -3.4950    -6.1235     0.3895 C.ar    
  22 N22           -2.5578    -6.2070     1.3182 N.ar    
  23 O23           -4.6637    -6.7950     0.5529 O.3     
  24 C24           -4.8069    -7.5669     1.7469 C.3     
  25 C25           -5.4217    -6.6976     2.8456 C.3     
  26 C26           -5.7192    -8.7644     1.4736 C.3     
  27 Cl27          -4.5341    -5.2514    -1.9659 Cl      
  28 H28            2.2727    -0.2548     0.6075 H       
  29 H29           -1.8489    -2.8960     1.2852 H       
  30 H30           -1.7095    -0.6068     2.1665 H       
  31 H31           -1.4872     1.1155     2.7468 H       
  32 H32           -1.3229     4.0755     1.0955 H       
  33 H33           -0.3782     5.2668     2.0212 H       
  34 H34            0.4504     3.9412     1.1700 H       
  35 H35            4.2666    -2.3976    -1.1074 H       
  36 H36            3.2378    -0.9451    -1.1140 H       
  37 H37            3.8897    -1.5671     0.4211 H       
  38 H38           -0.6637    -5.6674     1.9792 H       
  39 H39           -1.9209    -4.0700    -1.7847 H       
  40 H40           -3.8281    -7.9220     2.0695 H       
  41 H41           -5.5309    -7.2865     3.7563 H       
  42 H42           -4.7718    -5.8445     3.0403 H       
  43 H43           -6.4004    -6.3426     2.5229 H       
  44 H44           -5.2812    -9.3837     0.6909 H       
  45 H45           -5.8284    -9.3533     2.3844 H       
  46 H46           -6.6979    -8.4094     1.1510 H       
@<TRIPOS>BOND
   1    1    2 1
   2    1    8 2
   3    1    9 am
   4    2    3 ar
   5    2    7 ar
   6    3    4 ar
   7    3   28 1
   8    4    5 ar
   9    4   14 1
  10    5    6 ar
  11    5   16 1
  12    6    7 ar
  13    6   29 1
  14    7   30 1
  15    9   10 am
  16    9   31 1
  17   10   11 2
  18   10   12 2
  19   10   13 1
  20   13   32 1
  21   13   33 1
  22   13   34 1
  23   14   15 1
  24   15   35 1
  25   15   36 1
  26   15   37 1
  27   16   18 1
  28   17   18 ar
  29   17   22 ar
  30   17   38 1
  31   18   19 ar
  32   19   20 ar
  33   19   39 1
  34   20   21 ar
  35   20   27 1
  36   21   22 ar
  37   21   23 1
  38   23   24 1
  39   24   25 1
  40   24   26 1
  41   24   40 1
  42   25   41 1
  43   25   42 1
  44   25   43 1
  45   26   44 1
  46   26   45 1
  47   26   46 1

#	End of record

