#	Name: ASD10160190
#	Creating user name:	WinNT
#	Creation time:	15. 06. 2019 21:25

#	Modifying user name:	WinNT
#	Modification time:	15. 06. 2019 21:25

#	Program:	/corina/corina34_cracker 3.40 0067  02.08.2006

@<TRIPOS>MOLECULE
ASD10160190
  37   39    0    0    0
SMALL
NO_CHARGES


@<TRIPOS>ATOM
   1 C1            -0.0387     1.4700     0.0144 C.2     
   2 C2            -0.0132    -0.0043     0.0052 C.ar    
   3 C3             1.2023    -0.6846    -0.1324 C.ar    
   4 C4             1.2210    -2.0650    -0.1400 C.ar    
   5 C5             0.0366    -2.7778    -0.0118 C.ar    
   6 C6            -1.1748    -2.1048     0.1248 C.ar    
   7 C7            -1.2025    -0.7270     0.1397 C.ar    
   8 O8             0.9974     2.0967    -0.0977 O.2     
   9 N9            -1.2108     2.1230     0.1414 N.am    
  10 O10            0.0594    -4.1351    -0.0202 O.3     
  11 N11           -0.4622    -4.0663    -2.2718 N.ar    
  12 C12           -0.1514    -4.7680    -1.2005 C.ar    
  13 C13           -0.0363    -6.1658    -1.2714 C.ar    
  14 N14           -0.2355    -6.7961    -2.4042 N.ar    
  15 C15           -0.5521    -6.1030    -3.5050 C.ar    
  16 C16           -0.7703    -6.7528    -4.7314 C.ar    
  17 C17           -1.0907    -6.0227    -5.8349 C.ar    
  18 C18           -1.2063    -4.6360    -5.7677 C.ar    
  19 C19           -1.0020    -3.9725    -4.5966 C.ar    
  20 C20           -0.6696    -4.6924    -3.4367 C.ar    
  21 S21           -1.2394     3.7787     0.1518 S.o2    
  22 O22           -2.6118     4.1045     0.3245 O.2     
  23 O23           -0.2723     4.1398     1.1282 O.2     
  24 C24           -0.6768     4.2515    -1.5067 C.3     
  25 F25           -2.3243    -2.8037     0.2483 F       
  26 F26            2.3552     0.0084    -0.2581 F       
  27 H27            2.1582    -2.5911    -0.2461 H       
  28 H28           -2.1421    -0.2062     0.2506 H       
  29 H29           -2.0377     1.6231     0.2268 H       
  30 H30            0.2191    -6.7271    -0.3848 H       
  31 H31           -0.6838    -7.8273    -4.7985 H       
  32 H32           -1.2573    -6.5257    -6.7759 H       
  33 H33           -1.4612    -4.0794    -6.6574 H       
  34 H34           -1.0946    -2.8971    -4.5594 H       
  35 H35           -1.3555     3.8375    -2.2524 H       
  36 H36           -0.6645     5.3382    -1.5902 H       
  37 H37            0.3277     3.8629    -1.6741 H       
@<TRIPOS>BOND
   1    1    2 1
   2    1    8 2
   3    1    9 am
   4    2    3 ar
   5    2    7 ar
   6    3    4 ar
   7    3   26 1
   8    4    5 ar
   9    4   27 1
  10    5    6 ar
  11    5   10 1
  12    6    7 ar
  13    6   25 1
  14    7   28 1
  15    9   21 am
  16    9   29 1
  17   10   12 1
  18   11   12 ar
  19   11   20 ar
  20   12   13 ar
  21   13   14 ar
  22   13   30 1
  23   14   15 ar
  24   15   16 ar
  25   15   20 ar
  26   16   17 ar
  27   16   31 1
  28   17   18 ar
  29   17   32 1
  30   18   19 ar
  31   18   33 1
  32   19   20 ar
  33   19   34 1
  34   21   22 2
  35   21   23 2
  36   21   24 1
  37   24   35 1
  38   24   36 1
  39   24   37 1

#	End of record

