#	Name: ASD13110068
#	Creating user name:	WinNT
#	Creation time:	15. 06. 2019 21:30

#	Modifying user name:	WinNT
#	Modification time:	15. 06. 2019 21:30

#	Program:	/corina/corina34_cracker 3.40 0067  02.08.2006

@<TRIPOS>MOLECULE
ASD13110068
  58   61    0    0    0
SMALL
NO_CHARGES


@<TRIPOS>ATOM
   1 C1             0.6084     1.5831     0.4129 C.ar    
   2 C2             0.4065     0.2009     0.4476 C.ar    
   3 C3             1.5163    -0.6609     0.4525 C.ar    
   4 C4             2.8009    -0.1369     0.4231 C.ar    
   5 C5             2.9840     1.2300     0.3890 C.ar    
   6 C6             1.8898     2.0865     0.3840 C.ar    
   7 N7             1.0027    -1.9426     0.4895 N.pl3   
   8 C8            -0.3534    -1.8349     0.5056 C.2     
   9 N9            -0.7028    -0.5819     0.4811 N.2     
  10 C10           -1.3114    -2.9975     0.5449 C.3     
  11 N11           -1.7657    -3.3021    -0.8142 N.am    
  12 C12           -0.9676    -4.1797    -1.6739 C.3     
  13 C13           -2.9179    -2.7750    -1.2736 C.2     
  14 O14           -3.5339    -1.9801    -0.5957 O.2     
  15 C15           -3.4407    -3.1732    -2.6298 C.3     
  16 N16           -4.7560    -2.5645    -2.8441 N.am    
  17 C17           -5.0109    -1.3627    -3.5041 C.ar    
  18 C18           -6.3929    -1.1753    -3.4712 C.ar    
  19 O19           -6.9269    -2.2337    -2.8133 O.3     
  20 C20           -5.9411    -3.0667    -2.4445 C.2     
  21 C21           -6.9482    -0.0493    -4.0576 C.ar    
  22 C22           -6.1326     0.8817    -4.6713 C.ar    
  23 C23           -4.7609     0.6953    -4.7037 C.ar    
  24 C24           -4.1982    -0.4256    -4.1217 C.ar    
  25 O25           -6.0935    -4.1112    -1.8409 O.2     
  26 Cl26          -3.7453     1.8712    -5.4780 Cl      
  27 Cl27           2.1401     3.8039     0.3409 Cl      
  28 Cl28           4.5916     1.8843     0.3528 Cl      
  29 C29            1.7751    -3.1874     0.5073 C.3     
  30 C30            2.1780    -3.5170     1.9460 C.3     
  31 C31            3.0873    -4.7475     1.9517 C.3     
  32 O32            3.5566    -4.9868     3.2801 O.3     
  33 C33            4.5053    -6.0508     3.3785 C.3     
  34 O34            5.7436    -5.6404     2.7951 O.3     
  35 C35            6.4929    -4.7300     3.6023 C.3     
  36 H36           -0.2377     2.2542     0.4043 H       
  37 H37            3.6553    -0.7976     0.4272 H       
  38 H38           -0.8081    -3.8690     0.9636 H       
  39 H39           -2.1696    -2.7404     1.1657 H       
  40 H40           -1.3422    -5.2005    -1.5988 H       
  41 H41           -1.0411    -3.8408    -2.7073 H       
  42 H42            0.0744    -4.1507    -1.3553 H       
  43 H43           -2.7511    -2.8288    -3.4005 H       
  44 H44           -3.5299    -4.2583    -2.6805 H       
  45 H45           -8.0176     0.1001    -4.0351 H       
  46 H46           -6.5669     1.7587    -5.1282 H       
  47 H47           -3.1282    -0.5699    -4.1476 H       
  48 H48            1.1672    -3.9980     0.1054 H       
  49 H49            2.6706    -3.0680    -0.1025 H       
  50 H50            2.7107    -2.6696     2.3774 H       
  51 H51            1.2845    -3.7228     2.5355 H       
  52 H52            2.5271    -5.6149     1.6025 H       
  53 H53            3.9374    -4.5742     1.2918 H       
  54 H54            4.6633    -6.3010     4.4276 H       
  55 H55            4.1267    -6.9254     2.8495 H       
  56 H56            7.4183    -4.4669     3.0898 H       
  57 H57            5.9046    -3.8288     3.7753 H       
  58 H58            6.7275    -5.1997     4.5575 H       
@<TRIPOS>BOND
   1    1    2 ar
   2    1    6 ar
   3    1   36 1
   4    2    9 1
   5    2    3 ar
   6    3    4 ar
   7    3    7 1
   8    4    5 ar
   9    4   37 1
  10    5    6 ar
  11    5   28 1
  12    6   27 1
  13    7    8 1
  14    7   29 1
  15    8   10 1
  16    8    9 2
  17   10   11 1
  18   10   38 1
  19   10   39 1
  20   11   12 1
  21   11   13 am
  22   12   40 1
  23   12   41 1
  24   12   42 1
  25   13   14 2
  26   13   15 1
  27   15   16 1
  28   15   43 1
  29   15   44 1
  30   16   17 1
  31   16   20 am
  32   17   24 ar
  33   17   18 ar
  34   18   19 1
  35   18   21 ar
  36   19   20 1
  37   20   25 2
  38   21   22 ar
  39   21   45 1
  40   22   23 ar
  41   22   46 1
  42   23   24 ar
  43   23   26 1
  44   24   47 1
  45   29   30 1
  46   29   48 1
  47   29   49 1
  48   30   31 1
  49   30   50 1
  50   30   51 1
  51   31   32 1
  52   31   52 1
  53   31   53 1
  54   32   33 1
  55   33   34 1
  56   33   54 1
  57   33   55 1
  58   34   35 1
  59   35   56 1
  60   35   57 1
  61   35   58 1

#	End of record

