#	Name: ASD14310002
#	Creating user name:	WinNT
#	Creation time:	15. 06. 2019 21:31

#	Modifying user name:	WinNT
#	Modification time:	15. 06. 2019 21:31

#	Program:	/corina/corina34_cracker 3.40 0067  02.08.2006

@<TRIPOS>MOLECULE
ASD14310002
  73   72    0    0    0
SMALL
NO_CHARGES


@<TRIPOS>ATOM
   1 N1            -0.0178     1.4648     0.0101 N.3     
   2 C2             0.0021    -0.0041     0.0020 C.3     
   3 C3             0.8136    -0.5019     1.1702 C.2     
   4 N4             0.9710    -1.8260     1.3659 N.am    
   5 C5             1.7599    -2.3100     2.5015 C.3     
   6 C6             2.3068    -3.7035     2.1857 C.3     
   7 C7             3.2916    -3.6124     1.0183 C.3     
   8 C8             3.8303    -4.9850     0.7072 C.2     
   9 N9             4.7205    -5.1492    -0.2914 N.am    
  10 C10            5.2441    -6.4836    -0.5938 C.3     
  11 C11            6.5905    -6.3561    -1.2587 C.2     
  12 N12            7.2664    -7.4616    -1.6295 N.am    
  13 C13            8.5752    -7.3376    -2.2759 C.3     
  14 C14            9.3725    -8.5946    -2.0411 C.2     
  15 N15           10.6167    -8.7077    -2.5466 N.am    
  16 C16           11.3918    -9.9297    -2.3184 C.3     
  17 C17           12.4110   -10.0907    -3.4168 C.2     
  18 O18           13.2392   -11.1470    -3.4143 O.3     
  19 C19            0.6299    -0.4984    -1.3027 C.3     
  20 O20            1.3250     0.2891     1.9343 O.2     
  21 C21            0.8859    -2.3793     3.7272 C.2     
  22 O22           -0.2767    -2.0574     3.6591 O.2     
  23 O23            1.3990    -2.7985     4.8946 O.3     
  24 O24            3.4627    -5.9420     1.3554 O.2     
  25 C25            4.2785    -7.2097    -1.5325 C.3     
  26 O26            7.0658    -5.2586    -1.4601 O.2     
  27 C27            2.9504    -7.4499    -0.8118 C.3     
  28 C28            1.9847    -8.1760    -1.7505 C.3     
  29 C29            0.6567    -8.4162    -1.0297 C.3     
  30 N30            0.0180    -7.1260    -0.7373 N.3     
  31 C31           -0.2505    -9.2380    -1.9088 C.2     
  32 O32           -0.0885   -10.5684    -1.9828 O.3     
  33 O33           -1.1236    -8.6993    -2.5470 O.2     
  34 C34            8.3837    -7.1285    -3.7794 C.3     
  35 O35            8.8945    -9.5045    -1.3972 O.2     
  36 C36           12.1069    -9.8355    -0.9690 C.3     
  37 O37           12.4825    -9.2690    -4.2997 O.2     
  38 H38            0.9191     1.8392     0.0032 H       
  39 H39           -0.5563     1.8234    -0.7642 H       
  40 H40           -1.0174    -0.3817     0.0806 H       
  41 H41            0.5620    -2.4586     0.7548 H       
  42 H42            2.5895    -1.6271     2.6850 H       
  43 H43            2.8185    -4.1004     3.0625 H       
  44 H44            1.4832    -4.3644     1.9155 H       
  45 H45            2.7799    -3.2156     0.1415 H       
  46 H46            4.1152    -2.9515     1.2884 H       
  47 H47            5.0144    -4.3839    -0.8098 H       
  48 H48            5.3479    -7.0514     0.3309 H       
  49 H49            6.8862    -8.3393    -1.4684 H       
  50 H50            9.1087    -6.4851    -1.8556 H       
  51 H51           10.9990    -7.9800    -3.0616 H       
  52 H52           10.7220   -10.7896    -2.3153 H       
  53 H53           13.8760   -11.2073    -4.1396 H       
  54 H54            0.6447    -1.5883    -1.3087 H       
  55 H55            0.0430    -0.1384    -2.1477 H       
  56 H56            1.6494    -0.1208    -1.3813 H       
  57 H57            0.7996    -2.8260     5.6529 H       
  58 H58            4.1056    -6.5995    -2.4189 H       
  59 H59            4.7095    -8.1662    -1.8282 H       
  60 H60            3.1232    -8.0601     0.0747 H       
  61 H61            2.5193    -6.4934    -0.5160 H       
  62 H62            1.8119    -7.5658    -2.6369 H       
  63 H63            2.4158    -9.1325    -2.0462 H       
  64 H64            0.8406    -8.9502    -0.0975 H       
  65 H65            0.5774    -6.5824    -0.0973 H       
  66 H66           -0.1630    -6.6115    -1.5861 H       
  67 H67           -0.6945   -11.0530    -2.5599 H       
  68 H68            7.8070    -6.2192    -3.9492 H       
  69 H69            9.3575    -7.0362    -4.2603 H       
  70 H70            7.8502    -7.9810    -4.1998 H       
  71 H71           12.7768    -8.9757    -0.9721 H       
  72 H72           11.3698    -9.7191    -0.1745 H       
  73 H73           12.6836   -10.7448    -0.7992 H       
@<TRIPOS>BOND
   1    1    2 1
   2    1   38 1
   3    1   39 1
   4    2    3 1
   5    2   19 1
   6    2   40 1
   7    3    4 am
   8    3   20 2
   9    4    5 1
  10    4   41 1
  11    5    6 1
  12    5   21 1
  13    5   42 1
  14    6    7 1
  15    6   43 1
  16    6   44 1
  17    7    8 1
  18    7   45 1
  19    7   46 1
  20    8    9 am
  21    8   24 2
  22    9   10 1
  23    9   47 1
  24   10   11 1
  25   10   25 1
  26   10   48 1
  27   11   12 am
  28   11   26 2
  29   12   13 1
  30   12   49 1
  31   13   14 1
  32   13   34 1
  33   13   50 1
  34   14   15 am
  35   14   35 2
  36   15   16 1
  37   15   51 1
  38   16   17 1
  39   16   36 1
  40   16   52 1
  41   17   18 1
  42   17   37 2
  43   18   53 1
  44   19   54 1
  45   19   55 1
  46   19   56 1
  47   21   22 2
  48   21   23 1
  49   23   57 1
  50   25   27 1
  51   25   58 1
  52   25   59 1
  53   27   28 1
  54   27   60 1
  55   27   61 1
  56   28   29 1
  57   28   62 1
  58   28   63 1
  59   29   30 1
  60   29   31 1
  61   29   64 1
  62   30   65 1
  63   30   66 1
  64   31   32 1
  65   31   33 2
  66   32   67 1
  67   34   68 1
  68   34   69 1
  69   34   70 1
  70   36   71 1
  71   36   72 1
  72   36   73 1

#	End of record

