#	Name: ASD10420070
#	Creating user name:	WinNT
#	Creation time:	15. 06. 2019 21:27

#	Modifying user name:	WinNT
#	Modification time:	15. 06. 2019 21:27

#	Program:	/corina/corina34_cracker 3.40 0067  02.08.2006

@<TRIPOS>MOLECULE
ASD10420070
  81   85    0    0    0
SMALL
NO_CHARGES


@<TRIPOS>ATOM
   1 C1            -0.3911     1.4530    -0.0342 C.2     
   2 C2            -0.5914     0.0661    -0.0066 C.2     
   3 C3             0.5155    -0.7709     0.0994 C.2     
   4 C4             1.8079    -0.2063     0.1763 C.2     
   5 N5             1.9745     1.0861     0.1496 N.2     
   6 N6             0.8820     1.9567     0.0432 N.pl3   
   7 C7            -1.2840     2.5356    -0.1264 C.2     
   8 C8            -0.5182     3.7005    -0.1083 C.2     
   9 C9             0.8125     3.3254    -0.0027 C.2     
  10 C10            0.3405    -2.2341     0.1316 C.2     
  11 O11           -0.7738    -2.7144     0.0655 O.2     
  12 O12            1.4164    -3.0394     0.2344 O.3     
  13 C13           -2.7594     2.4536    -0.2249 C.ar    
  14 C14           -3.5045     1.9378     0.8356 C.ar    
  15 C15           -4.8788     1.8640     0.7378 C.ar    
  16 C16           -5.5180     2.3002    -0.4091 C.ar    
  17 C17           -4.7845     2.8124    -1.4645 C.ar    
  18 C18           -3.4101     2.8971    -1.3763 C.ar    
  19 C19           -1.0420     5.1114    -0.1851 C.3     
  20 C20           -1.4148     5.5847     1.1962 C.ar    
  21 C21           -1.8348     6.8872     1.3903 C.ar    
  22 C22           -2.1777     7.3215     2.6593 C.ar    
  23 C23           -2.0994     6.4503     3.7329 C.ar    
  24 C24           -1.6793     5.1487     3.5364 C.ar    
  25 C25           -1.3422     4.7145     2.2677 C.ar    
  26 C26           -1.9190     7.8342     0.2211 C.3     
  27 F27           -2.5879     8.5945     2.8503 F       
  28 Cl28          -2.1931    -0.5965    -0.1025 Cl      
  29 C29            1.9550     4.2401     0.0533 C.2     
  30 O30            2.2447     4.7887     1.1006 O.2     
  31 N31            2.6856     4.4744    -1.0547 N.am    
  32 C32            3.9016     5.2972    -0.9888 C.3     
  33 C33            5.0728     4.4873    -1.5585 C.3     
  34 N34            4.6681     3.9241    -2.8542 N.am    
  35 C35            3.4521     3.1013    -2.9202 C.3     
  36 C36            2.2840     3.9066    -2.3494 C.3     
  37 C37            5.3987     4.1584    -3.9623 C.2     
  38 O38            6.4020     4.8406    -3.8955 O.2     
  39 O39            5.0169     3.6365    -5.1432 O.3     
  40 C40            5.8516     3.9302    -6.2944 C.3     
  41 C41            7.2652     3.3993    -6.0481 C.3     
  42 C42            5.2631     3.2572    -7.5360 C.3     
  43 C43            5.9060     5.4437    -6.5121 C.3     
  44 C44            1.1690    -4.4699     0.2604 C.3     
  45 C45            2.4997    -5.2155     0.3798 C.3     
  46 H46            2.6687    -0.8535     0.2587 H       
  47 H47           -3.0067     1.5966     1.7313 H       
  48 H48           -5.4568     1.4646     1.5580 H       
  49 H49           -6.5939     2.2404    -0.4810 H       
  50 H50           -5.2890     3.1506    -2.3575 H       
  51 H51           -2.8390     3.3019    -2.1987 H       
  52 H52           -0.2714     5.7632    -0.5968 H       
  53 H53           -1.9218     5.1379    -0.8280 H       
  54 H54           -2.3663     6.7881     4.7233 H       
  55 H55           -1.6182     4.4690     4.3735 H       
  56 H56           -1.0182     3.6957     2.1144 H       
  57 H57           -2.9356     7.8368    -0.1719 H       
  58 H58           -1.6532     8.8395     0.5479 H       
  59 H59           -1.2289     7.5113    -0.5584 H       
  60 H60            3.7624     6.2034    -1.5783 H       
  61 H61            4.1092     5.5607     0.0483 H       
  62 H62            5.9355     5.1391    -1.6964 H       
  63 H63            5.3273     3.6797    -0.8721 H       
  64 H64            3.2445     2.8378    -3.9573 H       
  65 H65            3.5913     2.1951    -2.3307 H       
  66 H66            1.4236     3.2519    -2.2106 H       
  67 H67            2.0270     4.7115    -3.0380 H       
  68 H68            7.2265     2.3211    -5.8930 H       
  69 H69            7.8918     3.6197    -6.9124 H       
  70 H70            7.6845     3.8788    -5.1636 H       
  71 H71            4.2560     3.6354    -7.7115 H       
  72 H72            5.8897     3.4776    -8.4003 H       
  73 H73            5.2244     2.1790    -7.3809 H       
  74 H74            6.3252     5.9232    -5.6276 H       
  75 H75            6.5326     5.6641    -7.3764 H       
  76 H76            4.8989     5.8219    -6.6876 H       
  77 H77            0.5377    -4.7140     1.1148 H       
  78 H78            0.6665    -4.7685    -0.6597 H       
  79 H79            3.0021    -4.9170     1.2999 H       
  80 H80            2.3139    -6.2894     0.3993 H       
  81 H81            3.1309    -4.9714    -0.4746 H       
@<TRIPOS>BOND
   1    1    2 1
   2    1    6 1
   3    1    7 2
   4    2    3 2
   5    2   28 1
   6    3    4 1
   7    3   10 1
   8    4    5 2
   9    4   46 1
  10    5    6 1
  11    6    9 1
  12    7    8 1
  13    7   13 1
  14    8    9 2
  15    8   19 1
  16    9   29 1
  17   10   11 2
  18   10   12 1
  19   12   44 1
  20   13   14 ar
  21   13   18 ar
  22   14   15 ar
  23   14   47 1
  24   15   16 ar
  25   15   48 1
  26   16   17 ar
  27   16   49 1
  28   17   18 ar
  29   17   50 1
  30   18   51 1
  31   19   20 1
  32   19   52 1
  33   19   53 1
  34   20   21 ar
  35   20   25 ar
  36   21   22 ar
  37   21   26 1
  38   22   23 ar
  39   22   27 1
  40   23   24 ar
  41   23   54 1
  42   24   25 ar
  43   24   55 1
  44   25   56 1
  45   26   57 1
  46   26   58 1
  47   26   59 1
  48   29   30 2
  49   29   31 am
  50   31   32 1
  51   31   36 1
  52   32   33 1
  53   32   60 1
  54   32   61 1
  55   33   34 1
  56   33   62 1
  57   33   63 1
  58   34   35 1
  59   34   37 am
  60   35   36 1
  61   35   64 1
  62   35   65 1
  63   36   66 1
  64   36   67 1
  65   37   38 2
  66   37   39 1
  67   39   40 1
  68   40   41 1
  69   40   43 1
  70   40   42 1
  71   41   68 1
  72   41   69 1
  73   41   70 1
  74   42   71 1
  75   42   72 1
  76   42   73 1
  77   43   74 1
  78   43   75 1
  79   43   76 1
  80   44   45 1
  81   44   77 1
  82   44   78 1
  83   45   79 1
  84   45   80 1
  85   45   81 1

#	End of record

