#	Name: ASD14740012
#	Creating user name:	WinNT
#	Creation time:	15. 06. 2019 21:31

#	Modifying user name:	WinNT
#	Modification time:	15. 06. 2019 21:31

#	Program:	/corina/corina34_cracker 3.40 0067  02.08.2006

@<TRIPOS>MOLECULE
ASD14740012
  88   93    0    0    0
SMALL
NO_CHARGES


@<TRIPOS>ATOM
   1 F1            -1.6640     0.4959   -10.4583 F       
   2 F2            -2.5701     2.2075   -11.6703 F       
   3 F3            -3.6678     0.2097   -11.5177 F       
   4 O4             0.9404     3.8628    -9.8021 O.2     
   5 O5            -3.5397     1.5868    -9.6686 O.3     
   6 O6           -10.5145     2.6478    -0.5950 O.2     
   7 N7             5.0348     6.4820    -7.5726 N.3     
   8 N8             1.0513     5.1847    -8.0206 N.am    
   9 N9            -9.2683     1.4696    -4.7294 N.pl3   
  10 N10          -10.2953     1.4434    -3.9476 N.2     
  11 N11           -6.4329     2.2901    -5.7535 N.ar    
  12 N12           -4.7735     2.5535    -7.3819 N.pl3   
  13 N13           -4.2941     2.9073    -5.1205 N.ar    
  14 N14          -12.1836     1.6948    -1.7082 N.am    
  15 C15            2.3959     5.6372    -8.3859 C.3     
  16 C16            2.6536     7.0188    -7.7781 C.3     
  17 C17            3.4329     4.6489    -7.8450 C.3     
  18 C18            4.0807     7.4594    -8.1118 C.3     
  19 C19            4.8374     5.1583    -8.1768 C.3     
  20 C20            6.4182     6.9421    -7.7530 C.3     
  21 C21            0.4063     4.2923    -8.7978 C.2     
  22 C22           -8.6646     2.3841    -2.8321 C.2     
  23 C23           -7.7789     3.0616    -1.8275 C.3     
  24 C24           -8.2243     2.0319    -4.0904 C.2     
  25 C25           -6.3319     2.6098    -2.0290 C.3     
  26 C26           -5.9229     2.6228    -3.4730 C.ar    
  27 C27           -6.8357     2.3134    -4.4930 C.ar    
  28 C28           -0.9480     3.8366    -8.4299 C.ar    
  29 C29           -9.9996     1.9829    -2.7742 C.2     
  30 C30           -4.6271     2.9346    -3.8386 C.ar    
  31 C31           -1.6181     2.9110    -9.2351 C.ar    
  32 C32           -1.5606     4.3251    -7.2727 C.ar    
  33 C33          -10.9115     2.1315    -1.6217 C.2     
  34 C34           -9.2407     0.9592    -6.1024 C.3     
  35 C35           -5.1752     2.5843    -6.0562 C.ar    
  36 C36           -3.4938     2.9824    -7.7328 C.ar    
  37 C37           -2.8850     2.4869    -8.8870 C.ar    
  38 C38           -2.8245     3.8989    -6.9298 C.ar    
  39 C39          -13.0332     1.7923    -0.6016 C.ar    
  40 C40          -12.6400     1.2740     0.6255 C.ar    
  41 C41          -14.2695     2.4128    -0.7260 C.ar    
  42 C42          -11.2966     0.6059     0.7667 C.3     
  43 C43          -14.6978     2.9817    -2.0541 C.3     
  44 C44          -13.4814     1.3720     1.7163 C.ar    
  45 C45          -15.1062     2.5074     0.3688 C.ar    
  46 C46          -14.7141     1.9853     1.5877 C.ar    
  47 C47          -10.7806     0.7949     2.1946 C.3     
  48 C48          -15.2955     1.8685    -2.9169 C.3     
  49 C49           -2.8568     1.1225   -10.8348 C.3     
  50 H50            2.4783     5.6955    -9.4712 H       
  51 H51            3.3234     4.5617    -6.7641 H       
  52 H52            3.2812     3.6732    -8.3066 H       
  53 H53            1.9450     7.7363    -8.1920 H       
  54 H54            2.5318     6.9689    -6.6961 H       
  55 H55            4.9509     5.2321    -9.2584 H       
  56 H56            5.5785     4.4641    -7.7806 H       
  57 H57            4.2721     8.4366    -7.6684 H       
  58 H58            4.1977     7.5225    -9.1937 H       
  59 H59            0.6252     5.5274    -7.2194 H       
  60 H60            6.5568     7.8897    -7.2325 H       
  61 H61            7.1041     6.1997    -7.3450 H       
  62 H62            6.6202     7.0782    -8.8155 H       
  63 H63           -7.8431     4.1419    -1.9575 H       
  64 H64           -8.1042     2.7980    -0.8211 H       
  65 H65           -5.6736     3.2748    -1.4700 H       
  66 H66           -6.2209     1.5977    -1.6399 H       
  67 H67           -3.8953     3.1968    -3.0889 H       
  68 H68           -1.1458     2.5288   -10.1280 H       
  69 H69           -1.0426     5.0368    -6.6470 H       
  70 H70           -9.5224     1.7551    -6.7917 H       
  71 H71           -8.2355     0.6112    -6.3405 H       
  72 H72           -9.9435     0.1314    -6.1964 H       
  73 H73           -3.2964     4.2771    -6.0350 H       
  74 H74           -5.3825     2.2336    -8.0658 H       
  75 H75          -12.5099     1.3128    -2.5380 H       
  76 H76          -11.3961    -0.4585     0.5542 H       
  77 H77          -10.5931     1.0525     0.0640 H       
  78 H78          -15.4461     3.7577    -1.8927 H       
  79 H79          -13.8336     3.4103    -2.5615 H       
  80 H80          -13.1765     0.9688     2.6707 H       
  81 H81          -16.0676     2.9901     0.2728 H       
  82 H82          -15.3702     2.0606     2.4423 H       
  83 H83          -10.5507     1.8472     2.3615 H       
  84 H84          -11.5444     0.4731     2.9025 H       
  85 H85           -9.8791     0.1990     2.3369 H       
  86 H86          -15.5230     2.2597    -3.9085 H       
  87 H87          -14.5788     1.0519    -3.0041 H       
  88 H88          -16.2106     1.5007    -2.4527 H       
@<TRIPOS>BOND
   1    1   49 1
   2    2   49 1
   3    3   49 1
   4    4   21 2
   5    5   37 1
   6    5   49 1
   7    6   33 2
   8    7   18 1
   9    7   19 1
  10    7   20 1
  11    8   15 1
  12    8   21 am
  13    8   59 1
  14    9   10 1
  15    9   24 1
  16    9   34 1
  17   10   29 2
  18   11   27 ar
  19   11   35 ar
  20   12   35 1
  21   12   36 1
  22   12   74 1
  23   13   30 ar
  24   13   35 ar
  25   14   33 am
  26   14   39 1
  27   14   75 1
  28   15   16 1
  29   15   17 1
  30   15   50 1
  31   16   18 1
  32   16   53 1
  33   16   54 1
  34   17   19 1
  35   17   51 1
  36   17   52 1
  37   18   57 1
  38   18   58 1
  39   19   55 1
  40   19   56 1
  41   20   60 1
  42   20   61 1
  43   20   62 1
  44   21   28 1
  45   22   23 1
  46   22   24 2
  47   22   29 1
  48   23   25 1
  49   23   63 1
  50   23   64 1
  51   24   27 1
  52   25   26 1
  53   25   65 1
  54   25   66 1
  55   26   27 ar
  56   26   30 ar
  57   28   31 ar
  58   28   32 ar
  59   29   33 1
  60   30   67 1
  61   31   37 ar
  62   31   68 1
  63   32   38 ar
  64   32   69 1
  65   34   70 1
  66   34   71 1
  67   34   72 1
  68   36   37 ar
  69   36   38 ar
  70   38   73 1
  71   39   40 ar
  72   39   41 ar
  73   40   42 1
  74   40   44 ar
  75   41   43 1
  76   41   45 ar
  77   42   47 1
  78   42   76 1
  79   42   77 1
  80   43   48 1
  81   43   78 1
  82   43   79 1
  83   44   46 ar
  84   44   80 1
  85   45   46 ar
  86   45   81 1
  87   46   82 1
  88   47   83 1
  89   47   84 1
  90   47   85 1
  91   48   86 1
  92   48   87 1
  93   48   88 1

#	End of record

