#	Name: ASD10230001
#	Creating user name:	WinNT
#	Creation time:	15. 06. 2019 21:26

#	Modifying user name:	WinNT
#	Modification time:	15. 06. 2019 21:26

#	Program:	/corina/corina34_cracker 3.40 0067  02.08.2006

@<TRIPOS>MOLECULE
ASD10230001
  13   12    0    0    0
SMALL
NO_CHARGES


@<TRIPOS>ATOM
   1 O1             0.0021    -0.0041     0.0020 O.2     
   2 C2            -0.0144     1.2086     0.0087 C.2     
   3 N3             1.1435     1.8983     0.0013 N.am    
   4 C4             1.1237     3.3632     0.0094 C.3     
   5 C5             0.7623     3.8531     1.3880 C.2     
   6 O6             0.6832     5.1705     1.6327 O.3     
   7 O7             2.3793     1.2071    -0.0142 O.3     
   8 O8             0.5437     3.0600     2.2729 O.2     
   9 H9            -0.9569     1.7358     0.0160 H       
  10 H10            2.1087     3.7414    -0.2640 H       
  11 H11            0.3852     3.7205    -0.7083 H       
  12 H12            0.4480     5.4365     2.5322 H       
  13 H13            3.1538     1.7861    -0.0185 H       
@<TRIPOS>BOND
   1    1    2 2
   2    2    3 am
   3    2    9 1
   4    3    4 1
   5    3    7 1
   6    4    5 1
   7    4   10 1
   8    4   11 1
   9    5    6 1
  10    5    8 2
  11    6   12 1
  12    7   13 1

#	End of record

