#	Name: ASD10420020
#	Creating user name:	WinNT
#	Creation time:	15. 06. 2019 21:27

#	Modifying user name:	WinNT
#	Modification time:	15. 06. 2019 21:27

#	Program:	/corina/corina34_cracker 3.40 0067  02.08.2006

@<TRIPOS>MOLECULE
ASD10420020
  55   59    0    0    0
SMALL
NO_CHARGES


@<TRIPOS>ATOM
   1 N1            -0.1084     1.8068     0.4542 N.pl3   
   2 C2             0.0808     0.4549     0.3534 C.2     
   3 C3            -1.1375    -0.1284    -0.0391 C.2     
   4 C4            -2.0661     0.9031    -0.1727 C.2     
   5 C5            -1.4191     2.0910     0.1284 C.2     
   6 C6             0.9259     2.6175     0.8228 C.2     
   7 C7             2.1454     2.1020     1.0919 C.2     
   8 C8             2.3664     0.7203     0.9958 C.2     
   9 C9             1.3402    -0.0998     0.6300 C.2     
  10 C10           -2.0070     3.3801     0.1132 C.2     
  11 N11           -2.0897     4.0694    -1.0419 N.am    
  12 C12           -2.7929     5.3598    -1.1023 C.3     
  13 C13           -1.8661     6.3891    -1.7580 C.3     
  14 N14           -1.4041     5.8723    -3.0531 N.3     
  15 C15           -0.6042     4.6517    -2.8852 C.3     
  16 C16           -1.4740     3.5542    -2.2743 C.3     
  17 O17           -2.4375     3.8653     1.1441 O.2     
  18 C18           -3.5101     0.7538    -0.5771 C.3     
  19 C19           -4.3417     0.4344     0.6385 C.ar    
  20 C20           -4.8615     1.4596     1.4106 C.ar    
  21 C21           -5.6254     1.1662     2.5272 C.ar    
  22 C22           -5.8696    -0.1499     2.8710 C.ar    
  23 C23           -5.3503    -1.1748     2.0988 C.ar    
  24 C24           -4.5902    -0.8813     0.9792 C.ar    
  25 F25           -4.6228     2.7462     1.0745 F       
  26 F26           -5.5890    -2.4614     2.4349 F       
  27 C27           -1.3874    -1.5700    -0.2679 C.ar    
  28 C28           -1.3029    -2.4724     0.7925 C.ar    
  29 C29           -1.5373    -3.8142     0.5731 C.ar    
  30 C30           -1.8552    -4.2654    -0.6956 C.ar    
  31 C31           -1.9401    -3.3755    -1.7515 C.ar    
  32 C32           -1.7140    -2.0304    -1.5436 C.ar    
  33 H33            0.7679     3.6831     0.8998 H       
  34 H34            2.9538     2.7568     1.3820 H       
  35 H35            3.3417     0.3090     1.2102 H       
  36 H36            1.4955    -1.1657     0.5516 H       
  37 H37           -3.7012     5.2545    -1.6957 H       
  38 H38           -3.0469     5.6859    -0.0937 H       
  39 H39           -2.4090     7.3218    -1.9112 H       
  40 H40           -1.0076     6.5695    -1.1112 H       
  41 H41           -2.1812     5.7124    -3.6766 H       
  42 H42           -0.2318     4.3245    -3.8559 H       
  43 H43            0.2369     4.8564    -2.2227 H       
  44 H44           -0.8579     2.6855    -2.0421 H       
  45 H45           -2.2574     3.2735    -2.9783 H       
  46 H46           -3.8608     1.6847    -1.0228 H       
  47 H47           -3.6025    -0.0540    -1.3030 H       
  48 H48           -6.0302     1.9658     3.1298 H       
  49 H49           -6.4652    -0.3788     3.7423 H       
  50 H50           -4.1885    -1.6808     0.3744 H       
  51 H51           -1.0541    -2.1215     1.7832 H       
  52 H52           -1.4722    -4.5139     1.3932 H       
  53 H53           -2.0375    -5.3168    -0.8625 H       
  54 H54           -2.1883    -3.7338    -2.7397 H       
  55 H55           -1.7810    -1.3365    -2.3686 H       
@<TRIPOS>BOND
   1    1    2 1
   2    1    6 1
   3    1    5 1
   4    2    3 2
   5    2    9 1
   6    3    4 1
   7    3   27 1
   8    4    5 2
   9    4   18 1
  10    5   10 1
  11    6    7 2
  12    6   33 1
  13    7    8 1
  14    7   34 1
  15    8    9 2
  16    8   35 1
  17    9   36 1
  18   10   11 am
  19   10   17 2
  20   11   12 1
  21   11   16 1
  22   12   13 1
  23   12   37 1
  24   12   38 1
  25   13   14 1
  26   13   39 1
  27   13   40 1
  28   14   15 1
  29   14   41 1
  30   15   16 1
  31   15   42 1
  32   15   43 1
  33   16   44 1
  34   16   45 1
  35   18   19 1
  36   18   46 1
  37   18   47 1
  38   19   20 ar
  39   19   24 ar
  40   20   21 ar
  41   20   25 1
  42   21   22 ar
  43   21   48 1
  44   22   23 ar
  45   22   49 1
  46   23   24 ar
  47   23   26 1
  48   24   50 1
  49   27   28 ar
  50   27   32 ar
  51   28   29 ar
  52   28   51 1
  53   29   30 ar
  54   29   52 1
  55   30   31 ar
  56   30   53 1
  57   31   32 ar
  58   31   54 1
  59   32   55 1

#	End of record

