#	Name: ASD13390020
#	Creating user name:	WinNT
#	Creation time:	15. 06. 2019 21:30

#	Modifying user name:	WinNT
#	Modification time:	15. 06. 2019 21:30

#	Program:	/corina/corina34_cracker 3.40 0067  02.08.2006

@<TRIPOS>MOLECULE
ASD13390020
  30   30    0    0    0
SMALL
NO_CHARGES


@<TRIPOS>ATOM
   1 C1            -0.0163     1.3525     0.0095 C.ar    
   2 C2             0.0021    -0.0041     0.0020 C.ar    
   3 C3             1.2213    -0.7092    -0.0134 C.ar    
   4 C4             2.4292    -0.0253    -0.0214 C.ar    
   5 C5             2.4271     1.3767    -0.0138 C.ar    
   6 C6             1.1918     2.0740     0.0018 C.ar    
   7 C7             1.2144    -2.1801    -0.0208 C.2     
   8 N8             0.0810    -2.8276    -0.0129 N.2     
   9 N9             0.0750    -4.1175    -0.0193 N.2     
  10 C10           -1.0696    -4.7714    -0.0114 C.2     
  11 N11           -2.2539    -4.0803     0.0036 N.pl3   
  12 N12           -1.0759    -6.1426    -0.0183 N.pl3   
  13 C13            1.1961     3.4786     0.0084 C.ar    
  14 C14            3.6306     2.1053    -0.0220 C.ar    
  15 C15            3.5943     3.4657    -0.0147 C.ar    
  16 C16            2.3805     4.1503    -0.0003 C.ar    
  17 H17           -0.9591     1.8792     0.0168 H       
  18 H18           -0.9297    -0.5501     0.0084 H       
  19 H19            3.3626    -0.5685    -0.0329 H       
  20 H20            2.1472    -2.7243    -0.0326 H       
  21 H21           -2.2494    -3.1104     0.0084 H       
  22 H22           -3.0961    -4.5615     0.0094 H       
  23 H23           -0.2382    -6.6315    -0.0289 H       
  24 H24           -1.9182    -6.6238    -0.0124 H       
  25 H25            0.2638     4.0236     0.0199 H       
  26 H26            4.5784     1.5877    -0.0335 H       
  27 H27            4.5195     4.0228    -0.0210 H       
  28 H28            2.3792     5.2303     0.0047 H       
  29 Cl29           9.5784    10.2303     5.0199 Cl      
  30 H30            9.5784    11.6003     5.0199 H       
@<TRIPOS>BOND
   1    1    2 ar
   2    1    6 ar
   3    1   17 1
   4    2    3 ar
   5    2   18 1
   6    3    4 ar
   7    3    7 1
   8    4    5 ar
   9    4   19 1
  10    5    6 ar
  11    5   14 ar
  12    6   13 ar
  13    7    8 2
  14    7   20 1
  15    8    9 1
  16    9   10 2
  17   10   11 1
  18   10   12 1
  19   11   21 1
  20   11   22 1
  21   12   23 1
  22   12   24 1
  23   13   16 ar
  24   13   25 1
  25   14   15 ar
  26   14   26 1
  27   15   16 ar
  28   15   27 1
  29   16   28 1
  30   29   30 1

#	End of record

