#	Name: ASD10100015
#	Creating user name:	WinNT
#	Creation time:	15. 06. 2019 21:24

#	Modifying user name:	WinNT
#	Modification time:	15. 06. 2019 21:24

#	Program:	/corina/corina34_cracker 3.40 0067  02.08.2006

@<TRIPOS>MOLECULE
ASD10100015
  41   42    0    0    0
SMALL
NO_CHARGES


@<TRIPOS>ATOM
   1 P1            -0.0198     1.6058     0.0109 P.3     
   2 O2             0.0021    -0.0041     0.0020 O.3     
   3 O3             1.4907     2.1630    -0.0006 O.3     
   4 O4            -0.7984     2.1391    -1.2935 O.3     
   5 O5            -0.7125     2.0831     1.2285 O.2     
   6 C6             1.8087     3.5519     0.1083 C.3     
   7 C7             3.3273     3.7325     0.0636 C.3     
   8 C8             3.7003     5.2120     0.3050 C.3     
   9 C9             4.9032     5.4539    -0.6340 C.3     
  10 C10            5.1147     4.0920    -1.3317 C.3     
  11 O11            3.8302     3.4360    -1.2574 O.3     
  12 O12            4.0795     5.4169     1.6675 O.3     
  13 N13            5.5060     4.2903    -2.7294 N.am    
  14 C14            4.6413     4.8586    -3.5893 C.2     
  15 C15            6.7496     3.9009    -3.1469 C.2     
  16 C16            7.1102     4.0837    -4.4352 C.2     
  17 C17            6.1885     4.6776    -5.3308 C.2     
  18 N18            4.9746     5.0523    -4.8789 N.am    
  19 O19            3.5432     5.2017    -3.1960 O.2     
  20 C20            8.4756     3.6616    -4.9132 C.3     
  21 O21            6.4911     4.8531    -6.4973 O.2     
  22 P22           -1.0984    -1.1392     0.3062 P.3     
  23 O23           -1.9210    -0.7305     1.4667 O.2     
  24 O24           -2.0448    -1.3281    -0.9825 O.3     
  25 O25           -0.3577    -2.5300     0.6366 O.3     
  26 H26           -0.3990     1.8638    -2.1300 H       
  27 H27            1.3537     4.0949    -0.7201 H       
  28 H28            1.4243     3.9398     1.0517 H       
  29 H29            3.8066     3.0943     0.8060 H       
  30 H30            2.8691     5.8641     0.0367 H       
  31 H31            4.6668     6.2257    -1.3665 H       
  32 H32            5.7872     5.7298    -0.0590 H       
  33 H33            5.8697     3.5088    -0.8045 H       
  34 H34            4.3239     6.3292     1.8748 H       
  35 H35            7.4395     3.4497    -2.4491 H       
  36 H36            4.3377     5.4599    -5.4865 H       
  37 H37            8.4351     2.6303    -5.2638 H       
  38 H38            8.7914     4.3109    -5.7298 H       
  39 H39            9.1879     3.7383    -4.0917 H       
  40 H40           -1.5717    -1.5964    -1.7820 H       
  41 H41           -0.9609    -3.2605     0.8303 H       
@<TRIPOS>BOND
   1    1    2 1
   2    1    3 1
   3    1    4 1
   4    1    5 2
   5    2   22 1
   6    3    6 1
   7    4   26 1
   8    6    7 1
   9    6   27 1
  10    6   28 1
  11    7    8 1
  12    7   11 1
  13    7   29 1
  14    8    9 1
  15    8   12 1
  16    8   30 1
  17    9   10 1
  18    9   31 1
  19    9   32 1
  20   10   11 1
  21   10   13 1
  22   10   33 1
  23   12   34 1
  24   13   14 am
  25   13   15 1
  26   14   19 2
  27   14   18 am
  28   15   16 2
  29   15   35 1
  30   16   17 1
  31   16   20 1
  32   17   18 am
  33   17   21 2
  34   18   36 1
  35   20   37 1
  36   20   38 1
  37   20   39 1
  38   22   23 2
  39   22   24 1
  40   22   25 1
  41   24   40 1
  42   25   41 1

#	End of record

