#	Name: ASD10420203
#	Creating user name:	WinNT
#	Creation time:	15. 06. 2019 21:27

#	Modifying user name:	WinNT
#	Modification time:	15. 06. 2019 21:27

#	Program:	/corina/corina34_cracker 3.40 0067  02.08.2006

@<TRIPOS>MOLECULE
ASD10420203
  41   43    0    0    0
SMALL
NO_CHARGES


@<TRIPOS>ATOM
   1 N1            -0.0167     1.3799     0.0096 N.am    
   2 C2             0.0020    -0.0041     0.0006 C.ar    
   3 O3             0.9902    -4.0247    -0.0362 O.3     
   4 Cl4           -3.8273     3.4290     5.2008 Cl      
   5 C5             1.3507    -0.3988    -0.0138 C.ar    
   6 O6            -1.5838     2.5656    -1.0246 O.2     
   7 C7             1.6806    -1.7548    -0.0261 C.ar    
   8 O8             3.3404     0.9370    -2.3615 O.2     
   9 C9             0.6749    -2.7021    -0.0239 C.ar    
  10 O10            5.4457     1.0778    -1.7048 O.3     
  11 C11           -0.6598    -2.3075    -0.0095 C.ar    
  12 C12           -0.9956    -0.9712     0.0033 C.ar    
  13 C13           -0.0979    -4.9510    -0.0331 C.3     
  14 C14            2.1383     0.8388    -0.0129 C.2     
  15 C15            1.2704     1.8601     0.0013 C.2     
  16 C16           -1.1290     2.1410     0.0193 C.2     
  17 C17           -1.7949     2.4590     1.2982 C.ar    
  18 C18           -2.8853     3.3316     1.3231 C.ar    
  19 C19           -3.5032     3.6242     2.5205 C.ar    
  20 C20           -3.0444     3.0552     3.6972 C.ar    
  21 C21           -1.9632     2.1894     3.6791 C.ar    
  22 C22           -1.3407     1.8840     2.4873 C.ar    
  23 C23            1.6500     3.3185     0.0068 C.3     
  24 C24            3.6417     0.9425    -0.0246 C.3     
  25 C25            4.1312     0.9856    -1.4493 C.2     
  26 H26            2.7159    -2.0618    -0.0376 H       
  27 H27            5.7116     1.1022    -2.6342 H       
  28 H28           -1.4391    -3.0552    -0.0083 H       
  29 H29           -2.0343    -0.6755     0.0148 H       
  30 H30           -0.7156    -4.7889    -0.9165 H       
  31 H31            0.2916    -5.9690    -0.0440 H       
  32 H32           -0.6996    -4.8017     0.8634 H       
  33 H33           -3.2435     3.7764     0.4065 H       
  34 H34           -4.3464     4.2987     2.5410 H       
  35 H35           -1.6099     1.7492     4.5999 H       
  36 H36           -0.5008     1.2052     2.4739 H       
  37 H37            1.7509     3.6638     1.0357 H       
  38 H38            2.5981     3.4491    -0.5150 H       
  39 H39            0.8756     3.8974    -0.4965 H       
  40 H40            3.9472     1.8523     0.4921 H       
  41 H41            4.0696     0.0766     0.4806 H       
@<TRIPOS>BOND
   1    1    2 1
   2    1   15 1
   3    1   16 am
   4    2    5 ar
   5    2   12 ar
   6    3    9 1
   7    3   13 1
   8    4   20 1
   9    5    7 ar
  10    5   14 1
  11    6   16 2
  12    7    9 ar
  13    7   26 1
  14    8   25 2
  15    9   11 ar
  16   10   25 1
  17   10   27 1
  18   11   12 ar
  19   11   28 1
  20   12   29 1
  21   13   30 1
  22   13   31 1
  23   13   32 1
  24   14   15 2
  25   14   24 1
  26   15   23 1
  27   16   17 1
  28   17   18 ar
  29   17   22 ar
  30   18   19 ar
  31   18   33 1
  32   19   20 ar
  33   19   34 1
  34   20   21 ar
  35   21   22 ar
  36   21   35 1
  37   22   36 1
  38   23   37 1
  39   23   38 1
  40   23   39 1
  41   24   25 1
  42   24   40 1
  43   24   41 1

#	End of record

