#	Name: ASD11030030
#	Creating user name:	WinNT
#	Creation time:	15. 06. 2019 21:29

#	Modifying user name:	WinNT
#	Modification time:	15. 06. 2019 21:29

#	Program:	/corina/corina34_cracker 3.40 0067  02.08.2006

@<TRIPOS>MOLECULE
ASD11030030
  34   35    0    0    0
SMALL
NO_CHARGES


@<TRIPOS>ATOM
   1 O1             0.3059     0.9784    -1.6049 O.3     
   2 C2             0.2106    -0.0672    -0.7609 C.2     
   3 O3             1.1712    -0.4012    -0.0970 O.2     
   4 C4            -1.0633    -0.8080    -0.6428 C.ar    
   5 C5            -2.2385    -0.1284    -0.3085 C.ar    
   6 C6            -3.4235    -0.8201    -0.1995 C.ar    
   7 C7            -3.4472    -2.2011    -0.4238 C.ar    
   8 C8            -2.2676    -2.8754    -0.7580 C.ar    
   9 C9            -1.0934    -2.1871    -0.8710 C.ar    
  10 N10            0.1519    -2.9043    -1.2252 N.pl3   
  11 O11            0.1563    -4.2193    -1.2988 O.2     
  12 O12            1.2556    -2.2276    -1.4669 O.2     
  13 S13           -4.9618    -3.0907    -0.2848 S.3     
  14 S14           -6.1441    -1.6629     0.1752 S.3     
  15 C15           -6.5349    -1.0590    -1.4333 C.ar    
  16 C16           -5.9762    -1.6652    -2.5666 C.ar    
  17 C17           -6.2820    -1.1934    -3.8253 C.ar    
  18 C18           -7.1410    -0.1203    -3.9797 C.ar    
  19 C19           -7.7070     0.4958    -2.8576 C.ar    
  20 C20           -7.4084     0.0233    -1.5833 C.ar    
  21 C21           -8.6241     1.6420    -3.0261 C.2     
  22 O22           -8.2525     2.6352    -3.6184 O.2     
  23 O23           -9.8723     1.5855    -2.5228 O.3     
  24 N24           -7.4621     0.3785    -5.3359 N.pl3   
  25 O25           -6.8301    -0.1087    -6.3835 O.2     
  26 O26           -8.3800     1.3096    -5.4948 O.2     
  27 H27            1.1591     1.4316    -1.6478 H       
  28 H28           -2.2165     0.9374    -0.1358 H       
  29 H29           -4.3330    -0.2982     0.0588 H       
  30 H30           -2.2864    -3.9413    -0.9306 H       
  31 H31           -5.3045    -2.5033    -2.4536 H       
  32 H32           -5.8484    -1.6640    -4.6954 H       
  33 H33           -7.8425     0.4950    -0.7141 H       
  34 H34          -10.4357     2.3597    -2.6581 H       
@<TRIPOS>BOND
   1    1    2 1
   2    1   27 1
   3    2    3 2
   4    2    4 1
   5    4    5 ar
   6    4    9 ar
   7    5    6 ar
   8    5   28 1
   9    6    7 ar
  10    6   29 1
  11    7    8 ar
  12    7   13 1
  13    8    9 ar
  14    8   30 1
  15    9   10 1
  16   10   11 2
  17   10   12 2
  18   13   14 1
  19   14   15 1
  20   15   16 ar
  21   15   20 ar
  22   16   17 ar
  23   16   31 1
  24   17   18 ar
  25   17   32 1
  26   18   19 ar
  27   18   24 1
  28   19   20 ar
  29   19   21 1
  30   20   33 1
  31   21   22 2
  32   21   23 1
  33   23   34 1
  34   24   25 2
  35   24   26 2

#	End of record

