#	Name: ASD13680053
#	Creating user name:	WinNT
#	Creation time:	15. 06. 2019 21:30

#	Modifying user name:	WinNT
#	Modification time:	15. 06. 2019 21:30

#	Program:	/corina/corina34_cracker 3.40 0067  02.08.2006

@<TRIPOS>MOLECULE
ASD13680053
  35   38    0    0    0
SMALL
NO_CHARGES


@<TRIPOS>ATOM
   1 C1            -0.0179     1.4722     0.0101 C.2     
   2 C2             0.0021    -0.0041     0.0020 C.ar    
   3 N3             1.2368     1.9497     0.0007 N.am    
   4 C4             2.0640     3.1337    -0.2806 C.3     
   5 C5             2.1446     0.8220     0.3352 C.3     
   6 S6             3.4101     0.9550    -0.9822 S.3     
   7 C7             3.1527     2.7435    -1.3125 C.3     
   8 C8            -1.0087    -0.9571    -0.1266 C.ar    
   9 C9            -0.6934    -2.3003    -0.1145 C.ar    
  10 C10            0.6209    -2.7065     0.0315 C.ar    
  11 C11            1.6279    -1.7675     0.1785 C.ar    
  12 C12            1.3253    -0.4254     0.1735 C.ar    
  13 C13            2.7391     0.9505     1.7141 C.ar    
  14 C14            3.9429     0.3374     2.0077 C.ar    
  15 C15            4.4881     0.4552     3.2723 C.ar    
  16 C16            3.8297     1.1866     4.2435 C.ar    
  17 C17            2.6267     1.8002     3.9497 C.ar    
  18 C18            2.0835     1.6860     2.6834 C.ar    
  19 O19           -1.0233     2.1553     0.0188 O.2     
  20 C20            5.7998    -0.2139     3.5927 C.3     
  21 H21            1.4397     3.9285    -0.6890 H       
  22 H22            2.5370     3.4775     0.6392 H       
  23 H23            2.7937     2.9001    -2.3297 H       
  24 H24            4.0704     3.3044    -1.1356 H       
  25 H25           -2.0365    -0.6438    -0.2352 H       
  26 H26           -1.4758    -3.0374    -0.2191 H       
  27 H27            0.8622    -3.7592     0.0311 H       
  28 H28            2.6521    -2.0891     0.2973 H       
  29 H29            4.4572    -0.2339     1.2491 H       
  30 H30            4.2554     1.2781     5.2319 H       
  31 H31            2.1123     2.3713     4.7084 H       
  32 H32            1.1453     2.1686     2.4527 H       
  33 H33            6.6197     0.4704     3.3741 H       
  34 H34            5.8224    -0.4822     4.6490 H       
  35 H35            5.9062    -1.1137     2.9869 H       
@<TRIPOS>BOND
   1    1    2 1
   2    1    3 am
   3    1   19 2
   4    2    8 ar
   5    2   12 ar
   6    3    5 1
   7    3    4 1
   8    4    7 1
   9    4   21 1
  10    4   22 1
  11    5    6 1
  12    5   13 1
  13    5   12 1
  14    6    7 1
  15    7   23 1
  16    7   24 1
  17    8    9 ar
  18    8   25 1
  19    9   10 ar
  20    9   26 1
  21   10   11 ar
  22   10   27 1
  23   11   12 ar
  24   11   28 1
  25   13   14 ar
  26   13   18 ar
  27   14   15 ar
  28   14   29 1
  29   15   16 ar
  30   15   20 1
  31   16   17 ar
  32   16   30 1
  33   17   18 ar
  34   17   31 1
  35   18   32 1
  36   20   33 1
  37   20   34 1
  38   20   35 1

#	End of record

