#	Name: ASD10410050
#	Creating user name:	WinNT
#	Creation time:	15. 06. 2019 21:26

#	Modifying user name:	WinNT
#	Modification time:	15. 06. 2019 21:26

#	Program:	/corina/corina34_cracker 3.40 0067  02.08.2006

@<TRIPOS>MOLECULE
ASD10410050
  72   76    0    0    0
SMALL
NO_CHARGES


@<TRIPOS>ATOM
   1 N1            -0.7383     1.4576    -0.1123 N.pl3   
   2 C2            -1.0047     0.1688    -0.5873 C.ar    
   3 C3             0.5706     1.8574     0.1112 C.ar    
   4 N4             1.5778     1.0160    -0.0980 N.ar    
   5 C5             0.8505     3.1531     0.5544 C.ar    
   6 C6             2.1696     3.5070     0.7637 C.ar    
   7 N7             3.1235     2.6145     0.5399 N.ar    
   8 C8             2.8290     1.3952     0.1147 C.ar    
   9 Cl9           -0.4297     4.2917     0.8349 Cl      
  10 N10            3.8556     0.4911    -0.1070 N.pl3   
  11 C11            5.1868     0.9040     0.0031 C.ar    
  12 C12            6.1461     0.0342     0.5054 C.ar    
  13 C13            7.4602     0.4453     0.6129 C.ar    
  14 C14            7.8212     1.7215     0.2214 C.ar    
  15 C15            6.8685     2.5902    -0.2787 C.ar    
  16 C16            5.5539     2.1832    -0.3950 C.ar    
  17 C17            9.2559     2.1669     0.3406 C.3     
  18 N18            9.9724     1.8479    -0.9015 N.3     
  19 C19           11.3019     2.4739    -0.9182 C.3     
  20 C20           12.0447     2.0537    -2.1887 C.3     
  21 N21           11.2620     2.4548    -3.3660 N.3     
  22 C22            9.9326     1.8288    -3.3493 C.3     
  23 C23            9.1897     2.2490    -2.0788 C.3     
  24 C24           11.9785     2.1359    -4.6081 C.3     
  25 C25           -1.0508    -0.0729    -1.9543 C.ar    
  26 S26           -0.7739     1.2436    -3.0923 S.o2    
  27 C27           -1.8418     2.3867     0.1432 C.3     
  28 C28           -1.3134    -1.3457    -2.4210 C.ar    
  29 C29           -1.2176    -0.8717     0.3072 C.ar    
  30 C30           -1.4799    -2.1434    -0.1640 C.ar    
  31 C31           -1.5311    -2.3809    -1.5270 C.ar    
  32 F32           -1.7883    -3.6253    -1.9857 F       
  33 N33           -1.2850     0.7224    -4.5787 N.am    
  34 O34           -1.6518     2.2942    -2.7117 O.2     
  35 O35            0.6350     1.4035    -3.1857 O.2     
  36 C36           -2.6200     0.9460    -5.1527 C.3     
  37 C37           -2.6445     0.2618    -6.5357 C.3     
  38 C38           -1.5107    -0.7913    -6.4226 C.3     
  39 C39           -0.4747    -0.0371    -5.5482 C.3     
  40 H40            2.4207     4.5002     1.1057 H       
  41 H41            3.6506    -0.4283    -0.3386 H       
  42 H42            5.8647    -0.9624     0.8120 H       
  43 H43            8.2066    -0.2305     1.0034 H       
  44 H44            7.1536     3.5865    -0.5829 H       
  45 H45            4.8104     2.8619    -0.7860 H       
  46 H46            9.2893     3.2426     0.5133 H       
  47 H47            9.7286     1.6499     1.1757 H       
  48 H48           11.1934     3.5584    -0.9023 H       
  49 H49           11.8666     2.1517    -0.0434 H       
  50 H50           13.0199     2.5399    -2.2174 H       
  51 H51           12.1772     0.9718    -2.1915 H       
  52 H52            9.3679     2.1510    -4.2241 H       
  53 H53           10.0411     0.7444    -3.3653 H       
  54 H54            8.2146     1.7629    -2.0501 H       
  55 H55            9.0573     3.3310    -2.0761 H       
  56 H56           12.1592     1.0621    -4.6579 H       
  57 H57           11.3771     2.4431    -5.4637 H       
  58 H58           12.9310     2.6657    -4.6245 H       
  59 H59           -2.7883     1.9004    -0.0930 H       
  60 H60           -1.8354     2.6785     1.1934 H       
  61 H61           -1.7228     3.2725    -0.4808 H       
  62 H62           -1.3493    -1.5341    -3.4838 H       
  63 H63           -1.1778    -0.6869     1.3705 H       
  64 H64           -1.6452    -2.9531     0.5314 H       
  65 H65           -3.3796     0.5049    -4.5073 H       
  66 H66           -2.8010     2.0150    -5.2647 H       
  67 H67           -3.6052    -0.2230    -6.7092 H       
  68 H68           -2.4259     0.9805    -7.3255 H       
  69 H69           -1.8641    -1.6940    -5.9244 H       
  70 H70           -1.0954    -1.0251    -7.4029 H       
  71 H71            0.1215     0.6371    -6.1630 H       
  72 H72            0.1690    -0.7456    -5.0268 H       
@<TRIPOS>BOND
   1    1    2 1
   2    1    3 1
   3    1   27 1
   4    2   25 ar
   5    2   29 ar
   6    3    4 ar
   7    3    5 ar
   8    4    8 ar
   9    5    6 ar
  10    5    9 1
  11    6    7 ar
  12    6   40 1
  13    7    8 ar
  14    8   10 1
  15   10   11 1
  16   10   41 1
  17   11   12 ar
  18   11   16 ar
  19   12   13 ar
  20   12   42 1
  21   13   14 ar
  22   13   43 1
  23   14   15 ar
  24   14   17 1
  25   15   16 ar
  26   15   44 1
  27   16   45 1
  28   17   18 1
  29   17   46 1
  30   17   47 1
  31   18   19 1
  32   18   23 1
  33   19   20 1
  34   19   48 1
  35   19   49 1
  36   20   21 1
  37   20   50 1
  38   20   51 1
  39   21   22 1
  40   21   24 1
  41   22   23 1
  42   22   52 1
  43   22   53 1
  44   23   54 1
  45   23   55 1
  46   24   56 1
  47   24   57 1
  48   24   58 1
  49   25   26 1
  50   25   28 ar
  51   26   33 am
  52   26   34 2
  53   26   35 2
  54   27   59 1
  55   27   60 1
  56   27   61 1
  57   28   31 ar
  58   28   62 1
  59   29   30 ar
  60   29   63 1
  61   30   31 ar
  62   30   64 1
  63   31   32 1
  64   33   36 1
  65   33   39 1
  66   36   37 1
  67   36   65 1
  68   36   66 1
  69   37   38 1
  70   37   67 1
  71   37   68 1
  72   38   39 1
  73   38   69 1
  74   38   70 1
  75   39   71 1
  76   39   72 1

#	End of record

