#	Name: ASD13040004
#	Creating user name:	WinNT
#	Creation time:	15. 06. 2019 21:30

#	Modifying user name:	WinNT
#	Modification time:	15. 06. 2019 21:30

#	Program:	/corina/corina34_cracker 3.40 0067  02.08.2006

@<TRIPOS>MOLECULE
ASD13040004
  75   80    0    0    0
SMALL
NO_CHARGES


@<TRIPOS>ATOM
   1 O1             0.0021    -0.0041     0.0020 O.2     
   2 C2            -0.0144     1.2123     0.0087 C.2     
   3 N3            -1.1905     1.8702     0.0291 N.am    
   4 C4            -2.4491     1.1205     0.0432 C.3     
   5 C5            -3.5474     1.9794     0.6732 C.3     
   6 C6            -3.7257     3.2599    -0.1449 C.3     
   7 C7            -4.8617     1.1964     0.6879 C.3     
   8 C8            -5.2562     0.8350    -0.7455 C.3     
   9 O9            -6.4838     0.1037    -0.7318 O.3     
  10 C10           -5.4345     2.1155    -1.5637 C.3     
  11 C11           -4.1201     2.8985    -1.5784 C.3     
  12 C12           -3.0218     2.0396    -2.2084 C.3     
  13 C13           -4.1579    -0.0239    -1.3756 C.3     
  14 C14           -2.8435     0.7591    -1.3903 C.3     
  15 C15            1.2492     1.9650     0.0007 C.ar    
  16 C16            1.2432     3.3676     0.0083 C.ar    
  17 C17            2.4422     4.0274     0.0008 C.ar    
  18 C18            2.4833     1.2896    -0.0088 C.ar    
  19 S19            2.5193    -0.4720    -0.0123 S.3     
  20 C20            4.3078    -0.7499    -0.0248 C.3     
  21 C21            4.5902    -2.2479    -0.1552 C.3     
  22 C22            6.1021    -2.4828    -0.1658 C.3     
  23 C23            6.7083    -1.9612     1.1386 C.3     
  24 C24            6.4258    -0.4631     1.2690 C.3     
  25 C25            4.9140    -0.2282     1.2795 C.3     
  26 N26            3.6184     1.9724    -0.0156 N.ar    
  27 C27            3.6300     3.2974    -0.0139 C.ar    
  28 N28            4.8413     3.9678    -0.0219 N.3     
  29 C29            5.0096     4.7776     1.2119 C.3     
  30 C30            6.5410     5.0013     1.2829 C.3     
  31 C31            5.9735     3.0164    -0.0373 C.3     
  32 C32            7.1108     3.6543     0.7819 C.3     
  33 C33            8.3349     3.8923    -0.1046 C.3     
  34 C34            9.4749     4.4015     0.7393 C.2     
  35 O35           10.6581     4.6812     0.1706 O.3     
  36 O36            9.3238     4.5580     1.9279 O.2     
  37 H37           -1.2037     2.8401     0.0344 H       
  38 H38           -2.3220     0.2082     0.6260 H       
  39 H39           -3.2664     2.2368     1.6944 H       
  40 H40           -4.5081     3.8718     0.3039 H       
  41 H41           -2.7893     3.8177    -0.1554 H       
  42 H42           -4.7347     0.2841     1.2707 H       
  43 H43           -5.6442     1.8083     1.1367 H       
  44 H44           -6.7949    -0.1591    -1.6089 H       
  45 H45           -5.7155     1.8581    -2.5849 H       
  46 H46           -6.2169     2.7275    -1.1148 H       
  47 H47           -4.2472     3.8108    -2.1612 H       
  48 H48           -3.3028     1.7822    -3.2296 H       
  49 H49           -2.0854     2.5974    -2.2189 H       
  50 H50           -4.0308    -0.9362    -0.7927 H       
  51 H51           -4.4389    -0.2814    -2.3968 H       
  52 H52           -2.0611     0.1472    -1.8391 H       
  53 H53            0.3123     3.9151     0.0194 H       
  54 H54            2.4682     5.1071     0.0061 H       
  55 H55            4.7516    -0.2217    -0.8686 H       
  56 H56            4.1463    -2.7762     0.6886 H       
  57 H57            4.1583    -2.6196    -1.0844 H       
  58 H58            6.3033    -3.5500    -0.2587 H       
  59 H59            6.5460    -1.9546    -1.0096 H       
  60 H60            6.2644    -2.4894     1.9824 H       
  61 H61            7.7854    -2.1285     1.1311 H       
  62 H62            6.8578    -0.0915     2.1982 H       
  63 H63            6.8697     0.0651     0.4252 H       
  64 H64            4.7128     0.8390     1.3724 H       
  65 H65            4.4701    -0.7565     2.1233 H       
  66 H66            4.4855     5.7291     1.1219 H       
  67 H67            4.6604     4.2259     2.0847 H       
  68 H68            6.8427     5.8163     0.6250 H       
  69 H69            6.8549     5.1986     2.3079 H       
  70 H70            5.6720     2.0730     0.4179 H       
  71 H71            6.3034     2.8483    -1.0625 H       
  72 H72            7.3724     3.0167     1.6264 H       
  73 H73            8.6257     2.9563    -0.5814 H       
  74 H74            8.0916     4.6296    -0.8696 H       
  75 H75           11.3592     5.0052     0.7525 H       
@<TRIPOS>BOND
   1    1    2 2
   2    2   15 1
   3    2    3 am
   4    3   37 1
   5    3    4 1
   6    4   38 1
   7    4    5 1
   8    4   14 1
   9    5    6 1
  10    5   39 1
  11    5    7 1
  12    6   40 1
  13    6   41 1
  14    6   11 1
  15    7   42 1
  16    7   43 1
  17    7    8 1
  18    8   10 1
  19    8    9 1
  20    8   13 1
  21    9   44 1
  22   10   11 1
  23   10   45 1
  24   10   46 1
  25   11   47 1
  26   11   12 1
  27   12   48 1
  28   12   49 1
  29   12   14 1
  30   13   14 1
  31   13   50 1
  32   13   51 1
  33   14   52 1
  34   15   16 ar
  35   15   18 ar
  36   16   17 ar
  37   16   53 1
  38   17   27 ar
  39   17   54 1
  40   18   26 ar
  41   18   19 1
  42   19   20 1
  43   20   21 1
  44   20   55 1
  45   20   25 1
  46   21   22 1
  47   21   56 1
  48   21   57 1
  49   22   58 1
  50   22   59 1
  51   22   23 1
  52   23   60 1
  53   23   61 1
  54   23   24 1
  55   24   62 1
  56   24   63 1
  57   24   25 1
  58   25   64 1
  59   25   65 1
  60   26   27 ar
  61   27   28 1
  62   28   31 1
  63   28   29 1
  64   29   30 1
  65   29   66 1
  66   29   67 1
  67   30   68 1
  68   30   69 1
  69   30   32 1
  70   31   32 1
  71   31   70 1
  72   31   71 1
  73   32   72 1
  74   32   33 1
  75   33   34 1
  76   33   73 1
  77   33   74 1
  78   34   35 1
  79   34   36 2
  80   35   75 1

#	End of record

