#	Name: ASD15170005
#	Creating user name:	WinNT
#	Creation time:	15. 06. 2019 21:31

#	Modifying user name:	WinNT
#	Modification time:	15. 06. 2019 21:31

#	Program:	/corina/corina34_cracker 3.40 0067  02.08.2006

@<TRIPOS>MOLECULE
ASD15170005
  64   68    0    0    0
SMALL
NO_CHARGES


@<TRIPOS>ATOM
   1 C1            -0.2988     0.8363     0.6070 C.3     
   2 C2            -1.3578     1.9113     4.1494 C.3     
   3 C3            -3.4061     1.5612     2.7621 C.3     
   4 C4            -6.2035     0.1410    -1.6768 C.ar    
   5 C5            -6.9494    -2.6154     0.6268 C.3     
   6 C6            -5.9727    -3.6894     1.1157 C.3     
   7 C7            -6.7532    -4.7796     1.8546 C.3     
   8 C8            -8.4386    -3.2161     2.5376 C.3     
   9 C9            -8.2417    -1.0084    -1.1230 C.ar    
  10 C10           -8.2341     0.7146    -2.8168 C.ar    
  11 N11           -4.8336     0.3361    -1.4772 N.am    
  12 C12           -4.0861     0.9050    -2.4437 C.2     
  13 O13           -4.5828     1.1655    -3.5219 O.2     
  14 C14           -2.6592     1.2126    -2.1919 C.ar    
  15 N15           -2.1224     0.9257    -1.0124 N.ar    
  16 C16           -0.8597     1.1822    -0.7483 C.ar    
  17 C17           -0.0383     1.7664    -1.6989 C.ar    
  18 C18           -0.5584     2.0829    -2.9444 C.ar    
  19 C19           -1.8905     1.7963    -3.1968 C.ar    
  20 C20           -1.1482     1.4974     1.6943 C.3     
  21 C21           -0.5084     1.2503     3.0620 C.3     
  22 C22           -2.7663     1.3141     4.1298 C.3     
  23 C23           -2.5567     0.9001     1.6748 C.3     
  24 C24           -6.8875    -0.8156    -0.9262 C.ar    
  25 O25           -6.2220    -1.5582    -0.0018 O.3     
  26 O26           -7.4768    -4.1938     2.9388 O.3     
  27 C27           -7.7259    -2.0631     1.8261 C.3     
  28 C28           -8.9221    -0.2447    -2.0731 C.ar    
  29 C29           -6.8827     0.9036    -2.6178 C.ar    
  30 C30          -10.3717    -0.4477    -2.2863 C.2     
  31 N31          -11.1590     0.2213    -3.1651 N.pl3   
  32 N32          -12.4442    -0.3233    -2.9972 N.2     
  33 N33          -12.3506    -1.2284    -2.0843 N.2     
  34 N34          -11.1407    -1.3159    -1.6629 N.2     
  35 H35           -0.3141    -0.2453     0.7413 H       
  36 H36            0.7274     1.1968     0.6783 H       
  37 H37           -0.9020     1.7353     5.1237 H       
  38 H38           -1.4154     2.9838     3.9636 H       
  39 H39           -4.4095     1.1357     2.7482 H       
  40 H40           -3.4636     2.6337     2.5764 H       
  41 H41           -7.6458    -3.0540    -0.0878 H       
  42 H42           -5.4552    -4.1269     0.2620 H       
  43 H43           -5.2457    -3.2398     1.7922 H       
  44 H44           -7.4516    -5.2562     1.1668 H       
  45 H45           -6.0584    -5.5250     2.2417 H       
  46 H46           -9.1592    -3.6722     1.8587 H       
  47 H47           -8.9583    -2.8353     3.4168 H       
  48 H48           -8.7727    -1.7487    -0.5431 H       
  49 H49           -8.7602     1.3089    -3.5493 H       
  50 H50           -4.4211     0.0621    -0.6432 H       
  51 H51            0.9971     1.9735    -1.4718 H       
  52 H52            0.0615     2.5392    -3.7021 H       
  53 H53           -2.3276     2.0254    -4.1574 H       
  54 H54           -1.2057     2.5699     1.5086 H       
  55 H55            0.4950     1.6758     3.0759 H       
  56 H56           -0.4509     0.1777     3.2477 H       
  57 H57           -2.7088     0.2415     4.3155 H       
  58 H58           -3.3715     1.7850     4.9044 H       
  59 H59           -2.4991    -0.1724     1.8605 H       
  60 H60           -3.0125     1.0762     0.7004 H       
  61 H61           -7.0343    -1.5807     2.5169 H       
  62 H62           -8.4622    -1.3375     1.4805 H       
  63 H63           -6.3516     1.6463    -3.1946 H       
  64 H64          -10.8926     0.9246    -3.7777 H       
@<TRIPOS>BOND
   1    1   35 1
   2    1   36 1
   3    1   16 1
   4    1   20 1
   5    2   21 1
   6    2   37 1
   7    2   38 1
   8    2   22 1
   9    3   23 1
  10    3   39 1
  11    3   40 1
  12    3   22 1
  13    4   11 1
  14    4   24 ar
  15    4   29 ar
  16    5    6 1
  17    5   41 1
  18    5   25 1
  19    5   27 1
  20    6    7 1
  21    6   42 1
  22    6   43 1
  23    7   44 1
  24    7   45 1
  25    7   26 1
  26    8   26 1
  27    8   46 1
  28    8   47 1
  29    8   27 1
  30    9   24 ar
  31    9   48 1
  32    9   28 ar
  33   10   29 ar
  34   10   49 1
  35   10   28 ar
  36   11   12 am
  37   11   50 1
  38   12   14 1
  39   12   13 2
  40   14   15 ar
  41   14   19 ar
  42   15   16 ar
  43   16   17 ar
  44   17   51 1
  45   17   18 ar
  46   18   52 1
  47   18   19 ar
  48   19   53 1
  49   20   21 1
  50   20   54 1
  51   20   23 1
  52   21   55 1
  53   21   56 1
  54   22   57 1
  55   22   58 1
  56   23   59 1
  57   23   60 1
  58   24   25 1
  59   27   61 1
  60   27   62 1
  61   28   30 1
  62   29   63 1
  63   30   31 1
  64   30   34 2
  65   31   64 1
  66   31   32 1
  67   32   33 2
  68   33   34 1

#	End of record

