#	Name: ASD10160150
#	Creating user name:	WinNT
#	Creation time:	15. 06. 2019 21:25

#	Modifying user name:	WinNT
#	Modification time:	15. 06. 2019 21:25

#	Program:	/corina/corina34_cracker 3.40 0067  02.08.2006

@<TRIPOS>MOLECULE
ASD10160150
  48   50    0    0    0
SMALL
NO_CHARGES


@<TRIPOS>ATOM
   1 C1            -2.1620    -2.6836     5.0135 C.2     
   2 C2            -1.6114    -3.1597     3.7313 C.ar    
   3 C3            -0.2616    -3.5186     3.6368 C.ar    
   4 C4             0.2491    -3.9638     2.4341 C.ar    
   5 C5            -0.5738    -4.0552     1.3195 C.ar    
   6 C6            -1.9172    -3.6991     1.4094 C.ar    
   7 C7            -2.4373    -3.2596     2.6074 C.ar    
   8 O8            -1.4432    -2.6023     5.9911 O.2     
   9 N9            -3.4605    -2.3334     5.1008 N.am    
  10 S10           -4.0788    -1.7986     6.5410 S.o2    
  11 O11           -5.4507    -1.5532     6.2637 O.2     
  12 O12           -3.6873    -2.7904     7.4803 O.2     
  13 C13           -3.2049    -0.2410     6.8583 C.3     
  14 F14           -2.7131    -3.7901     0.3216 F       
  15 F15            0.5399    -3.4291     4.7207 F       
  16 O16           -0.0674    -4.4925     0.1386 O.3     
  17 C17            2.2577    -4.0629    -0.1501 C.ar    
  18 C18            1.2177    -4.9370     0.1206 C.ar    
  19 C19            1.5035    -6.2761     0.3743 C.ar    
  20 C20            2.8255    -6.6848     0.3461 C.ar    
  21 C21            3.8180    -5.7501     0.0670 C.ar    
  22 N22            3.5079    -4.4853    -0.1688 N.ar    
  23 N23            5.1520    -6.1498     0.0359 N.3     
  24 O24            7.2836    -7.1357    -2.6721 O.3     
  25 C25            7.1536    -6.5333    -1.3791 C.3     
  26 C26            5.7399    -5.9194    -1.2905 C.3     
  27 C27            4.9682    -6.7101    -2.3820 C.3     
  28 C28            6.0848    -6.9243    -3.4347 C.3     
  29 C29            5.9295    -5.4712     1.0814 C.3     
  30 Cl30           3.2403    -8.3419     0.6556 Cl      
  31 H31            1.2903    -4.2409     2.3599 H       
  32 H32           -3.4803    -2.9883     2.6770 H       
  33 H33           -4.0328    -2.3945     4.3201 H       
  34 H34           -3.4024     0.4584     6.0459 H       
  35 H35           -3.5537     0.1863     7.7985 H       
  36 H36           -2.1336    -0.4318     6.9212 H       
  37 H37            2.0426    -3.0240    -0.3522 H       
  38 H38            0.7122    -6.9791     0.5885 H       
  39 H39            7.2773    -7.2901    -0.6044 H       
  40 H40            7.9042    -5.7522    -1.2579 H       
  41 H41            5.7641    -4.8547    -1.5225 H       
  42 H42            4.6054    -7.6622    -1.9948 H       
  43 H43            4.1503    -6.1175    -2.7919 H       
  44 H44            6.1872    -6.0396    -4.0630 H       
  45 H45            5.8657    -7.8000    -4.0457 H       
  46 H46            5.5415    -5.7498     2.0612 H       
  47 H47            6.9755    -5.7683     1.0069 H       
  48 H48            5.8482    -4.3920     0.9518 H       
@<TRIPOS>BOND
   1    1    2 1
   2    1    8 2
   3    1    9 am
   4    2    3 ar
   5    2    7 ar
   6    3    4 ar
   7    3   15 1
   8    4    5 ar
   9    4   31 1
  10    5    6 ar
  11    5   16 1
  12    6    7 ar
  13    6   14 1
  14    7   32 1
  15    9   10 am
  16    9   33 1
  17   10   11 2
  18   10   12 2
  19   10   13 1
  20   13   34 1
  21   13   35 1
  22   13   36 1
  23   16   18 1
  24   17   18 ar
  25   17   22 ar
  26   17   37 1
  27   18   19 ar
  28   19   20 ar
  29   19   38 1
  30   20   21 ar
  31   20   30 1
  32   21   22 ar
  33   21   23 1
  34   23   26 1
  35   23   29 1
  36   24   25 1
  37   24   28 1
  38   25   26 1
  39   25   39 1
  40   25   40 1
  41   26   27 1
  42   26   41 1
  43   27   28 1
  44   27   42 1
  45   27   43 1
  46   28   44 1
  47   28   45 1
  48   29   46 1
  49   29   47 1
  50   29   48 1

#	End of record

