#	Name: ASD11030004
#	Creating user name:	WinNT
#	Creation time:	15. 06. 2019 21:29

#	Modifying user name:	WinNT
#	Modification time:	15. 06. 2019 21:29

#	Program:	/corina/corina34_cracker 3.40 0067  02.08.2006

@<TRIPOS>MOLECULE
ASD11030004
  19   20    0    0    0
SMALL
NO_CHARGES


@<TRIPOS>ATOM
   1 Cl1            0.0021    -0.0041     0.0020 Cl      
   2 C2            -0.0215     1.7317     0.0116 C.ar    
   3 C3             1.1698     2.4376     0.0040 C.ar    
   4 C4             1.1575     3.8169     0.0115 C.ar    
   5 C5            -0.0590     4.5010     0.0268 C.ar    
   6 C6            -1.2565     3.7840     0.0344 C.ar    
   7 C7            -1.2315     2.4049     0.0210 C.ar    
   8 C8            -0.0791     5.9791     0.0354 C.2     
   9 N9             0.9632     6.7605     0.0297 N.2     
  10 N10            0.7630     8.0055     0.0387 N.2     
  11 C11           -0.4731     8.4201     0.0532 C.2     
  12 S12           -1.5192     6.9989     0.0476 S.3     
  13 N13           -0.8908     9.7411     0.0648 N.pl3   
  14 H14            2.1105     1.9071    -0.0075 H       
  15 H15            2.0873     4.3664     0.0059 H       
  16 H16           -2.2008     4.3080     0.0466 H       
  17 H17           -2.1574     1.8491     0.0268 H       
  18 H18           -0.2361    10.4569     0.0622 H       
  19 H19           -1.8379     9.9502     0.0757 H       
@<TRIPOS>BOND
   1    1    2 1
   2    2    3 ar
   3    2    7 ar
   4    3    4 ar
   5    3   14 1
   6    4    5 ar
   7    4   15 1
   8    5    6 ar
   9    5    8 1
  10    6    7 ar
  11    6   16 1
  12    7   17 1
  13    8    9 2
  14    8   12 1
  15    9   10 1
  16   10   11 2
  17   11   12 1
  18   11   13 1
  19   13   18 1
  20   13   19 1

#	End of record

