#	Name: ASD11000084
#	Creating user name:	WinNT
#	Creation time:	15. 06. 2019 21:28

#	Modifying user name:	WinNT
#	Modification time:	15. 06. 2019 21:28

#	Program:	/corina/corina34_cracker 3.40 0067  02.08.2006

@<TRIPOS>MOLECULE
ASD11000084
  58   61    0    0    0
SMALL
NO_CHARGES


@<TRIPOS>ATOM
   1 C1            -1.4202    -0.0130    -0.5372 C.ar    
   2 C2            -0.9155    -1.2790    -0.3124 C.ar    
   3 C3             0.4543    -1.4946    -0.3404 C.ar    
   4 C4             1.3174    -0.4389    -0.5937 C.ar    
   5 C5             0.8128     0.8271    -0.8185 C.ar    
   6 C6            -0.5570     1.0426    -0.7910 C.ar    
   7 O7            -1.0539     2.2889    -1.0127 O.3     
   8 C8            -2.4744     2.4381    -0.9695 C.3     
   9 O9             0.9511    -2.7410    -0.1191 O.3     
  10 C10            2.3716    -2.8904    -0.1628 C.3     
  11 C11            2.7394    -4.3507     0.1076 C.3     
  12 N12            2.2457    -4.7410     1.4324 N.am    
  13 C13            2.1140    -5.2293    -0.9470 C.ar    
  14 C14            1.4085    -6.3696    -0.6321 C.ar    
  15 C15            2.2704    -4.8550    -2.2749 C.ar    
  16 C16            0.8688    -7.1469    -1.6500 C.ar    
  17 C17            1.0251    -6.7808    -2.9739 C.ar    
  18 C18            1.7292    -5.6228    -3.2899 C.ar    
  19 C19            2.1873    -6.1809     1.7344 C.3     
  20 C20            1.1734    -6.8189     0.7862 C.3     
  21 C21            1.8614    -3.8189     2.3370 C.2     
  22 O22            2.0294    -2.6368     2.1089 O.2     
  23 C23            1.2354    -4.2450     3.6068 C.ar    
  24 C24            1.3625    -3.4627     4.7606 C.ar    
  25 C25            0.5030    -5.4310     3.6738 C.ar    
  26 N26           -0.0549    -5.8104     4.8045 N.ar    
  27 C27            0.0528    -5.0962     5.9088 C.ar    
  28 C28            0.7575    -3.9062     5.9237 C.ar    
  29 O29            1.8852    -5.2493    -4.5882 O.3     
  30 C30            2.6200    -4.0486    -4.8341 C.3     
  31 O31            0.4932    -7.5483    -3.9625 O.3     
  32 C32           -0.2166    -8.7221    -3.5618 C.3     
  33 H33           -2.4870     0.1540    -0.5198 H       
  34 H34           -1.5876    -2.1010    -0.1145 H       
  35 H35            2.3841    -0.6067    -0.6148 H       
  36 H36            1.4849     1.6492    -1.0153 H       
  37 H37           -2.7364     3.4784    -1.1624 H       
  38 H38           -2.9298     1.8020    -1.7284 H       
  39 H39           -2.8404     2.1479     0.0154 H       
  40 H40            2.7373    -2.5999    -1.1477 H       
  41 H41            2.8273    -2.2544     0.5961 H       
  42 H42            3.8231    -4.4634     0.0767 H       
  43 H43            2.8188    -3.9566    -2.5171 H       
  44 H44            0.3225    -8.0456    -1.4044 H       
  45 H45            3.1687    -6.6298     1.5814 H       
  46 H46            1.8704    -6.3285     2.7668 H       
  47 H47            0.1672    -6.5314     1.0912 H       
  48 H48            1.2669    -7.9036     0.8387 H       
  49 H49            1.9187    -2.5370     4.7438 H       
  50 H50            0.3925    -6.0427     2.7907 H       
  51 H51           -0.4208    -5.4443     6.8149 H       
  52 H52            0.8384    -3.3312     6.8343 H       
  53 H53            2.6698    -3.8666    -5.9076 H       
  54 H54            2.1213    -3.2111    -4.3463 H       
  55 H55            3.6293    -4.1524    -4.4359 H       
  56 H56           -1.0560    -8.4399    -2.9263 H       
  57 H57           -0.5882    -9.2413    -4.4452 H       
  58 H58            0.4530    -9.3803    -3.0082 H       
@<TRIPOS>BOND
   1    1    2 ar
   2    1    6 ar
   3    1   33 1
   4    2    3 ar
   5    2   34 1
   6    3    4 ar
   7    3    9 1
   8    4    5 ar
   9    4   35 1
  10    5    6 ar
  11    5   36 1
  12    6    7 1
  13    7    8 1
  14    8   37 1
  15    8   38 1
  16    8   39 1
  17    9   10 1
  18   10   11 1
  19   10   40 1
  20   10   41 1
  21   11   12 1
  22   11   13 1
  23   11   42 1
  24   12   19 1
  25   12   21 am
  26   13   14 ar
  27   13   15 ar
  28   14   16 ar
  29   14   20 1
  30   15   18 ar
  31   15   43 1
  32   16   17 ar
  33   16   44 1
  34   17   18 ar
  35   17   31 1
  36   18   29 1
  37   19   20 1
  38   19   45 1
  39   19   46 1
  40   20   47 1
  41   20   48 1
  42   21   22 2
  43   21   23 1
  44   23   24 ar
  45   23   25 ar
  46   24   28 ar
  47   24   49 1
  48   25   26 ar
  49   25   50 1
  50   26   27 ar
  51   27   28 ar
  52   27   51 1
  53   28   52 1
  54   29   30 1
  55   30   53 1
  56   30   54 1
  57   30   55 1
  58   31   32 1
  59   32   56 1
  60   32   57 1
  61   32   58 1

#	End of record

