#	Name: ASD10160455
#	Creating user name:	WinNT
#	Creation time:	15. 06. 2019 21:26

#	Modifying user name:	WinNT
#	Modification time:	15. 06. 2019 21:26

#	Program:	/corina/corina34_cracker 3.40 0067  02.08.2006

@<TRIPOS>MOLECULE
ASD10160455
  30   31    0    0    0
SMALL
NO_CHARGES


@<TRIPOS>ATOM
   1 C1            -0.0247     1.4695    -0.1095 C.2     
   2 C2            -0.0028    -0.0046    -0.0866 C.ar    
   3 C3             0.0525    -0.6870     1.1344 C.ar    
   4 C4             0.0729    -2.0672     1.1506 C.ar    
   5 C5             0.0386    -2.7779    -0.0417 C.ar    
   6 C6            -0.0164    -2.1026    -1.2585 C.ar    
   7 C7            -0.0430    -0.7252    -1.2842 C.ar    
   8 O8             0.0052     2.0943     0.9334 O.2     
   9 N9            -0.0724     2.1246    -1.2864 N.am    
  10 O10            0.0593    -4.1349    -0.0213 O.3     
  11 C11            2.4158    -4.0211    -0.3545 C.ar    
  12 C12            1.2625    -4.7569    -0.1412 C.ar    
  13 C13            1.3537    -6.1478    -0.0506 C.ar    
  14 C14            2.6078    -6.7357    -0.1796 C.ar    
  15 C15            3.7094    -5.9308    -0.3909 C.ar    
  16 N16            3.5860    -4.6197    -0.4707 N.ar    
  17 O17            0.2467    -6.9065     0.1585 O.3     
  18 C18            0.4350    -8.3208     0.2374 C.3     
  19 F19           -0.0491    -2.7994    -2.4154 F       
  20 F20            0.0863     0.0039     2.2949 F       
  21 H21            0.1159    -2.5949     2.0919 H       
  22 H22           -0.0905    -0.2028    -2.2282 H       
  23 H23           -0.0923     1.6262    -2.1183 H       
  24 H24           -0.0868     3.0943    -1.3014 H       
  25 H25            2.3564    -2.9454    -0.4307 H       
  26 H26            2.7183    -7.8081    -0.1149 H       
  27 H27            4.6860    -6.3808    -0.4919 H       
  28 H28            1.1087    -8.5522     1.0624 H       
  29 H29           -0.5262    -8.8065     0.4061 H       
  30 H30            0.8660    -8.6827    -0.6961 H       
@<TRIPOS>BOND
   1    1    2 1
   2    1    8 2
   3    1    9 am
   4    2    3 ar
   5    2    7 ar
   6    3    4 ar
   7    3   20 1
   8    4    5 ar
   9    4   21 1
  10    5    6 ar
  11    5   10 1
  12    6    7 ar
  13    6   19 1
  14    7   22 1
  15    9   23 1
  16    9   24 1
  17   10   12 1
  18   11   12 ar
  19   11   16 ar
  20   11   25 1
  21   12   13 ar
  22   13   14 ar
  23   13   17 1
  24   14   15 ar
  25   14   26 1
  26   15   16 ar
  27   15   27 1
  28   17   18 1
  29   18   28 1
  30   18   29 1
  31   18   30 1

#	End of record

