#	Name: ASD13340001
#	Creating user name:	WinNT
#	Creation time:	15. 06. 2019 21:30

#	Modifying user name:	WinNT
#	Modification time:	15. 06. 2019 21:30

#	Program:	/corina/corina34_cracker 3.40 0067  02.08.2006

@<TRIPOS>MOLECULE
ASD13340001
  18   18    0    0    0
SMALL
NO_CHARGES


@<TRIPOS>ATOM
   1 C1            -0.0169     1.3951     0.0097 C.ar    
   2 C2             0.0021    -0.0041     0.0020 C.ar    
   3 C3             1.2073    -0.6732    -0.0131 C.ar    
   4 C4             2.3965     0.0352    -0.0206 C.ar    
   5 C5             2.3864     1.4194    -0.0126 C.ar    
   6 C6             1.1897     2.1037     0.0020 C.ar    
   7 C7            -1.2978     2.1169     0.0197 C.2     
   8 C8            -1.3120     3.4703     0.0271 C.2     
   9 C9            -2.5406     4.1626     0.0367 C.2     
  10 O10           -2.5533     5.3769     0.0434 O.2     
  11 H11           -0.9249    -0.5582     0.0082 H       
  12 H12            1.2237    -1.7531    -0.0187 H       
  13 H13            3.3374    -0.4949    -0.0325 H       
  14 H14            3.3186     1.9648    -0.0179 H       
  15 H15            1.1835     3.1837     0.0075 H       
  16 H16           -2.2274     1.5671     0.0212 H       
  17 H17           -0.3824     4.0201     0.0257 H       
  18 H18           -3.4702     3.6128     0.0382 H       
@<TRIPOS>BOND
   1    1    2 ar
   2    1    6 ar
   3    1    7 1
   4    2    3 ar
   5    2   11 1
   6    3    4 ar
   7    3   12 1
   8    4    5 ar
   9    4   13 1
  10    5    6 ar
  11    5   14 1
  12    6   15 1
  13    7    8 2
  14    7   16 1
  15    8    9 1
  16    8   17 1
  17    9   10 2
  18    9   18 1

#	End of record

