#	Name: ASD14870001
#	Creating user name:	WinNT
#	Creation time:	15. 06. 2019 21:31

#	Modifying user name:	WinNT
#	Modification time:	15. 06. 2019 21:31

#	Program:	/corina/corina34_cracker 3.40 0067  02.08.2006

@<TRIPOS>MOLECULE
ASD14870001
  55   57    0    0    0
SMALL
NO_CHARGES


@<TRIPOS>ATOM
   1 Cl1           -5.2308    -6.4980     6.6202 Cl      
   2 S2            -0.7413     2.9342     0.7119 S.3     
   3 O3            -5.9711    -2.7283     4.5184 O.3     
   4 O4            -5.9792    -2.0548    -1.1706 O.3     
   5 O5            -6.5556    -3.9802     2.7811 O.2     
   6 O6             2.3696     7.0630     1.2867 O.3     
   7 O7             3.1721     5.0070     1.1773 O.2     
   8 N8            -6.1304    -1.8405     2.3663 N.am    
   9 N9            -7.0310    -2.6170    -0.9745 N.2     
  10 C10           -4.1329    -0.9285     0.1378 C.ar    
  11 C11           -5.4139    -1.6468    -0.0178 C.2     
  12 C12           -6.0992    -3.9013     5.3645 C.3     
  13 C13           -6.2703    -2.0338     0.9827 C.2     
  14 C14           -1.7313     0.4194     0.4297 C.ar    
  15 C15           -5.1390    -3.7937     6.5211 C.ar    
  16 C16           -3.4346    -0.4878    -0.9882 C.ar    
  17 C17           -3.6175    -0.6817     1.4119 C.ar    
  18 C18           -7.3273    -2.6734     0.2924 C.2     
  19 C19           -2.2389     0.1829    -0.8356 C.ar    
  20 C20           -2.4207    -0.0098     1.5501 C.ar    
  21 C21           -0.4242     1.1524     0.5886 C.3     
  22 C22           -7.5307    -3.9922     5.8969 C.3     
  23 C23           -6.2308    -2.8893     3.2068 C.2     
  24 C24           -4.6891    -4.9380     7.1557 C.ar    
  25 C25           -4.7034    -2.5524     6.9444 C.ar    
  26 C26           -8.5556    -3.2969     0.9036 C.3     
  27 C27            0.9227     3.6330     0.8947 C.3     
  28 C28           -3.8078    -4.8385     8.2173 C.ar    
  29 C29           -3.8221    -2.4536     8.0052 C.ar    
  30 C30           -3.3771    -3.5960     8.6435 C.ar    
  31 C31            0.8263     5.1554     1.0132 C.3     
  32 C32            2.2086     5.7360     1.1651 C.2     
  33 H33           -5.8700    -4.7949     4.7840 H       
  34 H34           -3.8294    -0.6721    -1.9764 H       
  35 H35           -4.1548    -1.0159     2.2872 H       
  36 H36           -1.6959     0.5209    -1.7057 H       
  37 H37           -2.0187     0.1777     2.5347 H       
  38 H38            0.2103     0.9552    -0.2755 H       
  39 H39            0.0772     0.8091     1.4935 H       
  40 H40           -5.9616    -0.9521     2.7173 H       
  41 H41           -8.2252    -4.0700     5.0604 H       
  42 H42           -7.6269    -4.8727     6.5321 H       
  43 H43           -7.7599    -3.0986     6.4775 H       
  44 H44           -5.0510    -1.6595     6.4463 H       
  45 H45           -8.4206    -4.3766     0.9693 H       
  46 H46           -8.7116    -2.8889     1.9022 H       
  47 H47           -9.4229    -3.0764     0.2814 H       
  48 H48            1.3904     3.2277     1.7919 H       
  49 H49            1.5235     3.3738     0.0230 H       
  50 H50           -3.4565    -5.7312     8.7132 H       
  51 H51           -3.4814    -1.4833     8.3353 H       
  52 H52            0.3585     5.5607     0.1159 H       
  53 H53            0.2255     5.4147     1.8849 H       
  54 H54           -2.6891    -3.5181     9.4723 H       
  55 H55            3.2752     7.3885     1.3817 H       
@<TRIPOS>BOND
   1    1   24 1
   2    2   21 1
   3    2   27 1
   4    3   12 1
   5    3   23 1
   6    4    9 1
   7    4   11 1
   8    5   23 2
   9    6   32 1
  10    6   55 1
  11    7   32 2
  12    8   13 1
  13    8   23 am
  14    8   40 1
  15    9   18 2
  16   10   11 1
  17   10   16 ar
  18   10   17 ar
  19   11   13 2
  20   12   15 1
  21   12   22 1
  22   12   33 1
  23   13   18 1
  24   14   19 ar
  25   14   20 ar
  26   14   21 1
  27   15   24 ar
  28   15   25 ar
  29   16   19 ar
  30   16   34 1
  31   17   20 ar
  32   17   35 1
  33   18   26 1
  34   19   36 1
  35   20   37 1
  36   21   38 1
  37   21   39 1
  38   22   41 1
  39   22   42 1
  40   22   43 1
  41   24   28 ar
  42   25   29 ar
  43   25   44 1
  44   26   45 1
  45   26   46 1
  46   26   47 1
  47   27   31 1
  48   27   48 1
  49   27   49 1
  50   28   30 ar
  51   28   50 1
  52   29   30 ar
  53   29   51 1
  54   30   54 1
  55   31   32 1
  56   31   52 1
  57   31   53 1

#	End of record

