#	Name: ASD10010003
#	Creating user name:	WinNT
#	Creation time:	15. 06. 2019 21:24

#	Modifying user name:	WinNT
#	Modification time:	15. 06. 2019 21:24

#	Program:	/corina/corina34_cracker 3.40 0067  02.08.2006

@<TRIPOS>MOLECULE
ASD10010003
  43   46    0    0    0
SMALL
NO_CHARGES


@<TRIPOS>ATOM
   1 C1            -0.0178     1.5055     0.0071 C.3     
   2 C2             0.0025    -0.0040    -0.0010 C.2     
   3 C3            -0.2251    -0.6980     1.1292 C.2     
   4 O4            -0.4623    -0.0746     2.2985 O.3     
   5 C5            -0.9093     1.1909     2.3015 C.2     
   6 C6            -0.7276     2.0059     1.2341 C.2     
   7 C7             0.2676    -0.6571    -1.2201 C.2     
   8 C8             0.3217    -2.1582    -1.3047 C.3     
   9 C9             0.7508    -2.7166     0.0564 C.3     
  10 C10           -0.2262    -2.2088     1.1185 C.3     
  11 N11           -1.5644     1.6697     3.4087 N.pl3   
  12 O12            0.4555     0.0036    -2.2219 O.2     
  13 C13            0.7196    -4.2228     0.0184 C.ar    
  14 C14           -0.4619    -4.8787    -0.1424 C.ar    
  15 C15            1.9113    -4.9573     0.1432 C.ar    
  16 C16            1.8620    -6.3731     0.1053 C.ar    
  17 C17            0.6223    -7.0153    -0.0560 C.ar    
  18 C18           -0.5105    -6.2711    -0.1793 C.ar    
  19 C19            3.1509    -4.3152     0.3043 C.ar    
  20 C20            4.2844    -5.0591     0.4216 C.ar    
  21 C21            4.2360    -6.4516     0.3839 C.ar    
  22 C22            3.0537    -7.1076     0.2292 C.ar    
  23 C23           -1.2146     3.3518     1.2752 C.1     
  24 N24           -1.6010     4.4196     1.3078 N.1     
  25 C25            1.4186     2.0323     0.0016 C.3     
  26 H26           -0.5380     1.8647    -0.8809 H       
  27 H27           -0.6639    -2.5451    -1.5637 H       
  28 H28            1.0439    -2.4552    -2.0652 H       
  29 H29            1.7584    -2.3740     0.2917 H       
  30 H30            0.0778    -2.5788     2.0977 H       
  31 H31           -1.2294    -2.5690     0.8905 H       
  32 H32           -1.7001     1.0950     4.1782 H       
  33 H33           -1.8916     2.5828     3.4216 H       
  34 H34           -1.3757    -4.3117    -0.2425 H       
  35 H35            0.5695    -8.0935    -0.0870 H       
  36 H36           -1.4619    -6.7671    -0.3028 H       
  37 H37            3.2038    -3.2369     0.3346 H       
  38 H38            5.2358    -4.5632     0.5453 H       
  39 H39            5.1504    -7.0184     0.4785 H       
  40 H40            3.0315    -8.1870     0.2015 H       
  41 H41            1.9315     1.6797    -0.8933 H       
  42 H42            1.4059     3.1222     0.0074 H       
  43 H43            1.9418     1.6703     0.8866 H       
@<TRIPOS>BOND
   1    1    2 1
   2    1   25 1
   3    1    6 1
   4    1   26 1
   5    2    3 2
   6    2    7 1
   7    3    4 1
   8    3   10 1
   9    4    5 1
  10    5    6 2
  11    5   11 1
  12    6   23 1
  13    7    8 1
  14    7   12 2
  15    8    9 1
  16    8   27 1
  17    8   28 1
  18    9   10 1
  19    9   13 1
  20    9   29 1
  21   10   30 1
  22   10   31 1
  23   11   32 1
  24   11   33 1
  25   13   14 ar
  26   13   15 ar
  27   14   18 ar
  28   14   34 1
  29   15   16 ar
  30   15   19 ar
  31   16   17 ar
  32   16   22 ar
  33   17   18 ar
  34   17   35 1
  35   18   36 1
  36   19   20 ar
  37   19   37 1
  38   20   21 ar
  39   20   38 1
  40   21   22 ar
  41   21   39 1
  42   22   40 1
  43   23   24 3
  44   25   41 1
  45   25   42 1
  46   25   43 1

#	End of record

