#	Name: ASD15280022
#	Creating user name:	WinNT
#	Creation time:	15. 06. 2019 21:31

#	Modifying user name:	WinNT
#	Modification time:	15. 06. 2019 21:31

#	Program:	/corina/corina34_cracker 3.40 0067  02.08.2006

@<TRIPOS>MOLECULE
ASD15280022
  50   54    0    0    0
SMALL
NO_CHARGES


@<TRIPOS>ATOM
   1 F1             0.0021    -0.0041     0.0020 F       
   2 C2            -0.0162     1.3468     0.0094 C.ar    
   3 C3            -1.2187     2.0200     0.0303 C.ar    
   4 C4            -1.2362     3.4177     0.0385 C.ar    
   5 C5            -0.0347     4.1320     0.0255 C.ar    
   6 C6             1.1660     3.4602     0.0046 C.ar    
   7 C7             1.1858     2.0634     0.0018 C.ar    
   8 C8             2.4750     1.3431    -0.0149 C.2     
   9 N9             2.6173     0.0480    -0.0294 N.2     
  10 C10            3.8442    -0.4173    -0.0430 C.2     
  11 C11            4.8168     0.5018    -0.0405 C.2     
  12 C12            6.2974     0.2214    -0.0540 C.3     
  13 N13            6.7673     0.1449    -1.4394 N.am    
  14 C14            8.0674    -0.0991    -1.6976 C.2     
  15 O15            8.8501    -0.2557    -0.7808 O.2     
  16 C16            8.5417    -0.1763    -3.0959 C.ar    
  17 C17            7.6447     0.0091    -4.1491 C.ar    
  18 C18            8.0981    -0.0586    -5.4507 C.ar    
  19 C19            9.4301    -0.3138    -5.7139 C.ar    
  20 C20           10.3353    -0.5103    -4.6793 C.ar    
  21 N21           11.6693    -0.7918    -4.9080 N.am    
  22 C22           12.5374    -0.2570    -5.7264 C.2     
  23 O23           13.6613    -0.7153    -5.6654 O.2     
  24 C24           12.3494     0.8148    -6.7065 C.ar    
  25 C25           13.3030     1.8313    -6.8422 C.ar    
  26 C26           13.0950     2.8214    -7.7828 C.ar    
  27 N27           12.0216     2.8223    -8.5475 N.ar    
  28 C28           11.0964     1.8853    -8.4515 C.ar    
  29 C29           11.2273     0.8648    -7.5360 C.ar    
  30 S30            9.9888    -0.3806    -7.3878 S.o2    
  31 O31           10.6490    -1.6290    -7.5452 O.2     
  32 O32            8.8968     0.0356    -8.1963 O.2     
  33 C33            9.8845    -0.4283    -3.3633 C.ar    
  34 S34            4.0672     2.0969    -0.0262 S.3     
  35 C35           -2.4851     4.1179     0.0596 C.1     
  36 N36           -3.4759     4.6734     0.0765 N.1     
  37 H37           -2.1469     1.4680     0.0400 H       
  38 H38           -0.0488     5.2119     0.0314 H       
  39 H39            2.0937     4.0131    -0.0054 H       
  40 H40            4.0559    -1.4763    -0.0552 H       
  41 H41            6.8237     1.0228     0.4645 H       
  42 H42            6.4924    -0.7259     0.4487 H       
  43 H43            6.1428     0.2698    -2.1710 H       
  44 H44            6.6019     0.2039    -3.9465 H       
  45 H45            7.4077     0.0885    -6.2681 H       
  46 H46           12.0240    -1.5133    -4.3653 H       
  47 H47           14.1866     1.8412    -6.2213 H       
  48 H48           13.8252     3.6094    -7.8932 H       
  49 H49           10.2303     1.9194    -9.0957 H       
  50 H50           10.5788    -0.5652    -2.5475 H       
@<TRIPOS>BOND
   1    1    2 1
   2    2    7 ar
   3    2    3 ar
   4    3    4 ar
   5    3   37 1
   6    4    5 ar
   7    4   35 1
   8    5    6 ar
   9    5   38 1
  10    6    7 ar
  11    6   39 1
  12    7    8 1
  13    8   34 1
  14    8    9 2
  15    9   10 1
  16   10   11 2
  17   10   40 1
  18   11   12 1
  19   11   34 1
  20   12   13 1
  21   12   41 1
  22   12   42 1
  23   13   14 am
  24   13   43 1
  25   14   15 2
  26   14   16 1
  27   16   33 ar
  28   16   17 ar
  29   17   18 ar
  30   17   44 1
  31   18   19 ar
  32   18   45 1
  33   19   30 1
  34   19   20 ar
  35   20   21 1
  36   20   33 ar
  37   21   22 am
  38   21   46 1
  39   22   23 2
  40   22   24 1
  41   24   29 ar
  42   24   25 ar
  43   25   26 ar
  44   25   47 1
  45   26   27 ar
  46   26   48 1
  47   27   28 ar
  48   28   29 ar
  49   28   49 1
  50   29   30 1
  51   30   31 2
  52   30   32 2
  53   33   50 1
  54   35   36 3

#	End of record

