#	Name: ASD11030060
#	Creating user name:	WinNT
#	Creation time:	15. 06. 2019 21:29

#	Modifying user name:	WinNT
#	Modification time:	15. 06. 2019 21:29

#	Program:	/corina/corina34_cracker 3.40 0067  02.08.2006

@<TRIPOS>MOLECULE
ASD11030060
  82   87    0    0    0
SMALL
NO_CHARGES


@<TRIPOS>ATOM
   1 C1             3.1663    -0.2900     5.9312 C.ar    
   2 C2             3.7753    -1.3736     6.5494 C.ar    
   3 C3             5.1334    -1.5771     6.3457 C.ar    
   4 N4             5.8023    -0.7385     5.5741 N.ar    
   5 C5             5.1899     0.2884     4.9973 C.ar    
   6 N6             3.8927     0.5109     5.1717 N.ar    
   7 C7             5.9707     1.2060     4.1410 C.2     
   8 C8             5.4733     2.2900     3.4939 C.2     
   9 C9             6.5383     2.8978     2.7861 C.ar    
  10 C10            7.6904     2.1269     3.0414 C.ar    
  11 N11            7.3172     1.0985     3.8797 N.pl3   
  12 C12            6.6210     4.0266     1.9581 C.ar    
  13 C13            7.8126     4.3773     1.4016 C.ar    
  14 C14            8.9642     3.6161     1.6495 C.ar    
  15 C15            8.9005     2.4927     2.4698 C.ar    
  16 C16            8.2064     0.0567     4.3997 C.3     
  17 C17            4.0425     2.7624     3.5230 C.3     
  18 C18           10.2497     4.0081     1.0388 C.2     
  19 N19           10.3149     5.0954     0.2450 N.am    
  20 O20           11.2497     3.3502     1.2519 O.2     
  21 C21           11.6070     5.5408    -0.2825 C.3     
  22 C22           12.2326     4.5406    -1.2201 C.2     
  23 N23           11.4537     3.8031    -2.0361 N.am    
  24 O24           13.4370     4.3992    -1.2404 O.2     
  25 C25           12.0214     2.8047    -2.8275 C.ar    
  26 C26           13.1337     2.1038    -2.3673 C.ar    
  27 C27           13.6979     1.1245    -3.1331 C.ar    
  28 C28           13.1598     0.8182    -4.3893 C.ar    
  29 C29           12.0368     1.5237    -4.8572 C.ar    
  30 C30           11.4714     2.5098    -4.0689 C.ar    
  31 C31           11.5846     6.9749    -0.8372 C.3     
  32 C32           12.9691     7.1613    -0.1943 C.3     
  33 C33           12.5698     6.0560     0.8003 C.3     
  34 C34           13.7650    -0.2333    -5.2134 C.2     
  35 C35           14.8456    -0.9099    -4.7605 C.2     
  36 C36            3.9701     4.1896     4.0936 C.3     
  37 C37            3.3659     5.0770     2.9857 C.3     
  38 C38            2.5723     4.0874     2.0970 C.3     
  39 C39            3.4798     2.8323     2.0883 C.3     
  40 Br40           2.7766    -2.5468     7.6458 Br      
  41 O41           11.5075     1.2350    -6.0728 O.3     
  42 C42            9.9152     1.5296    -7.8667 C.3     
  43 C43           10.3672     1.9935    -6.4806 C.3     
  44 C44           15.4297    -1.9248    -5.5560 C.2     
  45 O45           14.9600    -2.1886    -6.6469 O.2     
  46 O46           16.5076    -2.5997    -5.1042 O.3     
  47 H47            2.1106    -0.1064     6.0658 H       
  48 H48            5.6372    -2.4106     6.8125 H       
  49 H49            5.7387     4.6177     1.7616 H       
  50 H50            7.8717     5.2474     0.7646 H       
  51 H51            9.7887     1.9084     2.6595 H       
  52 H52            8.6392     0.3866     5.3441 H       
  53 H53            7.6377    -0.8591     4.5608 H       
  54 H54            9.0037    -0.1324     3.6809 H       
  55 H55            3.4388     2.0869     4.1291 H       
  56 H56            9.5063     5.5829     0.0229 H       
  57 H57           10.4983     3.9667    -2.0731 H       
  58 H58           13.5523     2.3367    -1.3994 H       
  59 H59           14.5604     0.5855    -2.7699 H       
  60 H60           10.6087     3.0555    -4.4215 H       
  61 H61           11.5989     7.0222    -1.9261 H       
  62 H62           10.8101     7.6019    -0.3954 H       
  63 H63           13.7953     6.8811    -0.8477 H       
  64 H64           13.1073     8.1380     0.2694 H       
  65 H65           12.0645     6.4312     1.6903 H       
  66 H66           13.3794     5.3640     1.0321 H       
  67 H67           13.3481    -0.4675    -6.1818 H       
  68 H68           15.2625    -0.6757    -3.7922 H       
  69 H69            3.3306     4.2069     4.9761 H       
  70 H70            4.9698     4.5406     4.3495 H       
  71 H71            2.6981     5.8230     3.4163 H       
  72 H72            4.1559     5.5582     2.4092 H       
  73 H73            1.6034     3.8604     2.5418 H       
  74 H74            2.4523     4.4843     1.0890 H       
  75 H75            4.2882     2.9510     1.3669 H       
  76 H76            2.8950     1.9402     1.8640 H       
  77 H77            9.6535     0.4722    -7.8285 H       
  78 H78            9.0454     2.1082    -8.1778 H       
  79 H79           10.7248     1.6779    -8.5814 H       
  80 H80            9.5576     1.8452    -5.7659 H       
  81 H81           10.6289     3.0509    -6.5188 H       
  82 H82           16.8353    -3.2726    -5.7165 H       
@<TRIPOS>BOND
   1    1    2 ar
   2    1    6 ar
   3    1   47 1
   4    2    3 ar
   5    2   40 1
   6    3    4 ar
   7    3   48 1
   8    4    5 ar
   9    5    6 ar
  10    5    7 1
  11    7    8 2
  12    7   11 1
  13    8    9 1
  14    8   17 1
  15    9   10 ar
  16    9   12 ar
  17   10   11 1
  18   10   15 ar
  19   11   16 1
  20   12   13 ar
  21   12   49 1
  22   13   14 ar
  23   13   50 1
  24   14   15 ar
  25   14   18 1
  26   15   51 1
  27   16   52 1
  28   16   53 1
  29   16   54 1
  30   17   36 1
  31   17   39 1
  32   17   55 1
  33   18   19 am
  34   18   20 2
  35   19   21 1
  36   19   56 1
  37   21   22 1
  38   21   31 1
  39   21   33 1
  40   22   23 am
  41   22   24 2
  42   23   25 1
  43   23   57 1
  44   25   26 ar
  45   25   30 ar
  46   26   27 ar
  47   26   58 1
  48   27   28 ar
  49   27   59 1
  50   28   29 ar
  51   28   34 1
  52   29   30 ar
  53   29   41 1
  54   30   60 1
  55   31   32 1
  56   31   61 1
  57   31   62 1
  58   32   33 1
  59   32   63 1
  60   32   64 1
  61   33   65 1
  62   33   66 1
  63   34   35 2
  64   34   67 1
  65   35   44 1
  66   35   68 1
  67   36   37 1
  68   36   69 1
  69   36   70 1
  70   37   38 1
  71   37   71 1
  72   37   72 1
  73   38   39 1
  74   38   73 1
  75   38   74 1
  76   39   75 1
  77   39   76 1
  78   41   43 1
  79   42   43 1
  80   42   77 1
  81   42   78 1
  82   42   79 1
  83   43   80 1
  84   43   81 1
  85   44   45 2
  86   44   46 1
  87   46   82 1

#	End of record

