#	Name: ASD10410018
#	Creating user name:	WinNT
#	Creation time:	15. 06. 2019 21:26

#	Modifying user name:	WinNT
#	Modification time:	15. 06. 2019 21:26

#	Program:	/corina/corina34_cracker 3.40 0067  02.08.2006

@<TRIPOS>MOLECULE
ASD10410018
  71   75    0    0    0
SMALL
NO_CHARGES


@<TRIPOS>ATOM
   1 C1             0.1918     0.4196    -0.1489 C.3     
   2 C2            -0.5535    -0.8627    -0.4159 C.ar    
   3 C3             1.6222     0.2724    -0.5999 C.ar    
   4 N4             1.9508     0.4832    -1.8636 N.ar    
   5 C5             2.6115    -0.0802     0.3065 C.ar    
   6 C6             3.9150    -0.2043    -0.1507 C.ar    
   7 N7             4.1739     0.0159    -1.4292 N.ar    
   8 C8             3.2063     0.3561    -2.2674 C.ar    
   9 Cl9            2.2266    -0.3593     1.9761 Cl      
  10 N10            3.5137     0.5792    -3.6002 N.pl3   
  11 C11            4.8465     0.5648    -4.0221 C.ar    
  12 C12            5.1774     0.0413    -5.2654 C.ar    
  13 C13            6.4949     0.0290    -5.6792 C.ar    
  14 C14            7.4842     0.5372    -4.8574 C.ar    
  15 C15            7.1582     1.0591    -3.6190 C.ar    
  16 C16            5.8420     1.0792    -3.2012 C.ar    
  17 C17            8.9209     0.5217    -5.3121 C.3     
  18 N18            9.2203     1.7670    -6.0315 N.3     
  19 C19           10.6624     1.8962    -6.2831 C.3     
  20 C20           10.9232     3.1630    -7.1015 C.3     
  21 N21           10.4128     4.3301    -6.3688 N.3     
  22 C22            8.9707     4.2010    -6.1171 C.3     
  23 C23            8.7098     2.9342    -5.2988 C.3     
  24 C24           10.7121     5.5755    -7.0881 C.3     
  25 C25           -1.4874    -0.9190    -1.4342 C.ar    
  26 C26           -0.2984    -1.9822     0.3540 C.ar    
  27 C27           -0.9798    -3.1593     0.1106 C.ar    
  28 C28           -1.9208    -3.2169    -0.9068 C.ar    
  29 C29           -2.1716    -2.0932    -1.6812 C.ar    
  30 O30           -2.5920    -4.3736    -1.1485 O.3     
  31 S31           -1.8052     0.5084    -2.4171 S.o2    
  32 N32           -2.5664     1.6128    -1.4459 N.am    
  33 O33           -0.5377     1.0639    -2.7396 O.2     
  34 O34           -2.7545     0.1162    -3.3991 O.2     
  35 C35           -1.9176     2.7358    -0.7534 C.3     
  36 C36           -3.0108     3.4724     0.0490 C.3     
  37 C37           -4.1093     2.3894     0.2150 C.3     
  38 C38           -4.0078     1.6366    -1.1376 C.3     
  39 H39           -0.2800     1.2350    -0.6972 H       
  40 H40            0.1681     0.6381     0.9187 H       
  41 H41            4.7090    -0.4770     0.5288 H       
  42 H42            2.8041     0.7453    -4.2404 H       
  43 H43            4.4053    -0.3560    -5.9075 H       
  44 H44            6.7530    -0.3782    -6.6457 H       
  45 H45            7.9332     1.4552    -2.9796 H       
  46 H46            5.5880     1.4869    -2.2339 H       
  47 H47            9.5756     0.4367    -4.4448 H       
  48 H48            9.0832    -0.3286    -5.9746 H       
  49 H49           11.1929     1.9613    -5.3332 H       
  50 H50           11.0141     1.0262    -6.8376 H       
  51 H51           11.9950     3.2763    -7.2646 H       
  52 H52           10.4149     3.0861    -8.0626 H       
  53 H53            8.6189     5.0710    -5.5626 H       
  54 H54            8.4402     4.1359    -7.0671 H       
  55 H55            7.6381     2.8209    -5.1357 H       
  56 H56            9.2182     3.0110    -4.3377 H       
  57 H57           10.2439     5.5483    -8.0721 H       
  58 H58           10.3234     6.4233    -6.5241 H       
  59 H59           11.7912     5.6789    -7.2020 H       
  60 H60            0.4343    -1.9368     1.1460 H       
  61 H61           -0.7796    -4.0338     0.7119 H       
  62 H62           -2.9041    -2.1354    -2.4737 H       
  63 H63           -3.4159    -4.4618    -0.6500 H       
  64 H64           -1.1503     2.3603    -0.0763 H       
  65 H65           -1.4725     3.4133    -1.4820 H       
  66 H66           -2.6299     3.7874     1.0205 H       
  67 H67           -3.3921     4.3256    -0.5120 H       
  68 H68           -3.8831     1.7284     1.0518 H       
  69 H69           -5.0924     2.8450     0.3338 H       
  70 H70           -4.5579     2.1716    -1.9117 H       
  71 H71           -4.3872     0.6199    -1.0353 H       
@<TRIPOS>BOND
   1    1    2 1
   2    1    3 1
   3    1   39 1
   4    1   40 1
   5    2   25 ar
   6    2   26 ar
   7    3    4 ar
   8    3    5 ar
   9    4    8 ar
  10    5    6 ar
  11    5    9 1
  12    6    7 ar
  13    6   41 1
  14    7    8 ar
  15    8   10 1
  16   10   11 1
  17   10   42 1
  18   11   12 ar
  19   11   16 ar
  20   12   13 ar
  21   12   43 1
  22   13   14 ar
  23   13   44 1
  24   14   15 ar
  25   14   17 1
  26   15   16 ar
  27   15   45 1
  28   16   46 1
  29   17   18 1
  30   17   47 1
  31   17   48 1
  32   18   19 1
  33   18   23 1
  34   19   20 1
  35   19   49 1
  36   19   50 1
  37   20   21 1
  38   20   51 1
  39   20   52 1
  40   21   22 1
  41   21   24 1
  42   22   23 1
  43   22   53 1
  44   22   54 1
  45   23   55 1
  46   23   56 1
  47   24   57 1
  48   24   58 1
  49   24   59 1
  50   25   31 1
  51   25   29 ar
  52   26   27 ar
  53   26   60 1
  54   27   28 ar
  55   27   61 1
  56   28   29 ar
  57   28   30 1
  58   29   62 1
  59   30   63 1
  60   31   32 am
  61   31   33 2
  62   31   34 2
  63   32   35 1
  64   32   38 1
  65   35   36 1
  66   35   64 1
  67   35   65 1
  68   36   37 1
  69   36   66 1
  70   36   67 1
  71   37   38 1
  72   37   68 1
  73   37   69 1
  74   38   70 1
  75   38   71 1

#	End of record

