#	Name: ASD14170012
#	Creating user name:	WinNT
#	Creation time:	15. 06. 2019 21:30

#	Modifying user name:	WinNT
#	Modification time:	15. 06. 2019 21:30

#	Program:	/corina/corina34_cracker 3.40 0067  02.08.2006

@<TRIPOS>MOLECULE
ASD14170012
  31   32    0    0    0
SMALL
NO_CHARGES


@<TRIPOS>ATOM
   1 C1             0.3559     1.8051     0.0016 C.2     
   2 C2             0.5152     0.4973    -0.4655 C.2     
   3 C3             1.2899    -0.1744     0.4301 C.2     
   4 N4             1.6044     0.6920     1.4279 N.pl3   
   5 N5             1.0053     1.9229     1.1314 N.2     
   6 N6             1.6875    -1.5090     0.3399 N.am    
   7 C7            -0.4258     2.8963    -0.6833 C.3     
   8 F8            -1.7525     2.8679    -0.2404 F       
   9 F9             0.1413     4.1382    -0.3780 F       
  10 F10           -0.3919     2.6958    -2.0675 F       
  11 C11            2.9983    -1.8212     0.3112 C.2     
  12 N12            3.3829    -3.1125     0.2785 N.am    
  13 O13            3.8339    -0.9378     0.3149 O.2     
  14 C14            4.7425    -3.4402     0.3517 C.ar    
  15 C15            7.0302    -2.9375    -0.1626 C.ar    
  16 C16            7.4294    -4.0885     0.4957 C.ar    
  17 C17            6.4858    -4.9183     1.0775 C.ar    
  18 C18            5.1445    -4.5966     1.0068 C.ar    
  19 C19            5.6898    -2.6123    -0.2355 C.ar    
  20 F20            8.7410    -4.4049     0.5660 F       
  21 C21            2.4238     0.3922     2.6048 C.3     
  22 Br22          -0.2160    -0.2129    -2.0583 Br      
  23 H23            1.0205    -2.2120     0.2979 H       
  24 H24            2.7180    -3.8148     0.2042 H       
  25 H25            7.7677    -2.2914    -0.6154 H       
  26 H26            6.7993    -5.8155     1.5906 H       
  27 H27            4.4089    -5.2438     1.4610 H       
  28 H28            5.3788    -1.7147    -0.7494 H       
  29 H29            3.4738     0.5670     2.3705 H       
  30 H30            2.1234     1.0372     3.4305 H       
  31 H31            2.2837    -0.6508     2.8889 H       
@<TRIPOS>BOND
   1    1    2 1
   2    1    5 2
   3    1    7 1
   4    2    3 2
   5    2   22 1
   6    3    4 1
   7    3    6 1
   8    4    5 1
   9    4   21 1
  10    6   11 am
  11    6   23 1
  12    7    8 1
  13    7    9 1
  14    7   10 1
  15   11   12 am
  16   11   13 2
  17   12   14 1
  18   12   24 1
  19   14   19 ar
  20   14   18 ar
  21   15   16 ar
  22   15   19 ar
  23   15   25 1
  24   16   17 ar
  25   16   20 1
  26   17   18 ar
  27   17   26 1
  28   18   27 1
  29   19   28 1
  30   21   29 1
  31   21   30 1
  32   21   31 1

#	End of record

