#	Name: ASD10220047
#	Creating user name:	WinNT
#	Creation time:	15. 06. 2019 21:26

#	Modifying user name:	WinNT
#	Modification time:	15. 06. 2019 21:26

#	Program:	/corina/corina34_cracker 3.40 0067  02.08.2006

@<TRIPOS>MOLECULE
ASD10220047
  30   32    0    0    0
SMALL
NO_CHARGES


@<TRIPOS>ATOM
   1 C1            -0.0062     1.4615    -0.1701 C.2     
   2 C2             0.0237     0.0547    -0.3172 C.2     
   3 C3            -1.1144    -0.6730    -0.3735 C.2     
   4 C4            -2.4366    -0.0538    -0.2866 C.2     
   5 C5            -2.5497     1.3198    -0.1415 C.2     
   6 C6            -1.3370     2.1500    -0.0690 C.2     
   7 O7            -3.6808    -0.5676    -0.3192 O.3     
   8 C8            -4.6057     0.3875    -0.2040 C.2     
   9 C9            -3.9877     1.6045    -0.0876 C.2     
  10 O10           -1.4101     3.3541     0.0583 O.2     
  11 O11            1.0261     2.1004    -0.1213 O.2     
  12 C12           -4.6314     2.9211     0.0613 C.2     
  13 O13           -3.9532     3.9100     0.2641 O.2     
  14 C14           -6.1014     3.0403    -0.0359 C.ar    
  15 Cl15           1.5553    -0.7548    -0.4286 Cl      
  16 Cl16          -1.0028    -2.3959    -0.5549 Cl      
  17 C17           -6.7704     4.0519     0.6564 C.ar    
  18 C18           -8.1423     4.1576     0.5609 C.ar    
  19 C19           -8.8557     3.2639    -0.2185 C.ar    
  20 C20           -8.1992     2.2589    -0.9068 C.ar    
  21 C21           -6.8270     2.1454    -0.8252 C.ar    
  22 C22          -10.3545     3.3855    -0.3176 C.3     
  23 H23           -5.6736     0.2262    -0.2025 H       
  24 H24           -6.2149     4.7496     1.2656 H       
  25 H25           -8.6610     4.9395     1.0958 H       
  26 H26           -8.7621     1.5643    -1.5127 H       
  27 H27           -6.3158     1.3608    -1.3632 H       
  28 H28          -10.6118     4.0382    -1.1518 H       
  29 H29          -10.7891     2.3992    -0.4806 H       
  30 H30          -10.7469     3.8069     0.6079 H       
@<TRIPOS>BOND
   1    1    2 1
   2    1   11 2
   3    1    6 1
   4    2    3 2
   5    2   15 1
   6    3    4 1
   7    3   16 1
   8    4    5 2
   9    4    7 1
  10    5    6 1
  11    5    9 1
  12    6   10 2
  13    7    8 1
  14    8    9 2
  15    8   23 1
  16    9   12 1
  17   12   13 2
  18   12   14 1
  19   14   17 ar
  20   14   21 ar
  21   17   18 ar
  22   17   24 1
  23   18   19 ar
  24   18   25 1
  25   19   20 ar
  26   19   22 1
  27   20   21 ar
  28   20   26 1
  29   21   27 1
  30   22   28 1
  31   22   29 1
  32   22   30 1

#	End of record

