#	Name: ASD10160467
#	Creating user name:	WinNT
#	Creation time:	15. 06. 2019 21:26

#	Modifying user name:	WinNT
#	Modification time:	15. 06. 2019 21:26

#	Program:	/corina/corina34_cracker 3.40 0067  02.08.2006

@<TRIPOS>MOLECULE
ASD10160467
  34   35    0    0    0
SMALL
NO_CHARGES


@<TRIPOS>ATOM
   1 C1             2.2969    -2.4928    -4.8814 C.2     
   2 C2             1.7103    -2.9230    -3.6079 C.ar    
   3 C3             0.3956    -3.4114    -3.5673 C.ar    
   4 C4            -0.1503    -3.8149    -2.3664 C.ar    
   5 C5             0.5991    -3.7379    -1.1994 C.ar    
   6 C6             1.9054    -3.2536    -1.2342 C.ar    
   7 C7             2.4628    -2.8534    -2.4277 C.ar    
   8 O8             3.4339    -2.0709    -4.9138 O.2     
   9 O9             0.0570    -4.1353    -0.0208 O.3     
  10 C10           -2.3121    -3.9189     0.1061 C.ar    
  11 C11           -1.1789    -4.7017    -0.0454 C.ar    
  12 C12           -1.3210    -6.0752    -0.2235 C.ar    
  13 C13           -2.5994    -6.6087    -0.2424 C.ar    
  14 C14           -3.6897    -5.7599    -0.0839 C.ar    
  15 N15           -3.5153    -4.4604     0.0831 N.ar    
  16 O16           -4.9474    -6.2720    -0.1007 O.3     
  17 C17           -6.0258    -5.3495     0.0672 C.3     
  18 C18           -6.4694    -4.8289    -1.3014 C.3     
  19 C19           -7.1993    -6.0555     0.7492 C.3     
  20 F20           -2.7846    -7.9360    -0.4130 F       
  21 F21            2.6280    -3.1812    -0.0950 F       
  22 F22           -0.3343    -3.4858    -4.7018 F       
  23 H23            1.7181    -2.5557    -5.7911 H       
  24 H24           -1.1621    -4.1910    -2.3335 H       
  25 H25            3.4767    -2.4821    -2.4537 H       
  26 H26           -2.2093    -2.8534     0.2492 H       
  27 H27           -0.4554    -6.7095    -0.3444 H       
  28 H28           -5.6962    -4.5138     0.6845 H       
  29 H29           -7.2919    -4.1253    -1.1733 H       
  30 H30           -5.6333    -4.3259    -1.7873 H       
  31 H31           -6.7989    -5.6647    -1.9187 H       
  32 H32           -6.8833    -6.4264     1.7242 H       
  33 H33           -8.0219    -5.3519     0.8773 H       
  34 H34           -7.5289    -6.8913     0.1319 H       
@<TRIPOS>BOND
   1    1    2 1
   2    1    8 2
   3    1   23 1
   4    2    3 ar
   5    2    7 ar
   6    3    4 ar
   7    3   22 1
   8    4    5 ar
   9    4   24 1
  10    5    6 ar
  11    5    9 1
  12    6    7 ar
  13    6   21 1
  14    7   25 1
  15    9   11 1
  16   10   11 ar
  17   10   15 ar
  18   10   26 1
  19   11   12 ar
  20   12   13 ar
  21   12   27 1
  22   13   14 ar
  23   13   20 1
  24   14   15 ar
  25   14   16 1
  26   16   17 1
  27   17   18 1
  28   17   19 1
  29   17   28 1
  30   18   29 1
  31   18   30 1
  32   18   31 1
  33   19   32 1
  34   19   33 1
  35   19   34 1

#	End of record

