#	Name: ASD10410003
#	Creating user name:	WinNT
#	Creation time:	15. 06. 2019 21:26

#	Modifying user name:	WinNT
#	Modification time:	15. 06. 2019 21:26

#	Program:	/corina/corina34_cracker 3.40 0067  02.08.2006

@<TRIPOS>MOLECULE
ASD10410003
  69   73    0    0    0
SMALL
NO_CHARGES


@<TRIPOS>ATOM
   1 N1             0.4701     0.8878     0.8782 N.pl3   
   2 C2             0.4866    -0.5073     0.7921 C.ar    
   3 C3            -0.6167    -1.2431     1.2049 C.ar    
   4 C4             1.6611     1.5981     0.8544 C.ar    
   5 N5             2.8269     0.9604     0.8645 N.ar    
   6 C6             1.6529     2.9952     0.8136 C.ar    
   7 C7             2.8637     3.6606     0.7911 C.ar    
   8 N8             3.9886     2.9600     0.8087 N.ar    
   9 C9             3.9660     1.6362     0.8419 C.ar    
  10 Cl10           0.1560     3.8741     0.7911 Cl      
  11 N11            5.1644     0.9405     0.8594 N.pl3   
  12 C12            6.3739     1.6342     0.9621 C.ar    
  13 C13            6.4349     2.8252     1.6742 C.ar    
  14 C14            7.6313     3.5080     1.7737 C.ar    
  15 C15            8.7676     3.0073     1.1650 C.ar    
  16 C16            8.7102     1.8220     0.4550 C.ar    
  17 C17            7.5185     1.1309     0.3572 C.ar    
  18 C18           10.0712     3.7553     1.2753 C.3     
  19 N19           10.8015     3.2938     2.4634 N.3     
  20 C20           12.1728     3.8221     2.4769 C.3     
  21 C21           12.8724     3.3849     3.7660 C.3     
  22 N22           12.8757     1.9175     3.8452 N.3     
  23 C23           11.5044     1.3892     3.8317 C.3     
  24 C24           10.8048     1.8263     2.5426 C.3     
  25 C25           13.6060     1.4560     5.0333 C.3     
  26 C26            1.6043    -1.1606     0.2882 C.ar    
  27 C27            1.6171    -2.5387     0.2041 C.ar    
  28 C28            0.5188    -3.2688     0.6209 C.ar    
  29 C29           -0.5973    -2.6215     1.1181 C.ar    
  30 S30           -2.0392    -0.4192     1.8391 S.o2    
  31 O31           -2.3410     0.6237     0.9223 O.2     
  32 O32           -2.9671    -1.4356     2.1930 O.2     
  33 N33           -1.5899     0.3166     3.2530 N.am    
  34 C34           -1.1020     1.6974     3.3830 C.3     
  35 C35           -1.6189    -0.3024     4.5907 C.3     
  36 C36           -0.5780     0.4924     5.4181 C.3     
  37 C37           -0.7839     1.9325     4.8746 C.3     
  38 H38           -0.3745     1.3594     0.9505 H       
  39 H39            2.8930     4.7397     0.7592 H       
  40 H40            5.1641    -0.0277     0.8004 H       
  41 H41            5.5477     3.2172     2.1492 H       
  42 H42            7.6794     4.4341     2.3272 H       
  43 H43            9.5993     1.4341    -0.0197 H       
  44 H44            7.4745     0.2050    -0.1971 H       
  45 H45           10.6723     3.5709     0.3850 H       
  46 H46            9.8710     4.8231     1.3639 H       
  47 H47           12.7199     3.4354     1.6171 H       
  48 H48           12.1435     4.9107     2.4302 H       
  49 H49           13.8990     3.7513     3.7649 H       
  50 H50           12.3408     3.7943     4.6251 H       
  51 H51           11.5336     0.3006     3.8785 H       
  52 H52           10.9573     1.7759     4.6915 H       
  53 H53            9.7782     1.4599     2.5437 H       
  54 H54           11.3364     1.4170     1.6835 H       
  55 H55           13.1297     1.8533     5.9296 H       
  56 H56           13.5929     0.3666     5.0674 H       
  57 H57           14.6372     1.8057     4.9844 H       
  58 H58            2.4621    -0.5911    -0.0378 H       
  59 H59            2.4856    -3.0472    -0.1879 H       
  60 H60            0.5312    -4.3466     0.5538 H       
  61 H61           -1.4533    -3.1945     1.4427 H       
  62 H62           -0.1994     1.8294     2.7862 H       
  63 H63           -1.8719     2.3951     3.0536 H       
  64 H64           -2.6102    -0.2038     5.0329 H       
  65 H65           -1.3327    -1.3524     4.5291 H       
  66 H66           -0.8043     0.4417     6.4831 H       
  67 H67            0.4332     0.1381     5.2178 H       
  68 H68            0.1266     2.5210     4.9871 H       
  69 H69           -1.6221     2.4173     5.3752 H       
@<TRIPOS>BOND
   1    1    2 1
   2    1    4 1
   3    1   38 1
   4    2    3 ar
   5    2   26 ar
   6    3   30 1
   7    3   29 ar
   8    4    5 ar
   9    4    6 ar
  10    5    9 ar
  11    6    7 ar
  12    6   10 1
  13    7    8 ar
  14    7   39 1
  15    8    9 ar
  16    9   11 1
  17   11   12 1
  18   11   40 1
  19   12   13 ar
  20   12   17 ar
  21   13   14 ar
  22   13   41 1
  23   14   15 ar
  24   14   42 1
  25   15   16 ar
  26   15   18 1
  27   16   17 ar
  28   16   43 1
  29   17   44 1
  30   18   19 1
  31   18   45 1
  32   18   46 1
  33   19   20 1
  34   19   24 1
  35   20   21 1
  36   20   47 1
  37   20   48 1
  38   21   22 1
  39   21   49 1
  40   21   50 1
  41   22   23 1
  42   22   25 1
  43   23   24 1
  44   23   51 1
  45   23   52 1
  46   24   53 1
  47   24   54 1
  48   25   55 1
  49   25   56 1
  50   25   57 1
  51   26   27 ar
  52   26   58 1
  53   27   28 ar
  54   27   59 1
  55   28   29 ar
  56   28   60 1
  57   29   61 1
  58   30   31 2
  59   30   32 2
  60   30   33 am
  61   33   34 1
  62   33   35 1
  63   34   37 1
  64   34   62 1
  65   34   63 1
  66   35   36 1
  67   35   64 1
  68   35   65 1
  69   36   37 1
  70   36   66 1
  71   36   67 1
  72   37   68 1
  73   37   69 1

#	End of record

