#	Name: ASD10410249
#	Creating user name:	WinNT
#	Creation time:	15. 06. 2019 21:27

#	Modifying user name:	WinNT
#	Modification time:	15. 06. 2019 21:27

#	Program:	/corina/corina34_cracker 3.40 0067  02.08.2006

@<TRIPOS>MOLECULE
ASD10410249
  74   79    0    0    0
SMALL
NO_CHARGES


@<TRIPOS>ATOM
   1 C1             0.0471     1.2887     0.5347 C.ar    
   2 C2             0.0013    -0.0023     0.0294 C.ar    
   3 C3             1.1469    -0.5848    -0.4926 C.ar    
   4 C4             2.3343     0.1201    -0.5091 C.ar    
   5 C5             2.3811     1.4127    -0.0034 C.ar    
   6 C6             1.2335     1.9952     0.5186 C.ar    
   7 O7            -1.1674    -0.6975     0.0461 O.3     
   8 N8             3.5843     2.1280    -0.0197 N.pl3   
   9 C9             3.5672     3.5194    -0.1174 C.2     
  10 N10            4.6176     4.3009    -0.0412 N.2     
  11 N11            2.4771     4.2714    -0.3097 N.2     
  12 C12            2.8175     5.5417    -0.3537 C.2     
  13 N13            4.1588     5.6197    -0.1894 N.pl3   
  14 C14            4.9331     6.7821    -0.1701 C.ar    
  15 N15            1.9576     6.6077    -0.5382 N.pl3   
  16 C16            6.1554     6.8013     0.4964 C.ar    
  17 C17           -1.1422    -2.0217    -0.4905 C.3     
  18 C18           -2.5375    -2.6409    -0.3861 C.3     
  19 N19           -3.4701    -1.8932    -1.2400 N.3     
  20 C20           -4.7616    -2.5954    -1.3532 C.3     
  21 C21           -5.8571    -1.6169    -0.8801 C.3     
  22 C22           -5.1888    -0.2289    -1.0635 C.3     
  23 C23           -3.7160    -0.5399    -0.6979 C.3     
  24 N24            4.5140     7.8750    -0.7905 N.ar    
  25 N25            5.1985     8.9573    -0.8001 N.ar    
  26 C26            6.3735     9.0676    -0.1944 C.ar    
  27 C27            6.8877     7.9818     0.4837 C.ar    
  28 C28            7.1039    10.3801    -0.2967 C.3     
  29 C29            8.1452    10.5087     0.8143 C.3     
  30 N30            8.9176     9.2566     0.8652 N.am    
  31 C31            8.1970     8.0299     1.2234 C.3     
  32 C32           10.2366     9.2356     0.5890 C.2     
  33 O33           10.9173     8.0753     0.6436 O.3     
  34 O34           10.8113    10.2638     0.2909 O.2     
  35 C35           12.3350     8.1276     0.3339 C.3     
  36 C36           12.9249     6.7454     0.4458 C.ar    
  37 C37           12.9505     5.9134    -0.6579 C.ar    
  38 C38           13.4916     4.6455    -0.5553 C.ar    
  39 C39           14.0075     4.2097     0.6509 C.ar    
  40 C40           13.9827     5.0420     1.7543 C.ar    
  41 C41           13.4456     6.3115     1.6506 C.ar    
  42 H42           -0.8463     1.7430     0.9369 H       
  43 H43            1.1103    -1.5900    -0.8858 H       
  44 H44            3.2263    -0.3338    -0.9149 H       
  45 H45            1.2690     3.0005     0.9118 H       
  46 H46            4.4298     1.6561     0.0368 H       
  47 H47            1.0069     6.4505    -0.6493 H       
  48 H48            2.3048     7.5133    -0.5565 H       
  49 H49            6.5233     5.9244     1.0084 H       
  50 H50           -0.8388    -1.9841    -1.5367 H       
  51 H51           -0.4325    -2.6283     0.0721 H       
  52 H52           -2.4992    -3.6801    -0.7128 H       
  53 H53           -2.8777    -2.5976     0.6485 H       
  54 H54           -4.9401    -2.8784    -2.3906 H       
  55 H55           -4.7581    -3.4826    -0.7200 H       
  56 H56           -6.7461    -1.7023    -1.5049 H       
  57 H57           -6.1028    -1.7909     0.1675 H       
  58 H58           -5.2715     0.1108    -2.0960 H       
  59 H59           -5.6151     0.5034    -0.3779 H       
  60 H60           -3.5845    -0.5348     0.3841 H       
  61 H61           -3.0480     0.1834    -1.1656 H       
  62 H62            7.6024    10.4388    -1.2643 H       
  63 H63            6.3871    11.1970    -0.2130 H       
  64 H64            8.8118    11.3438     0.5990 H       
  65 H65            7.6461    10.6723     1.7694 H       
  66 H66            8.0054     8.0214     2.2964 H       
  67 H67            8.8005     7.1627     0.9554 H       
  68 H68           12.4716     8.4999    -0.6813 H       
  69 H69           12.8358     8.7943     1.0359 H       
  70 H70           12.5475     6.2539    -1.6002 H       
  71 H71           13.5110     3.9953    -1.4174 H       
  72 H72           14.4296     3.2189     0.7312 H       
  73 H73           14.3855     4.7014     2.6968 H       
  74 H74           13.4262     6.9618     2.5127 H       
@<TRIPOS>BOND
   1    1    2 ar
   2    1    6 ar
   3    1   42 1
   4    2    3 ar
   5    2    7 1
   6    3    4 ar
   7    3   43 1
   8    4    5 ar
   9    4   44 1
  10    5    6 ar
  11    5    8 1
  12    6   45 1
  13    7   17 1
  14    8    9 1
  15    8   46 1
  16    9   10 2
  17    9   11 1
  18   10   13 1
  19   11   12 2
  20   12   13 1
  21   12   15 1
  22   13   14 1
  23   14   16 ar
  24   14   24 ar
  25   15   47 1
  26   15   48 1
  27   16   27 ar
  28   16   49 1
  29   17   18 1
  30   17   50 1
  31   17   51 1
  32   18   19 1
  33   18   52 1
  34   18   53 1
  35   19   20 1
  36   19   23 1
  37   20   21 1
  38   20   54 1
  39   20   55 1
  40   21   22 1
  41   21   56 1
  42   21   57 1
  43   22   23 1
  44   22   58 1
  45   22   59 1
  46   23   60 1
  47   23   61 1
  48   24   25 ar
  49   25   26 ar
  50   26   27 ar
  51   26   28 1
  52   27   31 1
  53   28   29 1
  54   28   62 1
  55   28   63 1
  56   29   30 1
  57   29   64 1
  58   29   65 1
  59   30   31 1
  60   30   32 am
  61   31   66 1
  62   31   67 1
  63   32   33 1
  64   32   34 2
  65   33   35 1
  66   35   36 1
  67   35   68 1
  68   35   69 1
  69   36   37 ar
  70   36   41 ar
  71   37   38 ar
  72   37   70 1
  73   38   39 ar
  74   38   71 1
  75   39   40 ar
  76   39   72 1
  77   40   41 ar
  78   40   73 1
  79   41   74 1

#	End of record

