#	Name: ASD10410043
#	Creating user name:	WinNT
#	Creation time:	15. 06. 2019 21:26

#	Modifying user name:	WinNT
#	Modification time:	15. 06. 2019 21:26

#	Program:	/corina/corina34_cracker 3.40 0067  02.08.2006

@<TRIPOS>MOLECULE
ASD10410043
  54   57    0    0    0
SMALL
NO_CHARGES


@<TRIPOS>ATOM
   1 C1             2.1487    -2.3853     0.9936 C.ar    
   2 C2             1.1820    -1.9866     0.0721 C.ar    
   3 C3             3.3595    -1.5562     1.2068 C.ar    
   4 N4             3.5340    -0.4259     0.5216 N.ar    
   5 C5             4.3279    -1.9444     2.1300 C.ar    
   6 C6             5.4488    -1.1323     2.2955 C.ar    
   7 N7             5.5559    -0.0217     1.5717 N.ar    
   8 C8             4.6123     0.3192     0.7067 C.ar    
   9 N9             4.7611     1.4836    -0.0288 N.pl3   
  10 C10            5.9460     2.2204     0.0606 C.ar    
  11 C11            7.1574     1.5693     0.2553 C.ar    
  12 C12            8.3260     2.3000     0.3432 C.ar    
  13 C13            8.2909     3.6784     0.2382 C.ar    
  14 C14            7.0866     4.3297     0.0444 C.ar    
  15 C15            5.9150     3.6046    -0.0506 C.ar    
  16 C16            9.5680     4.4726     0.3357 C.3     
  17 N17           10.1499     4.6304    -1.0039 N.3     
  18 C18           11.2605     5.5926    -0.9856 C.3     
  19 C19           11.8890     5.6687    -2.3790 C.3     
  20 N20           10.8651     6.0691    -3.3542 N.3     
  21 C21            9.7545     5.1069    -3.3725 C.3     
  22 C22            9.1260     5.0308    -1.9790 C.3     
  23 C23           11.4470     6.2270    -4.6937 C.3     
  24 C24            0.0563    -2.7618    -0.1231 C.ar    
  25 C25           -0.1128    -3.9350     0.5966 C.ar    
  26 C26            0.8461    -4.3340     1.5138 C.ar    
  27 C27            1.9713    -3.5629     1.7185 C.ar    
  28 F28           -1.2158    -4.6907     0.4032 F       
  29 Cl29          -1.1490    -2.2670    -1.2703 Cl      
  30 N30            6.4382    -1.4775     3.2025 N.pl3   
  31 H31            1.3131    -1.0725    -0.4881 H       
  32 H32            4.2128    -2.8521     2.7037 H       
  33 H33            4.0432     1.7879    -0.6059 H       
  34 H34            7.1854     0.4928     0.3381 H       
  35 H35            9.2682     1.7943     0.4945 H       
  36 H36            7.0626     5.4064    -0.0368 H       
  37 H37            4.9748     4.1138    -0.2020 H       
  38 H38            9.3538     5.4548     0.7568 H       
  39 H39           10.2741     3.9476     0.9790 H       
  40 H40           10.8852     6.5758    -0.7017 H       
  41 H41           12.0113     5.2677    -0.2653 H       
  42 H42           12.6944     6.4032    -2.3751 H       
  43 H43           12.2885     4.6919    -2.6516 H       
  44 H44            9.0037     5.4318    -4.0928 H       
  45 H45           10.1298     4.1238    -3.6564 H       
  46 H46            8.3206     4.2963    -1.9830 H       
  47 H47            8.7264     6.0076    -1.7065 H       
  48 H48           11.8836     5.2810    -5.0140 H       
  49 H49           10.6677     6.5236    -5.3958 H       
  50 H50           12.2214     6.9935    -4.6655 H       
  51 H51            0.7100    -5.2481     2.0727 H       
  52 H52            2.7181    -3.8753     2.4334 H       
  53 H53            6.3534    -2.2888     3.7273 H       
  54 H54            7.2155    -0.9077     3.3124 H       
@<TRIPOS>BOND
   1    1    2 ar
   2    1    3 1
   3    1   27 ar
   4    2   24 ar
   5    2   31 1
   6    3    4 ar
   7    3    5 ar
   8    4    8 ar
   9    5    6 ar
  10    5   32 1
  11    6    7 ar
  12    6   30 1
  13    7    8 ar
  14    8    9 1
  15    9   10 1
  16    9   33 1
  17   10   11 ar
  18   10   15 ar
  19   11   12 ar
  20   11   34 1
  21   12   13 ar
  22   12   35 1
  23   13   14 ar
  24   13   16 1
  25   14   15 ar
  26   14   36 1
  27   15   37 1
  28   16   17 1
  29   16   38 1
  30   16   39 1
  31   17   18 1
  32   17   22 1
  33   18   19 1
  34   18   40 1
  35   18   41 1
  36   19   20 1
  37   19   42 1
  38   19   43 1
  39   20   21 1
  40   20   23 1
  41   21   22 1
  42   21   44 1
  43   21   45 1
  44   22   46 1
  45   22   47 1
  46   23   48 1
  47   23   49 1
  48   23   50 1
  49   24   25 ar
  50   24   29 1
  51   25   26 ar
  52   25   28 1
  53   26   27 ar
  54   26   51 1
  55   27   52 1
  56   30   53 1
  57   30   54 1

#	End of record

