#	Name: ASD10410223
#	Creating user name:	WinNT
#	Creation time:	15. 06. 2019 21:27

#	Modifying user name:	WinNT
#	Modification time:	15. 06. 2019 21:27

#	Program:	/corina/corina34_cracker 3.40 0067  02.08.2006

@<TRIPOS>MOLECULE
ASD10410223
  58   62    0    0    0
SMALL
NO_CHARGES


@<TRIPOS>ATOM
   1 C1             0.0307     1.1161     0.1464 C.ar    
   2 C2             0.1861    -0.1677     0.6482 C.ar    
   3 C3             1.4569    -0.6750     0.8761 C.ar    
   4 C4             2.5684     0.0976     0.6032 C.ar    
   5 C5             2.4138     1.3829     0.1003 C.ar    
   6 C6             1.1411     1.8902    -0.1271 C.ar    
   7 O7            -0.9080    -0.9293     0.9172 O.3     
   8 N8             3.5399     2.1669    -0.1762 N.pl3   
   9 C9             4.7177     1.5646    -0.6158 C.2     
  10 N10            5.8600     2.1795    -0.8076 N.2     
  11 N11            4.8640     0.2656    -0.9036 N.2     
  12 C12            6.1001     0.0327    -1.2889 C.2     
  13 N13            6.7781     1.2123    -1.2477 N.pl3   
  14 C14            8.1108     1.4181    -1.5755 C.ar    
  15 N15            6.6181    -1.1907    -1.6650 N.pl3   
  16 C16            8.9571     2.1764    -0.7335 C.ar    
  17 C17           -0.6742    -2.2417     1.4320 C.3     
  18 C18           -2.0135    -2.9417     1.6713 C.3     
  19 N19           -2.6966    -3.1441     0.3866 N.3     
  20 C20           -3.8711    -4.0212     0.5452 C.3     
  21 C21           -5.0971    -3.2421     0.0241 C.3     
  22 C22           -4.4650    -2.1883    -0.9228 C.3     
  23 C23           -3.1447    -1.8559    -0.1839 C.3     
  24 N24            8.6262     0.9049    -2.6832 N.ar    
  25 C25            9.8952     1.0934    -3.0077 C.ar    
  26 N26           10.7247     1.7915    -2.2688 N.ar    
  27 C27           10.3082     2.3505    -1.1239 C.ar    
  28 C28           11.1660     3.1027    -0.3093 C.ar    
  29 C29           10.6902     3.6491     0.8451 C.ar    
  30 C30            9.3638     3.4719     1.2300 C.ar    
  31 C31            8.5006     2.7516     0.4585 C.ar    
  32 C32           10.4109     0.4782    -4.2831 C.3     
  33 F33           10.5596     1.4741    -5.2543 F       
  34 F34           11.6492    -0.1264    -4.0418 F       
  35 F35            9.5027    -0.4841    -4.7371 F       
  36 H36           -0.9590     1.5088    -0.0347 H       
  37 H37            1.5770    -1.6744     1.2675 H       
  38 H38            3.5577    -0.2974     0.7810 H       
  39 H39            1.0199     2.8894    -0.5184 H       
  40 H40            3.5007     3.1294    -0.0619 H       
  41 H41            6.0529    -1.9790    -1.6597 H       
  42 H42            7.5472    -1.2619    -1.9344 H       
  43 H43           -0.0880    -2.8147     0.7136 H       
  44 H44           -0.1280    -2.1711     2.3726 H       
  45 H45           -1.8391    -3.9072     2.1461 H       
  46 H46           -2.6351    -2.3247     2.3201 H       
  47 H47           -3.7352    -4.9319    -0.0380 H       
  48 H48           -4.0093    -4.2693     1.5975 H       
  49 H49           -5.7675    -3.9021    -0.5265 H       
  50 H50           -5.6226    -2.7558     0.8460 H       
  51 H51           -4.2656    -2.6159    -1.9054 H       
  52 H52           -5.0997    -1.3059    -1.0042 H       
  53 H53           -3.3262    -1.1317     0.6103 H       
  54 H54           -2.4033    -1.4732    -0.8854 H       
  55 H55           12.1975     3.2481    -0.5946 H       
  56 H56           11.3525     4.2283     1.4714 H       
  57 H57            9.0125     3.9154     2.1500 H       
  58 H58            7.4739     2.6213     0.7671 H       
@<TRIPOS>BOND
   1    1    2 ar
   2    1    6 ar
   3    1   36 1
   4    2    3 ar
   5    2    7 1
   6    3    4 ar
   7    3   37 1
   8    4    5 ar
   9    4   38 1
  10    5    6 ar
  11    5    8 1
  12    6   39 1
  13    7   17 1
  14    8    9 1
  15    8   40 1
  16    9   10 2
  17    9   11 1
  18   10   13 1
  19   11   12 2
  20   12   13 1
  21   12   15 1
  22   13   14 1
  23   14   16 ar
  24   14   24 ar
  25   15   41 1
  26   15   42 1
  27   16   27 ar
  28   16   31 ar
  29   17   18 1
  30   17   43 1
  31   17   44 1
  32   18   19 1
  33   18   45 1
  34   18   46 1
  35   19   20 1
  36   19   23 1
  37   20   21 1
  38   20   47 1
  39   20   48 1
  40   21   22 1
  41   21   49 1
  42   21   50 1
  43   22   23 1
  44   22   51 1
  45   22   52 1
  46   23   53 1
  47   23   54 1
  48   24   25 ar
  49   25   26 ar
  50   25   32 1
  51   26   27 ar
  52   27   28 ar
  53   28   29 ar
  54   28   55 1
  55   29   30 ar
  56   29   56 1
  57   30   31 ar
  58   30   57 1
  59   31   58 1
  60   32   33 1
  61   32   34 1
  62   32   35 1

#	End of record

