#	Name: ASD10950017
#	Creating user name:	WinNT
#	Creation time:	15. 06. 2019 21:28

#	Modifying user name:	WinNT
#	Modification time:	15. 06. 2019 21:28

#	Program:	/corina/corina34_cracker 3.40 0067  02.08.2006

@<TRIPOS>MOLECULE
ASD10950017
  60   64    0    0    0
SMALL
NO_CHARGES


@<TRIPOS>ATOM
   1 C1            -2.3015     1.3060     0.4783 C.3     
   2 O2            -1.8896    -0.0829     0.3815 O.3     
   3 C3            -1.1098    -0.4181    -0.6646 C.2     
   4 O4            -0.7830     0.4268    -1.4738 O.2     
   5 C5            -0.6523    -1.8133    -0.8277 C.ar    
   6 C6             0.1560    -2.1641    -1.9108 C.ar    
   7 C7             0.5796    -3.4687    -2.0571 C.ar    
   8 C8             0.2053    -4.4287    -1.1335 C.ar    
   9 C9            -0.5955    -4.0878    -0.0578 C.ar    
  10 C10           -1.0215    -2.7858     0.1037 C.ar    
  11 C11            0.6716    -5.8520    -1.3002 C.3     
  12 N12            1.2059    -6.3598    -0.0311 N.am    
  13 C13            2.3475    -5.8110     0.7049 C.3     
  14 C14            1.8568    -4.7440     1.6855 C.3     
  15 C15            3.0312    -4.1794     2.4426 C.2     
  16 C16            3.4702    -4.5766     3.6474 C.2     
  17 N17            4.5589    -3.8340     4.0152 N.pl3   
  18 C18            4.8546    -2.9176     3.0311 C.ar    
  19 C19            3.9142    -3.0973     2.0006 C.ar    
  20 C20            3.9706    -2.2961     0.8584 C.ar    
  21 C21            4.9405    -1.3402     0.7477 C.ar    
  22 C22            5.8712    -1.1592     1.7618 C.ar    
  23 C23            5.8360    -1.9408     2.8955 C.ar    
  24 C24            0.4613    -7.4181     0.3372 C.2     
  25 O25            0.6337    -8.0753     1.3444 O.2     
  26 C26           -0.5979    -7.6627    -0.6644 C.2     
  27 C27           -0.4963    -6.7434    -1.6524 C.2     
  28 C28           -1.3545    -6.6333    -2.8362 C.2     
  29 O29           -2.5286    -6.3393    -2.7112 O.2     
  30 C30           -0.7938    -6.8794    -4.1804 C.ar    
  31 C31            0.5402    -7.2681    -4.3243 C.ar    
  32 C32            1.0571    -7.4966    -5.5818 C.ar    
  33 C33            0.2584    -7.3422    -6.7022 C.ar    
  34 C34           -1.0631    -6.9574    -6.5705 C.ar    
  35 C35           -1.5979    -6.7300    -5.3161 C.ar    
  36 F36           -2.8892    -6.3541    -5.1877 F       
  37 O37           -1.5220    -8.6489    -0.6033 O.3     
  38 H38           -1.4196     1.9421     0.5547 H       
  39 H39           -2.8704     1.5791    -0.4104 H       
  40 H40           -2.9236     1.4397     1.3633 H       
  41 H41            0.4485    -1.4159    -2.6326 H       
  42 H42            1.2046    -3.7416    -2.8946 H       
  43 H43           -0.8842    -4.8421     0.6592 H       
  44 H44           -1.6465    -2.5211     0.9438 H       
  45 H45            1.4343    -5.9076    -2.0769 H       
  46 H46            2.8430    -6.6105     1.2558 H       
  47 H47            3.0511    -5.3633     0.0030 H       
  48 H48            1.3614    -3.9445     1.1346 H       
  49 H49            1.1533    -5.1917     2.3875 H       
  50 H50            3.0289    -5.3651     4.2390 H       
  51 H51            5.0492    -3.9375     4.8458 H       
  52 H52            3.2503    -2.4317     0.0652 H       
  53 H53            4.9837    -0.7208    -0.1359 H       
  54 H54            6.6322    -0.3997     1.6595 H       
  55 H55            6.5644    -1.7922     3.6789 H       
  56 H56            1.1656    -7.3889    -3.4521 H       
  57 H57            2.0885    -7.7967    -5.6933 H       
  58 H58            0.6700    -7.5229    -7.6842 H       
  59 H59           -1.6800    -6.8386    -7.4490 H       
  60 H60           -1.4433    -9.2138     0.1776 H       
@<TRIPOS>BOND
   1    1    2 1
   2    1   38 1
   3    1   39 1
   4    1   40 1
   5    2    3 1
   6    3    4 2
   7    3    5 1
   8    5    6 ar
   9    5   10 ar
  10    6    7 ar
  11    6   41 1
  12    7    8 ar
  13    7   42 1
  14    8    9 ar
  15    8   11 1
  16    9   10 ar
  17    9   43 1
  18   10   44 1
  19   11   12 1
  20   11   27 1
  21   11   45 1
  22   12   13 1
  23   12   24 am
  24   13   14 1
  25   13   46 1
  26   13   47 1
  27   14   15 1
  28   14   48 1
  29   14   49 1
  30   15   16 2
  31   15   19 1
  32   16   17 1
  33   16   50 1
  34   17   18 1
  35   17   51 1
  36   18   19 ar
  37   18   23 ar
  38   19   20 ar
  39   20   21 ar
  40   20   52 1
  41   21   22 ar
  42   21   53 1
  43   22   23 ar
  44   22   54 1
  45   23   55 1
  46   24   25 2
  47   24   26 1
  48   26   27 2
  49   26   37 1
  50   27   28 1
  51   28   29 2
  52   28   30 1
  53   30   31 ar
  54   30   35 ar
  55   31   32 ar
  56   31   56 1
  57   32   33 ar
  58   32   57 1
  59   33   34 ar
  60   33   58 1
  61   34   35 ar
  62   34   59 1
  63   35   36 1
  64   37   60 1

#	End of record

