#	Name: ASD10410267
#	Creating user name:	WinNT
#	Creation time:	15. 06. 2019 21:27

#	Modifying user name:	WinNT
#	Modification time:	15. 06. 2019 21:27

#	Program:	/corina/corina34_cracker 3.40 0067  02.08.2006

@<TRIPOS>MOLECULE
ASD10410267
  66   72    0    0    0
SMALL
NO_CHARGES


@<TRIPOS>ATOM
   1 C1             0.1859     0.9624     0.5804 C.ar    
   2 C2             0.3109    -0.4129     0.4339 C.ar    
   3 C3             1.5613    -0.9775     0.2185 C.ar    
   4 C4             2.6803    -0.1715     0.1504 C.ar    
   5 C5             2.5553     1.2039     0.2969 C.ar    
   6 C6             1.3048     1.7685     0.5119 C.ar    
   7 N7             3.6902     2.0214     0.2279 N.pl3   
   8 C8             3.5889     3.3044    -0.2815 C.2     
   9 N9             4.5887     4.2332    -0.3074 N.pl3   
  10 N10            2.5172     3.8306    -0.8262 N.2     
  11 C11            2.7818     5.0936    -1.2095 C.2     
  12 C12            4.0650     5.3715    -0.8986 C.2     
  13 N13            1.8785     5.9700    -1.8299 N.pl3   
  14 N14           -0.8232    -1.2300     0.5039 N.3     
  15 C15           -0.4655    -2.6439     0.3235 C.3     
  16 C16           -1.7177    -3.5089     0.4856 C.3     
  17 N17           -2.7271    -3.0942    -0.4987 N.3     
  18 C18           -3.0848    -1.6803    -0.3184 C.3     
  19 C19           -1.8325    -0.8154    -0.4804 C.3     
  20 C20           -3.9174    -3.9519    -0.4253 C.3     
  21 C21            5.8831     4.0689     0.1686 C.2     
  22 N22            6.8014     4.9702     0.1269 N.2     
  23 C23            8.0121     4.6615     0.6308 C.ar    
  24 C24            8.0742     3.3592     1.1369 C.ar    
  25 S25            6.4975     2.6032     0.9204 S.3     
  26 C26            9.1699     5.4648     0.7031 C.ar    
  27 C27           10.3241     4.9720     1.2575 C.ar    
  28 C28           10.3722     3.6783     1.7554 C.ar    
  29 C29            9.2543     2.8762     1.6968 C.ar    
  30 C30           -4.9677    -3.5066    -1.4685 C.3     
  31 C31           -5.1446    -4.7427    -2.4023 C.3     
  32 C32           -3.5587    -5.4152    -0.8271 C.3     
  33 C33           -4.8352    -6.2399    -0.4781 C.3     
  34 C34           -5.8854    -5.7945    -1.5213 C.3     
  35 C35           -3.6881    -5.3273    -2.3888 C.3     
  36 H36           -0.7871     1.4019     0.7435 H       
  37 H37            1.6585    -2.0471     0.1046 H       
  38 H38            3.6528    -0.6106    -0.0164 H       
  39 H39            1.2075     2.8381     0.6255 H       
  40 H40            4.5472     1.6886     0.5370 H       
  41 H41            4.5839     6.3018    -1.0763 H       
  42 H42            0.9721     5.6799    -2.0171 H       
  43 H43            2.1606     6.8661    -2.0715 H       
  44 H44           -0.0495    -2.7895    -0.6734 H       
  45 H45            0.2737    -2.9304     1.0717 H       
  46 H46           -1.4602    -4.5555     0.3236 H       
  47 H47           -2.1181    -3.3841     1.4917 H       
  48 H48           -3.8239    -1.3939    -1.0665 H       
  49 H49           -3.5007    -1.5348     0.6786 H       
  50 H50           -2.0900     0.2313    -0.3184 H       
  51 H51           -1.4321    -0.9402    -1.4865 H       
  52 H52           -4.3430    -3.9249     0.5778 H       
  53 H53            9.1475     6.4740     0.3191 H       
  54 H54           11.2034     5.5971     1.3064 H       
  55 H55           11.2860     3.3004     2.1896 H       
  56 H56            9.2933     1.8691     2.0849 H       
  57 H57           -5.9102    -3.2625    -0.9784 H       
  58 H58           -4.6007    -2.6512    -2.0358 H       
  59 H59           -5.5862    -4.5430    -3.3786 H       
  60 H60           -2.6192    -5.8012    -0.4316 H       
  61 H61           -4.6354    -7.3073    -0.5719 H       
  62 H62           -5.1766    -6.0035     0.5297 H       
  63 H63           -6.7432    -5.3392    -1.0264 H       
  64 H64           -6.2019    -6.6430    -2.1279 H       
  65 H65           -3.6373    -6.3093    -2.8591 H       
  66 H66           -2.9656    -4.6346    -2.8204 H       
@<TRIPOS>BOND
   1    1    2 ar
   2    1    6 ar
   3    1   36 1
   4    2    3 ar
   5    2   14 1
   6    3    4 ar
   7    3   37 1
   8    4    5 ar
   9    4   38 1
  10    5    6 ar
  11    5    7 1
  12    6   39 1
  13    7    8 1
  14    7   40 1
  15    8    9 1
  16    8   10 2
  17    9   21 1
  18    9   12 1
  19   10   11 1
  20   11   12 2
  21   11   13 1
  22   12   41 1
  23   13   42 1
  24   13   43 1
  25   14   15 1
  26   14   19 1
  27   15   16 1
  28   15   44 1
  29   15   45 1
  30   16   17 1
  31   16   46 1
  32   16   47 1
  33   17   18 1
  34   17   20 1
  35   18   19 1
  36   18   48 1
  37   18   49 1
  38   19   50 1
  39   19   51 1
  40   20   30 1
  41   20   32 1
  42   20   52 1
  43   21   22 2
  44   21   25 1
  45   22   23 1
  46   23   24 ar
  47   23   26 ar
  48   24   25 1
  49   24   29 ar
  50   26   27 ar
  51   26   53 1
  52   27   28 ar
  53   27   54 1
  54   28   29 ar
  55   28   55 1
  56   29   56 1
  57   30   31 1
  58   30   57 1
  59   30   58 1
  60   31   34 1
  61   31   35 1
  62   31   59 1
  63   32   33 1
  64   32   35 1
  65   32   60 1
  66   33   34 1
  67   33   61 1
  68   33   62 1
  69   34   63 1
  70   34   64 1
  71   35   65 1
  72   35   66 1

#	End of record

