#	Name: ASD11000005
#	Creating user name:	WinNT
#	Creation time:	15. 06. 2019 21:28

#	Modifying user name:	WinNT
#	Modification time:	15. 06. 2019 21:28

#	Program:	/corina/corina34_cracker 3.40 0067  02.08.2006

@<TRIPOS>MOLECULE
ASD11000005
  49   51    0    0    0
SMALL
NO_CHARGES


@<TRIPOS>ATOM
   1 C1            -0.0168     1.3891     0.0097 C.ar    
   2 C2             0.0021    -0.0041     0.0020 C.ar    
   3 C3             1.2108    -0.6929     0.0395 C.ar    
   4 C4             2.3977    -0.0067     0.0656 C.ar    
   5 C5             2.3899     1.3878    -0.0508 C.ar    
   6 C6             1.1521     2.0881     0.0023 C.ar    
   7 C7             3.6582    -0.8008     0.2964 C.3     
   8 C8             4.5407    -0.1000     1.3388 C.3     
   9 C9             5.4580     0.8726     0.6288 C.3     
  10 C10            4.8452     1.4773    -0.6155 C.3     
  11 C11            3.5374     2.1487    -0.2935 C.2     
  12 N12            5.8046     1.9566     1.5576 N.3     
  13 C13            7.0850     2.5756     1.1899 C.3     
  14 C14            7.4115     3.6974     2.1777 C.3     
  15 C15            8.7452     4.3421     1.7948 C.3     
  16 C16            9.0667     5.4471     2.7678 C.ar    
  17 C17            9.7927     5.1714     3.9114 C.ar    
  18 C18           10.0877     6.1849     4.8039 C.ar    
  19 C19            9.6570     7.4742     4.5526 C.ar    
  20 C20            8.9318     7.7501     3.4086 C.ar    
  21 C21            8.6406     6.7373     2.5139 C.ar    
  22 O22           -1.1664    -0.6942    -0.0418 O.3     
  23 C23           -2.3718     0.0725    -0.0782 C.3     
  24 H24           -0.9598     1.9155     0.0170 H       
  25 H25            1.2139    -1.7728     0.0483 H       
  26 H26            1.1398     3.1675     0.0371 H       
  27 H27            3.3974    -1.7967     0.6546 H       
  28 H28            4.2069    -0.8885    -0.6413 H       
  29 H29            3.9115     0.4410     2.0455 H       
  30 H30            5.1364    -0.8417     1.8709 H       
  31 H31            6.3726     0.3497     0.3492 H       
  32 H32            5.5328     2.2126    -1.0332 H       
  33 H33            4.6732     0.6902    -1.3497 H       
  34 H34            3.4849     3.2266    -0.2499 H       
  35 H35            5.0688     2.6457     1.5998 H       
  36 H36            7.8739     1.8240     1.2200 H       
  37 H37            7.0137     2.9874     0.1832 H       
  38 H38            6.6227     4.4490     2.1476 H       
  39 H39            7.4829     3.2857     3.1845 H       
  40 H40            9.5340     3.5905     1.8249 H       
  41 H41            8.6738     4.7539     0.7880 H       
  42 H42           10.1292     4.1641     4.1077 H       
  43 H43           10.6543     5.9694     5.6977 H       
  44 H44            9.8868     8.2659     5.2503 H       
  45 H45            8.5950     8.7573     3.2124 H       
  46 H46            8.0740     6.9528     1.6200 H       
  47 H47           -2.3726     0.7064    -0.9650 H       
  48 H48           -3.2292    -0.5997    -0.1114 H       
  49 H49           -2.4330     0.6958     0.8139 H       
@<TRIPOS>BOND
   1    1    2 ar
   2    1    6 ar
   3    1   24 1
   4    2    3 ar
   5    2   22 1
   6    3    4 ar
   7    3   25 1
   8    4    5 ar
   9    4    7 1
  10    5    6 ar
  11    5   11 1
  12    6   26 1
  13    7    8 1
  14    7   27 1
  15    7   28 1
  16    8    9 1
  17    8   29 1
  18    8   30 1
  19    9   10 1
  20    9   12 1
  21    9   31 1
  22   10   11 1
  23   10   32 1
  24   10   33 1
  25   11   34 1
  26   12   13 1
  27   12   35 1
  28   13   14 1
  29   13   36 1
  30   13   37 1
  31   14   15 1
  32   14   38 1
  33   14   39 1
  34   15   16 1
  35   15   40 1
  36   15   41 1
  37   16   17 ar
  38   16   21 ar
  39   17   18 ar
  40   17   42 1
  41   18   19 ar
  42   18   43 1
  43   19   20 ar
  44   19   44 1
  45   20   21 ar
  46   20   45 1
  47   21   46 1
  48   22   23 1
  49   23   47 1
  50   23   48 1
  51   23   49 1

#	End of record

