#	Name: ASD10410180
#	Creating user name:	WinNT
#	Creation time:	15. 06. 2019 21:27

#	Modifying user name:	WinNT
#	Modification time:	15. 06. 2019 21:27

#	Program:	/corina/corina34_cracker 3.40 0067  02.08.2006

@<TRIPOS>MOLECULE
ASD10410180
  64   70    0    0    0
SMALL
NO_CHARGES


@<TRIPOS>ATOM
   1 C1             1.3097    -0.7813     0.1690 C.ar    
   2 C2             0.1005    -0.1181     0.0126 C.ar    
   3 C3             0.0798     1.2641    -0.1329 C.ar    
   4 C4             1.2629     1.9771    -0.1217 C.ar    
   5 C5             2.4726     1.3126     0.0349 C.ar    
   6 C6             2.4926    -0.0681     0.1801 C.ar    
   7 Cl7           -1.4323     2.0940    -0.3291 Cl      
   8 N8             3.6720     2.0352     0.0462 N.pl3   
   9 C9             4.7535     1.5793     0.7991 C.2     
  10 N10            5.9537     2.1076     0.8026 N.2     
  11 N11            4.7303     0.5366     1.6376 N.2     
  12 C12            5.9166     0.3805     2.1848 C.2     
  13 N13            6.7333     1.3498     1.6913 N.pl3   
  14 C14            8.0741     1.5500     2.0042 C.ar    
  15 N15            6.2689    -0.5923     3.1001 N.pl3   
  16 N16           -1.0986    -0.8414     0.0009 N.3     
  17 C17           -1.9156    -0.5258     1.1809 C.3     
  18 C18           -3.2479    -1.2738     1.0906 C.3     
  19 N19           -2.9908    -2.7180     1.0026 N.3     
  20 C20           -2.1738    -3.0337    -0.1775 C.3     
  21 C21           -0.8416    -2.2857    -0.0871 C.3     
  22 N22            8.6900     0.7543     2.8645 N.ar    
  23 C23            9.9620     0.9318     3.1713 C.ar    
  24 N24           10.6800     1.8978     2.6462 N.ar    
  25 C25           10.1464     2.7532     1.7667 C.ar    
  26 C26            8.8036     2.6052     1.4026 C.ar    
  27 C27           -4.2486    -3.4768     0.9903 C.3     
  28 C28           -5.0331    -3.2502     2.3186 C.3     
  29 C29           -3.9616    -4.9954     0.9602 C.3     
  30 C30           -4.5997    -5.5433     2.2731 C.3     
  31 C31           -6.4238    -3.9093     2.0680 C.3     
  32 C32           -6.1368    -5.4280     2.0378 C.3     
  33 C33           -4.3622    -4.3296     3.2395 C.3     
  34 S34           10.8423     4.1207     0.9098 S.3     
  35 C35            9.3288     4.4664     0.0946 C.2     
  36 C36            8.3871     3.6114     0.4443 C.2     
  37 H37            1.3254    -1.8548     0.2865 H       
  38 H38            1.2473     3.0511    -0.2351 H       
  39 H39            3.4333    -0.5845     0.3018 H       
  40 H40            3.7505     2.8529    -0.4697 H       
  41 H41            5.6116    -1.2420     3.3946 H       
  42 H42            7.1737    -0.6257     3.4483 H       
  43 H43           -1.3862    -0.8335     2.0827 H       
  44 H44           -2.1029     0.5474     1.2171 H       
  45 H45           -3.8437    -1.0639     1.9789 H       
  46 H46           -3.7895    -0.9461     0.2033 H       
  47 H47           -1.9866    -4.1068    -0.2137 H       
  48 H48           -2.7032    -2.7259    -1.0792 H       
  49 H49           -0.2458    -2.4955    -0.9754 H       
  50 H50           -0.3000    -2.6134     0.8002 H       
  51 H51           10.4272     0.2605     3.8780 H       
  52 H52           -4.8583    -3.1865     0.1347 H       
  53 H53           -5.0515    -2.2265     2.6925 H       
  54 H54           -4.4309    -5.4536     0.0896 H       
  55 H55           -2.8872    -5.1790     0.9545 H       
  56 H56           -4.2406    -6.5167     2.6073 H       
  57 H57           -7.1104    -3.6684     2.8796 H       
  58 H58           -6.8333    -3.5810     1.1127 H       
  59 H59           -6.4051    -5.8462     1.0677 H       
  60 H60           -6.6822    -5.9337     2.8346 H       
  61 H61           -3.3016    -4.1322     3.3949 H       
  62 H62           -4.8937    -4.4488     4.1837 H       
  63 H63            9.1866     5.2744    -0.6078 H       
  64 H64            7.3830     3.6584     0.0495 H       
@<TRIPOS>BOND
   1    1    2 ar
   2    1    6 ar
   3    1   37 1
   4    2    3 ar
   5    2   16 1
   6    3    4 ar
   7    3    7 1
   8    4    5 ar
   9    4   38 1
  10    5    6 ar
  11    5    8 1
  12    6   39 1
  13    8    9 1
  14    8   40 1
  15    9   10 2
  16    9   11 1
  17   10   13 1
  18   11   12 2
  19   12   13 1
  20   12   15 1
  21   13   14 1
  22   14   22 ar
  23   14   26 ar
  24   15   41 1
  25   15   42 1
  26   16   17 1
  27   16   21 1
  28   17   18 1
  29   17   43 1
  30   17   44 1
  31   18   19 1
  32   18   45 1
  33   18   46 1
  34   19   20 1
  35   19   27 1
  36   20   21 1
  37   20   47 1
  38   20   48 1
  39   21   49 1
  40   21   50 1
  41   22   23 ar
  42   23   24 ar
  43   23   51 1
  44   24   25 ar
  45   25   26 ar
  46   25   34 1
  47   26   36 1
  48   27   28 1
  49   27   29 1
  50   27   52 1
  51   28   31 1
  52   28   33 1
  53   28   53 1
  54   29   30 1
  55   29   54 1
  56   29   55 1
  57   30   32 1
  58   30   33 1
  59   30   56 1
  60   31   32 1
  61   31   57 1
  62   31   58 1
  63   32   59 1
  64   32   60 1
  65   33   61 1
  66   33   62 1
  67   34   35 1
  68   35   36 2
  69   35   63 1
  70   36   64 1

#	End of record

