#	Name: ASD11000081
#	Creating user name:	WinNT
#	Creation time:	15. 06. 2019 21:28

#	Modifying user name:	WinNT
#	Modification time:	15. 06. 2019 21:28

#	Program:	/corina/corina34_cracker 3.40 0067  02.08.2006

@<TRIPOS>MOLECULE
ASD11000081
  51   53    0    0    0
SMALL
NO_CHARGES


@<TRIPOS>ATOM
   1 C1            -0.0167     1.3794     0.0096 C.ar    
   2 C2             0.0021    -0.0041     0.0020 C.ar    
   3 C3            -1.1813    -0.7131     0.0091 C.ar    
   4 C4            -2.3995    -0.0315     0.0243 C.ar    
   5 C5            -2.4113     1.3644     0.0324 C.ar    
   6 C6            -1.2206     2.0611     0.0305 C.ar    
   7 C7            -3.6712    -0.7845     0.0315 C.2     
   8 O8            -3.6579    -2.0000     0.0240 O.2     
   9 N9            -4.8457    -0.1235     0.0462 N.am    
  10 C10           -6.0373    -0.8291     0.0529 C.2     
  11 C11           -7.2801    -0.2570     0.0678 C.2     
  12 C12           -8.3598    -1.2277     0.0708 C.2     
  13 C13           -7.9122    -2.4884     0.0586 C.2     
  14 S14           -6.1568    -2.5273     0.0364 S.3     
  15 C15           -7.4994     1.1906     0.0795 C.2     
  16 O16           -7.5896     1.8496     1.2529 O.3     
  17 O17           -7.6003     1.7990    -0.9691 O.2     
  18 C18            1.2800     2.1472     0.0014 C.3     
  19 C19            2.0744     1.7932    -1.2574 C.3     
  20 C20            0.9840     3.6483     0.0123 C.3     
  21 C21            2.0982     1.7798     1.2409 C.3     
  22 C22           -9.8352    -0.8608     0.0856 C.3     
  23 C23          -10.6440    -2.0884     0.5108 C.3     
  24 C24          -10.2222    -3.2888    -0.3419 C.3     
  25 C25           -8.8068    -3.7132     0.0591 C.3     
  26 C26          -11.1907    -4.4496    -0.1062 C.3     
  27 H27            0.9453    -0.5301    -0.0098 H       
  28 H28           -1.1653    -1.7929     0.0024 H       
  29 H29           -3.3503     1.8977     0.0443 H       
  30 H30           -1.2282     3.1410     0.0371 H       
  31 H31           -4.8563     0.8464     0.0522 H       
  32 H32           -7.7347     2.8047     1.2100 H       
  33 H33            1.4915     2.0550    -2.1405 H       
  34 H34            3.0122     2.3486    -1.2634 H       
  35 H35            2.2853     0.7238    -1.2652 H       
  36 H36            0.4181     3.9005     0.9090 H       
  37 H37            1.9219     4.2036     0.0063 H       
  38 H38            0.4011     3.9101    -0.8708 H       
  39 H39            2.3091     0.7104     1.2331 H       
  40 H40            3.0361     2.3351     1.2349 H       
  41 H41            1.5323     2.0320     2.1377 H       
  42 H42          -10.0029    -0.0495     0.7939 H       
  43 H43          -10.1438    -0.5474    -0.9118 H       
  44 H44          -10.4537    -2.3037     1.5622 H       
  45 H45          -11.7063    -1.8931     0.3646 H       
  46 H46          -10.2347    -3.0100    -1.3956 H       
  47 H47           -8.4275    -4.4429    -0.6564 H       
  48 H48           -8.8256    -4.1519     1.0567 H       
  49 H49          -12.1992    -4.1435    -0.3844 H       
  50 H50          -10.8894    -5.3031    -0.7135 H       
  51 H51          -11.1734    -4.7290     0.9472 H       
@<TRIPOS>BOND
   1    1    2 ar
   2    1   18 1
   3    1    6 ar
   4    2    3 ar
   5    2   27 1
   6    3    4 ar
   7    3   28 1
   8    4    5 ar
   9    4    7 1
  10    5    6 ar
  11    5   29 1
  12    6   30 1
  13    7    8 2
  14    7    9 am
  15    9   10 1
  16    9   31 1
  17   10   11 2
  18   10   14 1
  19   11   12 1
  20   11   15 1
  21   12   13 2
  22   12   22 1
  23   13   14 1
  24   13   25 1
  25   15   16 1
  26   15   17 2
  27   16   32 1
  28   18   19 1
  29   18   20 1
  30   18   21 1
  31   19   33 1
  32   19   34 1
  33   19   35 1
  34   20   36 1
  35   20   37 1
  36   20   38 1
  37   21   39 1
  38   21   40 1
  39   21   41 1
  40   22   23 1
  41   22   42 1
  42   22   43 1
  43   23   24 1
  44   23   44 1
  45   23   45 1
  46   24   25 1
  47   24   26 1
  48   24   46 1
  49   25   47 1
  50   25   48 1
  51   26   49 1
  52   26   50 1
  53   26   51 1

#	End of record

