#	Name: ASD13010048
#	Creating user name:	WinNT
#	Creation time:	15. 06. 2019 21:30

#	Modifying user name:	WinNT
#	Modification time:	15. 06. 2019 21:30

#	Program:	/corina/corina34_cracker 3.40 0067  02.08.2006

@<TRIPOS>MOLECULE
ASD13010048
  45   48    0    0    0
SMALL
NO_CHARGES


@<TRIPOS>ATOM
   1 C1            -0.0165     1.3621     0.0095 C.ar    
   2 C2             0.0021    -0.0041     0.0020 C.ar    
   3 C3             1.2047    -0.6992    -0.0132 C.ar    
   4 C4             2.3947    -0.0298    -0.0205 C.ar    
   5 C5             1.1819     2.0716     0.0019 C.ar    
   6 N6             1.4943     3.4060     0.0061 N.pl3   
   7 C7             2.4018     1.3682    -0.0131 C.ar    
   8 C8             3.4586     2.3795    -0.0173 C.2     
   9 N9             2.8852     3.5523    -0.0064 N.2     
  10 O10            4.7966     2.1412    -0.0307 O.3     
  11 C11            5.6353     3.2108    -0.0326 C.ar    
  12 C12            6.0490     3.7679    -1.2350 C.ar    
  13 C13            6.0753     3.7518     1.1677 C.ar    
  14 C14            6.9280     4.8401     1.1625 C.ar    
  15 C15            7.3421     5.3898    -0.0367 C.ar    
  16 C16            6.9018     4.8562    -1.2337 C.ar    
  17 Cl17           5.4967     3.0986    -2.7385 Cl      
  18 Cl18           5.5549     3.0630     2.6738 Cl      
  19 C19            0.5253     4.5047     0.0205 C.3     
  20 C20            2.3516     6.7955     0.0161 C.3     
  21 C21            2.1592     5.9294     1.2626 C.3     
  22 C22            0.7401     5.3577     1.2723 C.3     
  23 C23            0.7177     5.3708    -1.2260 C.3     
  24 C24            2.1369     5.9425    -1.2357 C.3     
  25 C25            3.7494     7.3586     0.0066 C.2     
  26 O26            4.5133     7.0944     0.9046 O.2     
  27 O27            4.1458     8.1538    -0.9996 O.3     
  28 H28           -0.9583     1.8906     0.0169 H       
  29 H29           -0.9296    -0.5502     0.0083 H       
  30 H30            1.1984    -1.7791    -0.0189 H       
  31 H31            3.3255    -0.5774    -0.0316 H       
  32 H32            7.2706     5.2614     2.0960 H       
  33 H33            8.0077     6.2404    -0.0382 H       
  34 H34            7.2243     5.2898    -2.1688 H       
  35 H35           -0.4857     4.0974     0.0274 H       
  36 H36            1.6307     7.6130     0.0268 H       
  37 H37            2.8801     5.1120     1.2519 H       
  38 H38            2.3122     6.5372     2.1545 H       
  39 H39            0.0191     6.1752     1.2830 H       
  40 H40            0.6030     4.7407     2.1604 H       
  41 H41            0.5648     4.7631    -2.1179 H       
  42 H42           -0.0032     6.1882    -1.2153 H       
  43 H43            2.2740     6.5595    -2.1237 H       
  44 H44            2.8578     5.1251    -1.2464 H       
  45 H45            5.0513     8.4909    -0.9620 H       
@<TRIPOS>BOND
   1    1    2 ar
   2    1    5 ar
   3    1   28 1
   4    2    3 ar
   5    2   29 1
   6    3    4 ar
   7    3   30 1
   8    4    7 ar
   9    4   31 1
  10    5    7 ar
  11    5    6 1
  12    6    9 1
  13    6   19 1
  14    7    8 1
  15    8    9 2
  16    8   10 1
  17   10   11 1
  18   11   13 ar
  19   11   12 ar
  20   12   16 ar
  21   12   17 1
  22   13   14 ar
  23   13   18 1
  24   14   15 ar
  25   14   32 1
  26   15   16 ar
  27   15   33 1
  28   16   34 1
  29   19   23 1
  30   19   22 1
  31   19   35 1
  32   20   21 1
  33   20   24 1
  34   20   25 1
  35   20   36 1
  36   21   22 1
  37   21   37 1
  38   21   38 1
  39   22   39 1
  40   22   40 1
  41   23   24 1
  42   23   41 1
  43   23   42 1
  44   24   43 1
  45   24   44 1
  46   25   26 2
  47   25   27 1
  48   27   45 1

#	End of record

