#	Name: ASD10420071
#	Creating user name:	WinNT
#	Creation time:	15. 06. 2019 21:27

#	Modifying user name:	WinNT
#	Modification time:	15. 06. 2019 21:27

#	Program:	/corina/corina34_cracker 3.40 0067  02.08.2006

@<TRIPOS>MOLECULE
ASD10420071
  81   85    0    0    0
SMALL
NO_CHARGES


@<TRIPOS>ATOM
   1 C1            -0.3903     1.4511    -0.0340 C.2     
   2 C2            -0.5901     0.0663    -0.0065 C.2     
   3 C3             0.5146    -0.7702     0.0988 C.2     
   4 C4             1.8080    -0.2074     0.1754 C.2     
   5 N5             1.9759     1.0850     0.1489 N.2     
   6 N6             0.8832     1.9557     0.0430 N.pl3   
   7 C7            -1.2836     2.5342    -0.1258 C.2     
   8 C8            -0.5180     3.6989    -0.1083 C.2     
   9 C9             0.8131     3.3241    -0.0031 C.2     
  10 C10            0.3380    -2.2344     0.1308 C.2     
  11 O11           -0.7766    -2.7135     0.0650 O.2     
  12 O12            1.4130    -3.0407     0.2331 O.3     
  13 C13           -2.7591     2.4522    -0.2231 C.ar    
  14 C14           -3.5034     1.9367     0.8381 C.ar    
  15 C15           -4.8778     1.8629     0.7413 C.ar    
  16 C16           -5.5178     2.2989    -0.4052 C.ar    
  17 C17           -4.7851     2.8107    -1.4613 C.ar    
  18 C18           -3.4107     2.8955    -1.3742 C.ar    
  19 C19           -1.0420     5.1098    -0.1848 C.3     
  20 C20           -1.4144     5.5829     1.1967 C.ar    
  21 C21           -1.8344     6.8854     1.3909 C.ar    
  22 C22           -2.1769     7.3196     2.6600 C.ar    
  23 C23           -2.0982     6.4483     3.7335 C.ar    
  24 C24           -1.6781     5.1468     3.5369 C.ar    
  25 C25           -1.3413     4.7127     2.2680 C.ar    
  26 C26           -1.9190     7.8324     0.2218 C.3     
  27 F27           -2.5871     8.5926     2.8512 F       
  28 C28            1.9552     4.2392     0.0525 C.2     
  29 O29            2.2449     4.7882     1.0996 O.2     
  30 N30            2.6855     4.4735    -1.0558 N.am    
  31 C31            3.9011     5.2969    -0.9903 C.3     
  32 C32            5.0726     4.4874    -1.5599 C.3     
  33 N33            4.6680     3.9237    -2.8554 N.am    
  34 C34            3.4524     3.1002    -2.9209 C.3     
  35 C35            2.2840     3.9051    -2.3502 C.3     
  36 C36            5.3983     4.1579    -3.9636 C.2     
  37 O37            6.4013     4.8406    -3.8972 O.2     
  38 O38            5.0166     3.6355    -5.1443 O.3     
  39 C39            5.8510     3.9292    -6.2957 C.3     
  40 C40            7.2649     3.3990    -6.0495 C.3     
  41 C41            5.2627     3.2555    -7.5371 C.3     
  42 C42            5.9046     5.4426    -6.5140 C.3     
  43 C43            1.1642    -4.4710     0.2588 C.3     
  44 C44            2.4942    -5.2180     0.3777 C.3     
  45 H45           -1.5867    -0.3457    -0.0659 H       
  46 H46            2.6679    -0.8556     0.2573 H       
  47 H47           -3.0049     1.5957     1.7334 H       
  48 H48           -5.4551     1.4636     1.5620 H       
  49 H49           -6.5938     2.2391    -0.4762 H       
  50 H50           -5.2903     3.1488    -2.3539 H       
  51 H51           -2.8402     3.3000    -2.1972 H       
  52 H52           -0.2717     5.7616    -0.5968 H       
  53 H53           -1.9221     5.1361    -0.8274 H       
  54 H54           -2.3648     6.7861     4.7241 H       
  55 H55           -1.6166     4.4671     4.3739 H       
  56 H56           -1.0173     3.6939     2.1146 H       
  57 H57           -2.9359     7.8351    -0.1708 H       
  58 H58           -1.6531     8.8377     0.5486 H       
  59 H59           -1.2293     7.5095    -0.5580 H       
  60 H60            3.7614     6.2029    -1.5800 H       
  61 H61            4.1087     5.5608     0.0467 H       
  62 H62            5.9350     5.1396    -1.6981 H       
  63 H63            5.3276     3.6802    -0.8733 H       
  64 H64            3.2448     2.8363    -3.9578 H       
  65 H65            3.5921     2.1943    -2.3311 H       
  66 H66            1.4239     3.2501    -2.2111 H       
  67 H67            2.0265     4.7097    -3.0390 H       
  68 H68            7.2267     2.3208    -5.8941 H       
  69 H69            7.8913     3.6195    -6.9139 H       
  70 H70            7.6840     3.8790    -5.1652 H       
  71 H71            4.2553     3.6332    -7.7125 H       
  72 H72            5.8890     3.4760    -8.4014 H       
  73 H73            5.2244     2.1773    -7.3816 H       
  74 H74            6.3237     5.9226    -5.6296 H       
  75 H75            6.5310     5.6631    -7.3783 H       
  76 H76            4.8973     5.8203    -6.6894 H       
  77 H77            0.5330    -4.7146     1.1134 H       
  78 H78            0.6611    -4.7689    -0.6611 H       
  79 H79            2.3074    -6.2917     0.3970 H       
  80 H80            3.1254    -4.9743    -0.4769 H       
  81 H81            2.9972    -4.9201     1.2976 H       
@<TRIPOS>BOND
   1    1    2 1
   2    1    6 1
   3    1    7 2
   4    2    3 2
   5    2   45 1
   6    3    4 1
   7    3   10 1
   8    4    5 2
   9    4   46 1
  10    5    6 1
  11    6    9 1
  12    7    8 1
  13    7   13 1
  14    8    9 2
  15    8   19 1
  16    9   28 1
  17   10   11 2
  18   10   12 1
  19   12   43 1
  20   13   14 ar
  21   13   18 ar
  22   14   15 ar
  23   14   47 1
  24   15   16 ar
  25   15   48 1
  26   16   17 ar
  27   16   49 1
  28   17   18 ar
  29   17   50 1
  30   18   51 1
  31   19   20 1
  32   19   52 1
  33   19   53 1
  34   20   21 ar
  35   20   25 ar
  36   21   22 ar
  37   21   26 1
  38   22   23 ar
  39   22   27 1
  40   23   24 ar
  41   23   54 1
  42   24   25 ar
  43   24   55 1
  44   25   56 1
  45   26   57 1
  46   26   58 1
  47   26   59 1
  48   28   29 2
  49   28   30 am
  50   30   31 1
  51   30   35 1
  52   31   32 1
  53   31   60 1
  54   31   61 1
  55   32   33 1
  56   32   62 1
  57   32   63 1
  58   33   34 1
  59   33   36 am
  60   34   35 1
  61   34   64 1
  62   34   65 1
  63   35   66 1
  64   35   67 1
  65   36   37 2
  66   36   38 1
  67   38   39 1
  68   39   40 1
  69   39   42 1
  70   39   41 1
  71   40   68 1
  72   40   69 1
  73   40   70 1
  74   41   71 1
  75   41   72 1
  76   41   73 1
  77   42   74 1
  78   42   75 1
  79   42   76 1
  80   43   44 1
  81   43   77 1
  82   43   78 1
  83   44   79 1
  84   44   80 1
  85   44   81 1

#	End of record

