#	Name: ASD13170001
#	Creating user name:	WinNT
#	Creation time:	15. 06. 2019 21:30

#	Modifying user name:	WinNT
#	Modification time:	15. 06. 2019 21:30

#	Program:	/corina/corina34_cracker 3.40 0067  02.08.2006

@<TRIPOS>MOLECULE
ASD13170001
  64   68    0    0    0
SMALL
NO_CHARGES


@<TRIPOS>ATOM
   1 C1            -0.0167     1.3779     0.0096 C.ar    
   2 C2             0.0021    -0.0041     0.0020 C.ar    
   3 C3             1.2078    -0.6805    -0.0127 C.ar    
   4 C4             2.3974     0.0262    -0.0203 C.ar    
   5 C5             2.3786     1.4129    -0.0132 C.ar    
   6 C6             1.1702     2.0869     0.0021 C.ar    
   7 F7             3.5389     2.1050    -0.0201 F       
   8 F8             3.5760    -0.6341    -0.0343 F       
   9 C9            -1.3323     2.1128     0.0198 C.3     
  10 C10           -1.6126     3.0433     1.2016 C.3     
  11 C11           -1.2957     3.6298    -0.1755 C.3     
  12 N12           -2.9957     3.1377     1.6750 N.pl3   
  13 C13           -3.2553     3.5074     2.9807 C.ar    
  14 N14           -3.7279     4.2389     5.5590 N.ar    
  15 C15           -2.5011     4.1416     5.0732 C.ar    
  16 N16           -2.2629     3.7852     3.8158 N.ar    
  17 C17           -4.5817     3.6029     3.4522 C.ar    
  18 C18           -4.7830     3.9837     4.7901 C.ar    
  19 N19           -5.7884     3.4045     2.8944 N.2     
  20 N20           -6.7173     3.6257     3.7580 N.2     
  21 N21           -6.1367     3.9930     4.9813 N.pl3   
  22 S22           -1.1364     4.4900     6.1319 S.3     
  23 C23            0.2331     4.2080     4.9825 C.3     
  24 C24            1.5610     4.4578     5.7003 C.3     
  25 C25           -6.8432     4.3231     6.2215 C.3     
  26 C26           -7.7822     5.5370     6.0120 C.3     
  27 C27           -8.8499     5.3842     7.1148 C.3     
  28 C28           -8.8791     3.8934     7.4950 C.3     
  29 C29           -7.8280     3.1923     6.6099 C.3     
  30 O30           -8.5425     3.7334     8.8745 O.3     
  31 C31           -9.6699     3.7417     9.7526 C.3     
  32 C32           -9.1937     3.5641    11.1957 C.3     
  33 O33           -8.4949     6.1726     8.2525 O.3     
  34 O34           -7.0627     6.7604     6.1784 O.3     
  35 C35            2.7186     4.2194     4.7288 C.3     
  36 O36           -8.4068     4.6933    11.5801 O.3     
  37 H37           -0.9261    -0.5562     0.0080 H       
  38 H38            1.2211    -1.7604    -0.0179 H       
  39 H39            1.1543     3.1668     0.0077 H       
  40 H40           -2.1770     1.5705    -0.4051 H       
  41 H41           -0.8454     3.1239     1.9716 H       
  42 H42           -0.3200     4.0963    -0.3115 H       
  43 H43           -2.1163     4.0859    -0.7293 H       
  44 H44           -3.7294     2.9406     1.0718 H       
  45 H45            0.2013     3.1788     4.6251 H       
  46 H46            0.1436     4.8894     4.1365 H       
  47 H47            1.5927     5.4870     6.0578 H       
  48 H48            1.6505     3.7764     6.5464 H       
  49 H49           -6.1356     4.5167     7.0277 H       
  50 H50           -8.2441     5.4962     5.0255 H       
  51 H51           -9.8246     5.6921     6.7362 H       
  52 H52           -9.8678     3.4778     7.3008 H       
  53 H53           -8.2973     2.7728     5.7200 H       
  54 H54           -7.3126     2.4144     7.1732 H       
  55 H55          -10.1970     4.6911     9.6582 H       
  56 H56          -10.3420     2.9252     9.4887 H       
  57 H57          -10.0572     3.4814    11.8557 H       
  58 H58           -8.5911     2.6589    11.2707 H       
  59 H59           -8.4388     7.1210     8.0719 H       
  60 H60           -7.6025     7.5536     6.0582 H       
  61 H61            3.6646     4.3974     5.2401 H       
  62 H62            2.6869     3.1902     4.3713 H       
  63 H63            2.6291     4.9008     3.8827 H       
  64 H64           -8.0706     4.6486    12.4856 H       
@<TRIPOS>BOND
   1    1    2 ar
   2    1    6 ar
   3    1    9 1
   4    2    3 ar
   5    2   37 1
   6    3    4 ar
   7    3   38 1
   8    4    5 ar
   9    4    8 1
  10    5    6 ar
  11    5    7 1
  12    6   39 1
  13    9   10 1
  14    9   11 1
  15    9   40 1
  16   10   11 1
  17   10   12 1
  18   10   41 1
  19   11   42 1
  20   11   43 1
  21   12   13 1
  22   12   44 1
  23   13   17 ar
  24   13   16 ar
  25   14   15 ar
  26   14   18 ar
  27   15   16 ar
  28   15   22 1
  29   17   19 1
  30   17   18 ar
  31   18   21 1
  32   19   20 2
  33   20   21 1
  34   21   25 1
  35   22   23 1
  36   23   24 1
  37   23   45 1
  38   23   46 1
  39   24   35 1
  40   24   47 1
  41   24   48 1
  42   25   26 1
  43   25   29 1
  44   25   49 1
  45   26   27 1
  46   26   34 1
  47   26   50 1
  48   27   28 1
  49   27   33 1
  50   27   51 1
  51   28   29 1
  52   28   30 1
  53   28   52 1
  54   29   53 1
  55   29   54 1
  56   30   31 1
  57   31   32 1
  58   31   55 1
  59   31   56 1
  60   32   36 1
  61   32   57 1
  62   32   58 1
  63   33   59 1
  64   34   60 1
  65   35   61 1
  66   35   62 1
  67   35   63 1
  68   36   64 1

#	End of record

