#	Name: ASD13110076
#	Creating user name:	WinNT
#	Creation time:	15. 06. 2019 21:30

#	Modifying user name:	WinNT
#	Modification time:	15. 06. 2019 21:30

#	Program:	/corina/corina34_cracker 3.40 0067  02.08.2006

@<TRIPOS>MOLECULE
ASD13110076
  46   48    0    0    0
SMALL
NO_CHARGES


@<TRIPOS>ATOM
   1 C1            -0.0169     1.3928     0.0097 C.ar    
   2 C2             0.0021    -0.0041     0.0020 C.ar    
   3 C3             1.2346    -0.6792    -0.0134 C.ar    
   4 C4             2.4187     0.0448    -0.0204 C.ar    
   5 C5             2.3763     1.4241    -0.0122 C.ar    
   6 C6             1.1582     2.0900     0.0022 C.ar    
   7 N7             0.9312    -2.0260    -0.0177 N.pl3   
   8 C8            -0.4250    -2.1354    -0.0054 C.2     
   9 N9            -0.9689    -0.9537     0.0062 N.2     
  10 C10           -1.1861    -3.4361    -0.0046 C.3     
  11 N11           -1.4196    -3.8644     1.3768 N.am    
  12 C12           -2.6313    -3.4378     2.0811 C.3     
  13 C13           -0.5197    -4.6510     1.9996 C.2     
  14 O14            0.4834    -5.0042     1.4166 O.2     
  15 C15           -0.7599    -5.0916     3.4206 C.3     
  16 N16            0.3542    -5.9320     3.8662 N.am    
  17 C17            1.4613    -5.3708     4.4769 C.ar    
  18 C18            2.4442    -6.2893     4.8487 C.ar    
  19 S19            1.8394    -7.8785     4.3608 S.3     
  20 C20            0.3194    -7.2572     3.6960 C.2     
  21 C21            3.6124    -5.8874     5.4702 C.ar    
  22 C22            3.8264    -4.5485     5.7362 C.ar    
  23 C23            2.8635    -3.6206     5.3754 C.ar    
  24 C24            1.6994    -4.0169     4.7571 C.ar    
  25 O25           -0.5752    -7.9060     3.1859 O.2     
  26 Cl26           3.1276    -1.9374     5.7081 Cl      
  27 C27            1.8915    -3.1323    -0.0336 C.3     
  28 Cl28           3.8557     2.3324    -0.0204 Cl      
  29 H29           -0.9590     1.9208     0.0170 H       
  30 H30            3.3686    -0.4689    -0.0319 H       
  31 H31            1.1391     3.1698     0.0078 H       
  32 H32           -2.1426    -3.2976    -0.5087 H       
  33 H33           -0.6065    -4.1966    -0.5278 H       
  34 H34           -3.4245    -4.1665     1.9137 H       
  35 H35           -2.4243    -3.3649     3.1488 H       
  36 H36           -2.9467    -2.4647     1.7048 H       
  37 H37           -0.8347    -4.2157     4.0650 H       
  38 H38           -1.6879    -5.6611     3.4725 H       
  39 H39            4.3565    -6.6193     5.7476 H       
  40 H40            4.7365    -4.2283     6.2217 H       
  41 H41            0.9615    -3.2772     4.4836 H       
  42 H42            2.1397    -3.4126     0.9901 H       
  43 H43            1.4525    -3.9871    -0.5481 H       
  44 H44            2.7967    -2.8203    -0.5545 H       
  45 Cl45           9.7365     8.1698    11.2217 Cl      
  46 H46            9.7365     9.5398    11.2217 H       
@<TRIPOS>BOND
   1    1    2 ar
   2    1    6 ar
   3    1   29 1
   4    2    9 1
   5    2    3 ar
   6    3    4 ar
   7    3    7 1
   8    4    5 ar
   9    4   30 1
  10    5    6 ar
  11    5   28 1
  12    6   31 1
  13    7    8 1
  14    7   27 1
  15    8   10 1
  16    8    9 2
  17   10   11 1
  18   10   32 1
  19   10   33 1
  20   11   12 1
  21   11   13 am
  22   12   34 1
  23   12   35 1
  24   12   36 1
  25   13   14 2
  26   13   15 1
  27   15   16 1
  28   15   37 1
  29   15   38 1
  30   16   17 1
  31   16   20 am
  32   17   24 ar
  33   17   18 ar
  34   18   19 1
  35   18   21 ar
  36   19   20 1
  37   20   25 2
  38   21   22 ar
  39   21   39 1
  40   22   23 ar
  41   22   40 1
  42   23   24 ar
  43   23   26 1
  44   24   41 1
  45   27   42 1
  46   27   43 1
  47   27   44 1
  48   45   46 1

#	End of record

