#	Name: ASD12390001
#	Creating user name:	WinNT
#	Creation time:	15. 06. 2019 21:30

#	Modifying user name:	WinNT
#	Modification time:	15. 06. 2019 21:30

#	Program:	/corina/corina34_cracker 3.40 0067  02.08.2006

@<TRIPOS>MOLECULE
ASD12390001
  67   65    0    0    0
SMALL
NO_CHARGES


@<TRIPOS>ATOM
   1 C1             0.1248     1.5184    -0.0871 C.3     
   2 C2            -8.0206    -2.4115     0.0441 C.ar    
   3 C3            -7.2630    -3.3122    -0.6809 C.ar    
   4 C4            -7.4442    -1.2485     0.5196 C.ar    
   5 C5            -5.9284    -3.0507    -0.9289 C.ar    
   6 C6            -6.1095    -0.9873     0.2720 C.ar    
   7 C7             3.0821    -1.1438     0.6029 C.ar    
   8 C8             2.6934     1.0520     1.4798 C.ar    
   9 C9             4.4277    -0.8581     0.4767 C.ar    
  10 C10            4.0382     1.3426     1.3556 C.ar    
  11 C11           -3.6765    -0.0904    -0.7974 C.3     
  12 C12           -3.0439    -2.1795     0.4124 C.3     
  13 C13           -2.1880     0.1938    -1.0104 C.3     
  14 C14           -1.5737    -1.8347     0.1643 C.3     
  15 C15            0.0021    -0.0041     0.0020 C.3     
  16 C16            2.2157    -0.1899     1.1041 C.ar    
  17 C17           -5.3516    -1.8884    -0.4523 C.ar    
  18 C18            4.9096     0.3871     0.8535 C.ar    
  19 C19            0.7481    -0.5042     1.2406 C.3     
  20 C20           -3.8965    -1.6038    -0.7218 C.3     
  21 N21           -1.4156    -0.3761     0.1008 N.3     
  22 O22            6.2331     0.6703     0.7308 O.3     
  23 O23            0.2285     0.1435     2.4036 O.3     
  24 O24           -3.5125    -2.2047    -1.9601 O.3     
  25 H25            0.4351    -0.4563    -0.8902 H       
  26 H26            0.6146    -1.5819     1.3347 H       
  27 H27            1.1767     1.7945    -0.1605 H       
  28 H28           -0.4068     1.8747    -0.9695 H       
  29 H29           -0.3082     1.9707     0.8051 H       
  30 H30           -9.0644    -2.6137     0.2341 H       
  31 H31           -7.7132    -4.2210    -1.0521 H       
  32 H32           -8.0362    -0.5447     1.0858 H       
  33 H33           -5.3363    -3.7547    -1.4948 H       
  34 H34           -5.6590    -0.0790     0.6441 H       
  35 H35            2.7057    -2.1114     0.3056 H       
  36 H36            2.0146     1.7954     1.8711 H       
  37 H37            5.1041    -1.6037     0.0855 H       
  38 H38            4.4108     2.3130     1.6489 H       
  39 H39           -4.0058     0.3722     0.1330 H       
  40 H40           -4.2481     0.3192    -1.6303 H       
  41 H41           -3.1634    -3.2624     0.4438 H       
  42 H42           -3.3633    -1.7498     1.3618 H       
  43 H43           -1.8626    -0.2573    -1.9479 H       
  44 H44           -2.0260     1.2710    -1.0505 H       
  45 H45           -0.9655    -2.2309     0.9775 H       
  46 H46           -1.2512    -2.2763    -0.7786 H       
  47 H47            6.4757     1.0542    -0.1229 H       
  48 H48            0.3138     1.1067     2.3886 H       
  49 H49           -3.6256    -3.1647    -1.9832 H       
  50 C50           12.7587    10.4565     8.4672 C.3     
  51 O51           13.5375     8.2661     9.7245 O.3     
  52 O52           11.4757     8.1251     8.6608 O.2     
  53 O53           13.6061     8.1609     7.4036 O.2     
  54 S54           12.7833     8.6427     8.4572 S.o2    
  55 H55           13.7813    10.8338     8.4595 H       
  56 H56           12.2316    10.8175     7.5842 H       
  57 H57           12.2485    10.8080     9.3640 H       
  58 H58           13.6320     7.3130     9.8574 H       
  59 O59           18.7813    16.8006    14.8636 O.3     
  60 H60           18.7944    15.8338    14.8583 H       
  61 H61           19.6593    17.2059    14.8574 H       
  62 O62           24.6593    23.1728    19.8698 O.3     
  63 H63           24.6724    22.2059    19.8645 H       
  64 H64           25.5372    23.5781    19.8636 H       
  65 O65           30.5372    29.5450    24.8760 O.3     
  66 H66           30.5503    28.5781    24.8707 H       
  67 H67           31.4152    29.9503    24.8698 H       
@<TRIPOS>BOND
   1    1   15 1
   2    1   27 1
   3    1   28 1
   4    1   29 1
   5    2    3 ar
   6    2    4 ar
   7    2   30 1
   8    3    5 ar
   9    3   31 1
  10    4    6 ar
  11    4   32 1
  12    5   17 ar
  13    5   33 1
  14    6   17 ar
  15    6   34 1
  16    7    9 ar
  17    7   16 ar
  18    7   35 1
  19    8   10 ar
  20    8   16 ar
  21    8   36 1
  22    9   18 ar
  23    9   37 1
  24   10   18 ar
  25   10   38 1
  26   11   13 1
  27   11   20 1
  28   11   39 1
  29   11   40 1
  30   12   14 1
  31   12   20 1
  32   12   41 1
  33   12   42 1
  34   13   21 1
  35   13   43 1
  36   13   44 1
  37   14   21 1
  38   14   45 1
  39   14   46 1
  40   15   25 1
  41   15   19 1
  42   15   21 1
  43   16   19 1
  44   17   20 1
  45   18   22 1
  46   19   26 1
  47   19   23 1
  48   20   24 1
  49   22   47 1
  50   23   48 1
  51   24   49 1
  52   50   54 1
  53   50   55 1
  54   50   56 1
  55   50   57 1
  56   51   54 1
  57   51   58 1
  58   52   54 2
  59   53   54 2
  60   59   60 1
  61   59   61 1
  62   62   63 1
  63   62   64 1
  64   65   66 1
  65   65   67 1

#	End of record

