#	Name: ASD10160414
#	Creating user name:	WinNT
#	Creation time:	15. 06. 2019 21:25

#	Modifying user name:	WinNT
#	Modification time:	15. 06. 2019 21:25

#	Program:	/corina/corina34_cracker 3.40 0067  02.08.2006

@<TRIPOS>MOLECULE
ASD10160414
  56   58    0    0    0
SMALL
NO_CHARGES


@<TRIPOS>ATOM
   1 C1            -2.2271    -2.6031     4.8625 C.2     
   2 C2            -1.6263    -3.0054     3.5792 C.ar    
   3 C3            -0.3012    -3.4572     3.5346 C.ar    
   4 C4             0.2563    -3.8332     2.3295 C.ar    
   5 C5            -0.4948    -3.7639     1.1632 C.ar    
   6 C6            -1.8119    -3.3154     1.2037 C.ar    
   7 C7            -2.3790    -2.9429     2.4020 C.ar    
   8 O8            -1.5730    -2.6629     5.8849 O.2     
   9 O9            -3.5005    -2.1635     4.9021 O.3     
  10 F10            0.4296    -3.5243     4.6688 F       
  11 O11            0.0574    -4.1342    -0.0197 O.3     
  12 C12            2.4200    -3.8535    -0.1444 C.ar    
  13 C13            1.3079    -4.6677    -0.0012 C.ar    
  14 C14            1.4868    -6.0386     0.1622 C.ar    
  15 C15            2.7783    -6.5379     0.1754 C.ar    
  16 C16            3.8451    -5.6600     0.0260 C.ar    
  17 N17            3.6369    -4.3634    -0.1271 N.ar    
  18 O18            5.1154    -6.1390     0.0379 O.3     
  19 N19            8.8361    -4.5689    -1.0395 N.3     
  20 C20            8.5592    -4.6832     0.3981 C.3     
  21 C21            7.4164    -5.6762     0.6215 C.3     
  22 C22            6.1693    -5.1870    -0.1202 C.3     
  23 C23            6.4983    -5.0301    -1.6074 C.3     
  24 C24            7.6677    -4.0558    -1.7661 C.3     
  25 C25           10.0175    -3.7304    -1.2830 C.3     
  26 Cl26           3.0612    -8.2389     0.3765 Cl      
  27 Cl27          -2.7436    -3.2312    -0.2587 Cl      
  28 C28           -4.0269    -1.7841     6.2010 C.3     
  29 C29           -3.1817    -0.6487     6.7820 C.3     
  30 C30           -5.4750    -1.3148     6.0472 C.3     
  31 C31           -3.9786    -2.9891     7.1426 C.3     
  32 H32            1.2779    -4.1815     2.2931 H       
  33 H33           -3.4025    -2.5994     2.4322 H       
  34 H34            2.2891    -2.7896    -0.2761 H       
  35 H35            0.6384    -6.6970     0.2765 H       
  36 H36            9.4527    -5.0359     0.9132 H       
  37 H37            8.2746    -3.7074     0.7918 H       
  38 H38            7.7056    -6.6556     0.2404 H       
  39 H39            7.2007    -5.7490     1.6874 H       
  40 H40            5.8563    -4.2260     0.2879 H       
  41 H41            6.7731    -5.9993    -2.0235 H       
  42 H42            5.6267    -4.6413    -2.1339 H       
  43 H43            7.3873    -3.0830    -1.3623 H       
  44 H44            7.9138    -3.9529    -2.8230 H       
  45 H45           10.8849    -4.1740    -0.7942 H       
  46 H46           10.2000    -3.6626    -2.3555 H       
  47 H47            9.8441    -2.7326    -0.8801 H       
  48 H48           -3.2162     0.2097     6.1112 H       
  49 H49           -3.5769    -0.3640     7.7571 H       
  50 H50           -2.1501    -0.9831     6.8916 H       
  51 H51           -6.0770    -2.1237     5.6333 H       
  52 H52           -5.8701    -1.0300     7.0224 H       
  53 H53           -5.5094    -0.4563     5.3765 H       
  54 H54           -2.9469    -3.3235     7.2522 H       
  55 H55           -4.3737    -2.7044     8.1177 H       
  56 H56           -4.5806    -3.7980     6.7287 H       
@<TRIPOS>BOND
   1    1    2 1
   2    1    8 2
   3    1    9 1
   4    2    3 ar
   5    2    7 ar
   6    3    4 ar
   7    3   10 1
   8    4    5 ar
   9    4   32 1
  10    5    6 ar
  11    5   11 1
  12    6    7 ar
  13    6   27 1
  14    7   33 1
  15    9   28 1
  16   11   13 1
  17   12   13 ar
  18   12   17 ar
  19   12   34 1
  20   13   14 ar
  21   14   15 ar
  22   14   35 1
  23   15   16 ar
  24   15   26 1
  25   16   17 ar
  26   16   18 1
  27   18   22 1
  28   19   20 1
  29   19   24 1
  30   19   25 1
  31   20   21 1
  32   20   36 1
  33   20   37 1
  34   21   22 1
  35   21   38 1
  36   21   39 1
  37   22   23 1
  38   22   40 1
  39   23   24 1
  40   23   41 1
  41   23   42 1
  42   24   43 1
  43   24   44 1
  44   25   45 1
  45   25   46 1
  46   25   47 1
  47   28   29 1
  48   28   31 1
  49   28   30 1
  50   29   48 1
  51   29   49 1
  52   29   50 1
  53   30   51 1
  54   30   52 1
  55   30   53 1
  56   31   54 1
  57   31   55 1
  58   31   56 1

#	End of record

