#	Name: ASD10270001
#	Creating user name:	WinNT
#	Creation time:	15. 06. 2019 21:26

#	Modifying user name:	WinNT
#	Modification time:	15. 06. 2019 21:26

#	Program:	/corina/corina34_cracker 3.40 0067  02.08.2006

@<TRIPOS>MOLECULE
ASD10270001
  26   28    0    0    0
SMALL
NO_CHARGES


@<TRIPOS>ATOM
   1 C1            -0.0164     1.3591     0.0095 C.ar    
   2 C2             0.0021    -0.0041     0.0020 C.ar    
   3 C3             1.2299    -0.6866    -0.0133 C.ar    
   4 C4             2.4302     0.0596    -0.0208 C.ar    
   5 C5             2.3767     1.4554    -0.0132 C.ar    
   6 C6             1.1668     2.0886     0.0021 C.ar    
   7 C7             1.2631    -2.0969    -0.0207 C.ar    
   8 C8             2.4434    -2.7801    -0.0352 C.ar    
   9 C9             3.7197    -2.0570    -0.0441 C.ar    
  10 C10            3.7161    -0.6459    -0.0369 C.ar    
  11 C11            4.9394    -2.7401    -0.0599 C.ar    
  12 C12            6.1092    -2.0359    -0.0687 C.ar    
  13 C13            6.1043    -0.6466    -0.0616 C.ar    
  14 C14            4.9281     0.0478    -0.0458 C.ar    
  15 C15            2.4367    -4.2121    -0.0414 C.1     
  16 C16            2.4313    -5.3860    -0.0465 C.1     
  17 H17           -0.9629     1.8791     0.0168 H       
  18 H18           -0.9250    -0.5580     0.0082 H       
  19 H19            3.2896     2.0323    -0.0188 H       
  20 H20            1.1288     3.1679     0.0080 H       
  21 H21            0.3340    -2.6474    -0.0144 H       
  22 H22            4.9563    -3.8200    -0.0648 H       
  23 H23            7.0503    -2.5656    -0.0809 H       
  24 H24            7.0412    -0.1094    -0.0684 H       
  25 H25            4.9354     1.1277    -0.0408 H       
  26 H26            2.4264    -6.4360    -0.0510 H       
@<TRIPOS>BOND
   1    1    2 ar
   2    1    6 ar
   3    1   17 1
   4    2    3 ar
   5    2   18 1
   6    3    4 ar
   7    3    7 ar
   8    4    5 ar
   9    4   10 ar
  10    5    6 ar
  11    5   19 1
  12    6   20 1
  13    7    8 ar
  14    7   21 1
  15    8    9 ar
  16    8   15 1
  17    9   10 ar
  18    9   11 ar
  19   10   14 ar
  20   11   12 ar
  21   11   22 1
  22   12   13 ar
  23   12   23 1
  24   13   14 ar
  25   13   24 1
  26   14   25 1
  27   15   16 3
  28   16   26 1

#	End of record

