#	Name: ASD11000050
#	Creating user name:	WinNT
#	Creation time:	15. 06. 2019 21:28

#	Modifying user name:	WinNT
#	Modification time:	15. 06. 2019 21:28

#	Program:	/corina/corina34_cracker 3.40 0067  02.08.2006

@<TRIPOS>MOLECULE
ASD11000050
  48   50    0    0    0
SMALL
NO_CHARGES


@<TRIPOS>ATOM
   1 C1            -0.0167     1.3794     0.0096 C.ar    
   2 C2             0.0021    -0.0041     0.0020 C.ar    
   3 C3            -1.1813    -0.7131     0.0095 C.ar    
   4 C4            -2.3995    -0.0315     0.0253 C.ar    
   5 C5            -2.4113     1.3644     0.0333 C.ar    
   6 C6            -1.2206     2.0611     0.0306 C.ar    
   7 C7            -3.6712    -0.7845     0.0329 C.2     
   8 O8            -3.6579    -2.0000     0.0254 O.2     
   9 N9            -4.8456    -0.1235     0.0481 N.am    
  10 C10           -6.0370    -0.8289     0.0552 C.2     
  11 C11           -7.2798    -0.2529     0.0706 C.2     
  12 C12           -8.3542    -1.2322     0.0750 C.2     
  13 C13           -7.9061    -2.4930     0.0631 C.2     
  14 S14           -6.1523    -2.5287     0.0387 S.3     
  15 C15           -7.5021     1.1927     0.0819 C.2     
  16 O16           -7.5931     1.8520     1.2553 O.3     
  17 O17           -7.6049     1.8006    -0.9669 O.2     
  18 C18            1.2800     2.1472     0.0014 C.3     
  19 C19            2.0744     1.7932    -1.2574 C.3     
  20 C20            0.9840     3.6483     0.0123 C.3     
  21 C21            2.0982     1.7798     1.2409 C.3     
  22 C22           -9.7921    -0.8727     0.0909 C.ar    
  23 C23          -10.6679    -1.4493    -0.8280 C.ar    
  24 C24          -10.2751     0.0391     1.0285 C.ar    
  25 C25          -11.6149     0.3697     1.0388 C.ar    
  26 C26          -12.4781    -0.2017     0.1212 C.ar    
  27 C27          -12.0056    -1.1110    -0.8081 C.ar    
  28 H28            0.9453    -0.5301    -0.0102 H       
  29 H29           -1.1652    -1.7929     0.0028 H       
  30 H30           -3.3503     1.8977     0.0455 H       
  31 H31           -1.2282     3.1411     0.0371 H       
  32 H32           -4.8563     0.8464     0.0540 H       
  33 H33           -8.5378    -3.3689     0.0638 H       
  34 H34           -7.7403     2.8068     1.2121 H       
  35 H35            1.4915     2.0550    -2.1405 H       
  36 H36            3.0122     2.3486    -1.2634 H       
  37 H37            2.2853     0.7238    -1.2652 H       
  38 H38            0.4181     3.9005     0.9090 H       
  39 H39            1.9219     4.2036     0.0063 H       
  40 H40            0.4011     3.9101    -0.8708 H       
  41 H41            2.3091     0.7104     1.2331 H       
  42 H42            3.0361     2.3351     1.2349 H       
  43 H43            1.5323     2.0320     2.1377 H       
  44 H44          -10.3000    -2.1590    -1.5542 H       
  45 H45           -9.6022     0.4856     1.7456 H       
  46 H46          -11.9902     1.0756     1.7649 H       
  47 H47          -13.5259     0.0600     0.1331 H       
  48 H48          -12.6842    -1.5539    -1.5221 H       
@<TRIPOS>BOND
   1    1    2 ar
   2    1   18 1
   3    1    6 ar
   4    2    3 ar
   5    2   28 1
   6    3    4 ar
   7    3   29 1
   8    4    5 ar
   9    4    7 1
  10    5    6 ar
  11    5   30 1
  12    6   31 1
  13    7    8 2
  14    7    9 am
  15    9   10 1
  16    9   32 1
  17   10   11 2
  18   10   14 1
  19   11   12 1
  20   11   15 1
  21   12   13 2
  22   12   22 1
  23   13   14 1
  24   13   33 1
  25   15   16 1
  26   15   17 2
  27   16   34 1
  28   18   19 1
  29   18   20 1
  30   18   21 1
  31   19   35 1
  32   19   36 1
  33   19   37 1
  34   20   38 1
  35   20   39 1
  36   20   40 1
  37   21   41 1
  38   21   42 1
  39   21   43 1
  40   22   23 ar
  41   22   24 ar
  42   23   27 ar
  43   23   44 1
  44   24   25 ar
  45   24   45 1
  46   25   26 ar
  47   25   46 1
  48   26   27 ar
  49   26   47 1
  50   27   48 1

#	End of record

