#	Name: ASD10160168
#	Creating user name:	WinNT
#	Creation time:	15. 06. 2019 21:25

#	Modifying user name:	WinNT
#	Modification time:	15. 06. 2019 21:25

#	Program:	/corina/corina34_cracker 3.40 0067  02.08.2006

@<TRIPOS>MOLECULE
ASD10160168
  38   40    0    0    0
SMALL
NO_CHARGES


@<TRIPOS>ATOM
   1 C1            -0.0324     1.4702     0.0132 C.2     
   2 C2            -0.0086    -0.0042     0.0043 C.ar    
   3 C3             1.2062    -0.6860    -0.1327 C.ar    
   4 C4             1.2232    -2.0664    -0.1400 C.ar    
   5 C5             0.0381    -2.7777    -0.0116 C.ar    
   6 C6            -1.1725    -2.1034     0.1244 C.ar    
   7 C7            -1.1988    -0.7256     0.1386 C.ar    
   8 O8             1.0044     2.0956    -0.0986 O.2     
   9 N9            -1.2039     2.1245     0.1397 N.am    
  10 O10            0.0594    -4.1352    -0.0193 O.3     
  11 C11           -0.1515    -4.7682    -1.1988 C.ar    
  12 N12           -0.0403    -6.0856    -1.2515 N.ar    
  13 C13           -0.2393    -6.7378    -2.3846 C.ar    
  14 C14           -0.5693    -6.0193    -3.5300 C.ar    
  15 C15           -0.6769    -4.6350    -3.4347 C.ar    
  16 N16           -0.4684    -4.0528    -2.2657 N.ar    
  17 N17           -0.7877    -6.6748    -4.7515 N.pl3   
  18 N18           -0.7089    -8.0560    -4.9715 N.2     
  19 C19           -0.9769    -8.2855    -6.2320 C.2     
  20 C20           -1.2347    -7.0597    -6.8550 C.2     
  21 C21           -1.1171    -6.0856    -5.9228 C.2     
  22 S22           -1.2305     3.7802     0.1497 S.o2    
  23 O23           -2.6026     4.1076     0.3218 O.2     
  24 O24           -0.2633     4.1404     1.1264 O.2     
  25 C25           -0.6668     4.2520    -1.5087 C.3     
  26 F26           -2.3228    -2.8010     0.2485 F       
  27 F27            2.3599     0.0057    -0.2581 F       
  28 H28            2.1598    -2.5936    -0.2460 H       
  29 H29           -2.1378    -0.2037     0.2490 H       
  30 H30           -2.0313     1.6256     0.2249 H       
  31 H31           -0.1466    -7.8132    -2.4208 H       
  32 H32           -0.9313    -4.0448    -4.3027 H       
  33 H33           -0.9954    -9.2542    -6.7091 H       
  34 H34           -1.4865    -6.9163    -7.8954 H       
  35 H35           -1.2585    -5.0274    -6.0859 H       
  36 H36           -1.3457     3.8386    -2.2545 H       
  37 H37           -0.6533     5.3387    -1.5923 H       
  38 H38            0.3374     3.8623    -1.6756 H       
@<TRIPOS>BOND
   1    1    2 1
   2    1    8 2
   3    1    9 am
   4    2    3 ar
   5    2    7 ar
   6    3    4 ar
   7    3   27 1
   8    4    5 ar
   9    4   28 1
  10    5    6 ar
  11    5   10 1
  12    6    7 ar
  13    6   26 1
  14    7   29 1
  15    9   22 am
  16    9   30 1
  17   10   11 1
  18   11   12 ar
  19   11   16 ar
  20   12   13 ar
  21   13   14 ar
  22   13   31 1
  23   14   15 ar
  24   14   17 1
  25   15   16 ar
  26   15   32 1
  27   17   18 1
  28   17   21 1
  29   18   19 2
  30   19   20 1
  31   19   33 1
  32   20   21 2
  33   20   34 1
  34   21   35 1
  35   22   23 2
  36   22   24 2
  37   22   25 1
  38   25   36 1
  39   25   37 1
  40   25   38 1

#	End of record

