#	Name: ASD10438007
#	Creating user name:	WinNT
#	Creation time:	15. 06. 2019 21:27

#	Modifying user name:	WinNT
#	Modification time:	15. 06. 2019 21:27

#	Program:	/corina/corina34_cracker 3.40 0067  02.08.2006

@<TRIPOS>MOLECULE
ASD10438007
  21   22    0    0    0
SMALL
NO_CHARGES


@<TRIPOS>ATOM
   1 C1            -0.0178     1.4648     0.0101 C.3     
   2 N2             0.0021    -0.0041     0.0020 N.3     
   3 C3             3.7160     2.8374     0.4352 C.2     
   4 C4             3.3833     2.7267    -0.8688 C.2     
   5 C5             2.1061     2.2581    -1.0989 C.2     
   6 C6             1.3960     1.9864    -0.0006 C.2     
   7 S7             2.3585     2.3281     1.4309 S.3     
   8 C8             5.0159     3.3060     0.9446 C.2     
   9 C9             5.3486     3.4167     2.2486 C.2     
  10 C10            6.6280     3.8791     2.4788 C.2     
  11 C11            7.3400     4.1458     1.3804 C.2     
  12 S12            6.3786     3.8010    -0.0512 S.3     
  13 H13           -0.5450     1.8259    -0.8730 H       
  14 H14           -0.5280     1.8163     0.9069 H       
  15 H15            0.5405    -0.3627     0.7764 H       
  16 H16           -0.9349    -0.3784     0.0090 H       
  17 H17            4.0626     2.9847    -1.6678 H       
  18 H18            1.7095     2.1214    -2.0941 H       
  19 H19            4.6674     3.1638     3.0477 H       
  20 H20            7.0247     4.0158     3.4739 H       
  21 H21            8.3552     4.5142     1.3726 H       
@<TRIPOS>BOND
   1    1    2 1
   2    1    6 1
   3    1   13 1
   4    1   14 1
   5    2   15 1
   6    2   16 1
   7    3    4 2
   8    3    7 1
   9    3    8 1
  10    4    5 1
  11    4   17 1
  12    5    6 2
  13    5   18 1
  14    6    7 1
  15    8    9 2
  16    8   12 1
  17    9   10 1
  18    9   19 1
  19   10   11 2
  20   10   20 1
  21   11   12 1
  22   11   21 1

#	End of record

