#	Name: ASD11000075
#	Creating user name:	WinNT
#	Creation time:	15. 06. 2019 21:28

#	Modifying user name:	WinNT
#	Modification time:	15. 06. 2019 21:28

#	Program:	/corina/corina34_cracker 3.40 0067  02.08.2006

@<TRIPOS>MOLECULE
ASD11000075
  61   63    0    0    0
SMALL
NO_CHARGES


@<TRIPOS>ATOM
   1 C1            -0.0167     1.3804     0.0096 C.ar    
   2 C2             0.0021    -0.0041     0.0020 C.ar    
   3 C3             1.2191    -0.6820    -0.0132 C.ar    
   4 C4             2.4080     0.0310    -0.0208 C.ar    
   5 C5             2.3859     1.4136    -0.0127 C.ar    
   6 C6             1.1756     2.0896     0.0021 C.ar    
   7 O7             1.1571     3.4494     0.0095 O.3     
   8 N8             1.2415    -2.0841    -0.0205 N.pl3   
   9 C9             2.5217    -2.7962    -0.0366 C.3     
  10 C10            2.4011    -4.0808     0.7856 C.3     
  11 C11            3.7669    -4.7580     0.8716 C.3     
  12 C12            1.9071    -3.7454     2.1680 C.ar    
  13 C13            2.8313    -3.3791     3.1521 C.ar    
  14 C14            0.5655    -3.7952     2.4695 C.ar    
  15 C15            2.3964    -3.0633     4.4382 C.ar    
  16 C16            1.0468    -3.1152     4.7349 C.ar    
  17 C17            0.1299    -3.4810     3.7507 C.ar    
  18 N18            4.6883    -3.9772     1.6926 N.am    
  19 C19            4.2648    -3.3362     2.8002 C.2     
  20 O20           -1.1947    -3.5314     4.0458 O.3     
  21 C21           -2.0802    -3.9135     2.9913 C.3     
  22 O22            0.6138    -2.8087     5.9872 O.3     
  23 C23            1.6081    -2.4418     6.9457 C.3     
  24 C24            2.4213     4.1154     0.0015 C.3     
  25 O25           -1.1658    -0.7011     0.0099 O.3     
  26 C26           -2.3753     0.0597     0.0260 C.3     
  27 C27            6.0984    -3.8889     1.3054 C.3     
  28 O28            5.0529    -2.7309     3.5007 O.2     
  29 O29            2.8678    -3.1235    -1.3838 O.3     
  30 C30            6.4692    -2.4249     1.0599 C.3     
  31 C31            6.9717    -4.4550     2.4269 C.3     
  32 H32           -0.9591     1.9079     0.0170 H       
  33 H33            3.3520    -0.4936    -0.0326 H       
  34 H34            3.3129     1.9677    -0.0182 H       
  35 H35            0.4094    -2.5825    -0.0149 H       
  36 H36            3.2962    -2.1610     0.3934 H       
  37 H37            1.6928    -4.7543     0.3030 H       
  38 H38            3.6482    -5.7487     1.3106 H       
  39 H39            4.1799    -4.8595    -0.1320 H       
  40 H40           -0.1487    -4.0781     1.7103 H       
  41 H41            3.1092    -2.7802     5.1985 H       
  42 H42           -1.9905    -3.2059     2.1672 H       
  43 H43           -1.8197    -4.9127     2.6423 H       
  44 H44           -3.1059    -3.9135     3.3603 H       
  45 H45            2.1415    -1.5579     6.5957 H       
  46 H46            1.1294    -2.2230     7.9002 H       
  47 H47            2.3118    -3.2644     7.0723 H       
  48 H48            2.9904     3.8254     0.8848 H       
  49 H49            2.9741     3.8350    -0.8951 H       
  50 H50            2.2639     5.1940     0.0088 H       
  51 H51           -2.4004     0.6833     0.9196 H       
  52 H52           -2.4181     0.6929    -0.8602 H       
  53 H53           -3.2300    -0.6167     0.0308 H       
  54 H54            6.2613    -4.4628     0.3931 H       
  55 H55            2.2217    -3.6881    -1.8298 H       
  56 H56            7.5184    -2.3592     0.7718 H       
  57 H57            5.8471    -2.0216     0.2609 H       
  58 H58            6.3063    -1.8510     1.9722 H       
  59 H59            6.7075    -5.4980     2.6018 H       
  60 H60            8.0209    -4.3893     2.1388 H       
  61 H61            6.8088    -3.8811     3.3391 H       
@<TRIPOS>BOND
   1    1    2 ar
   2    1    6 ar
   3    1   32 1
   4    2    3 ar
   5    2   25 1
   6    3    4 ar
   7    3    8 1
   8    4    5 ar
   9    4   33 1
  10    5    6 ar
  11    5   34 1
  12    6    7 1
  13    7   24 1
  14    8    9 1
  15    8   35 1
  16    9   10 1
  17    9   29 1
  18    9   36 1
  19   10   11 1
  20   10   12 1
  21   10   37 1
  22   11   18 1
  23   11   38 1
  24   11   39 1
  25   12   13 ar
  26   12   14 ar
  27   13   15 ar
  28   13   19 1
  29   14   17 ar
  30   14   40 1
  31   15   16 ar
  32   15   41 1
  33   16   17 ar
  34   16   22 1
  35   17   20 1
  36   18   19 am
  37   18   27 1
  38   19   28 2
  39   20   21 1
  40   21   42 1
  41   21   43 1
  42   21   44 1
  43   22   23 1
  44   23   45 1
  45   23   46 1
  46   23   47 1
  47   24   48 1
  48   24   49 1
  49   24   50 1
  50   25   26 1
  51   26   51 1
  52   26   52 1
  53   26   53 1
  54   27   30 1
  55   27   31 1
  56   27   54 1
  57   29   55 1
  58   30   56 1
  59   30   57 1
  60   30   58 1
  61   31   59 1
  62   31   60 1
  63   31   61 1

#	End of record

