#	Name: ASD10160536
#	Creating user name:	WinNT
#	Creation time:	15. 06. 2019 21:26

#	Modifying user name:	WinNT
#	Modification time:	15. 06. 2019 21:26

#	Program:	/corina/corina34_cracker 3.40 0067  02.08.2006

@<TRIPOS>MOLECULE
ASD10160536
  39   42    0    0    0
SMALL
NO_CHARGES


@<TRIPOS>ATOM
   1 C1            -2.2267    -2.5985     4.8619 C.2     
   2 C2            -1.6260    -3.0019     3.5788 C.ar    
   3 C3            -0.3008    -3.4533     3.5344 C.ar    
   4 C4             0.2567    -3.8304     2.3295 C.ar    
   5 C5            -0.4946    -3.7625     1.1634 C.ar    
   6 C6            -1.8117    -3.3139     1.2036 C.ar    
   7 C7            -2.3788    -2.9409     2.4016 C.ar    
   8 O8            -1.5723    -2.6570     5.8842 O.2     
   9 O9            -3.5002    -2.1592     4.9011 O.3     
  10 F10            0.4303    -3.5190     4.6686 F       
  11 O11            0.0574    -4.1342    -0.0193 O.3     
  12 C12            2.4220    -3.8534    -0.1437 C.ar    
  13 C13            1.3073    -4.6674    -0.0004 C.ar    
  14 C14            1.4876    -6.0372     0.1634 C.ar    
  15 C15            2.7811    -6.5341     0.1766 C.ar    
  16 C16            3.8414    -5.6600     0.0278 C.ar    
  17 N17            3.6360    -4.3663    -0.1255 N.ar    
  18 C18            5.2512    -6.1923     0.0416 C.3     
  19 C19            6.1069    -5.9581    -1.2049 C.3     
  20 C20            6.3911    -5.1724     0.0768 C.3     
  21 C21            3.0289    -8.0103     0.3515 C.3     
  22 C22            2.5203    -8.6644     1.6377 C.3     
  23 C23            1.8149    -8.9404     0.3084 C.3     
  24 Cl24          -2.7436    -3.2316    -0.2588 Cl      
  25 H25            1.2784    -4.1784     2.2933 H       
  26 H26           -3.4023    -2.5974     2.4316 H       
  27 H27           -3.8507    -1.9058     5.7660 H       
  28 H28            2.2933    -2.7893    -0.2759 H       
  29 H29            0.6403    -6.6970     0.2778 H       
  30 H30            5.3953    -7.1276     0.5825 H       
  31 H31            6.8143    -6.7391    -1.4838 H       
  32 H32            5.6502    -5.4189    -2.0349 H       
  33 H33            6.1214    -4.1164     0.0901 H       
  34 H34            7.2854    -5.4365     0.6412 H       
  35 H35            3.9639    -8.3828    -0.0669 H       
  36 H36            3.1204    -9.4676     2.0653 H       
  37 H37            2.0064    -8.0271     2.3573 H       
  38 H38            0.8369    -8.4846     0.1534 H       
  39 H39            1.9510    -9.9251    -0.1387 H       
@<TRIPOS>BOND
   1    1    2 1
   2    1    8 2
   3    1    9 1
   4    2    3 ar
   5    2    7 ar
   6    3    4 ar
   7    3   10 1
   8    4    5 ar
   9    4   25 1
  10    5    6 ar
  11    5   11 1
  12    6    7 ar
  13    6   24 1
  14    7   26 1
  15    9   27 1
  16   11   13 1
  17   12   13 ar
  18   12   17 ar
  19   12   28 1
  20   13   14 ar
  21   14   15 ar
  22   14   29 1
  23   15   16 ar
  24   15   21 1
  25   16   17 ar
  26   16   18 1
  27   18   19 1
  28   18   20 1
  29   18   30 1
  30   19   20 1
  31   19   31 1
  32   19   32 1
  33   20   33 1
  34   20   34 1
  35   21   22 1
  36   21   23 1
  37   21   35 1
  38   22   23 1
  39   22   36 1
  40   22   37 1
  41   23   38 1
  42   23   39 1

#	End of record

