#	Name: ASD10160372
#	Creating user name:	WinNT
#	Creation time:	15. 06. 2019 21:25

#	Modifying user name:	WinNT
#	Modification time:	15. 06. 2019 21:25

#	Program:	/corina/corina34_cracker 3.40 0067  02.08.2006

@<TRIPOS>MOLECULE
ASD10160372
  29   30    0    0    0
SMALL
NO_CHARGES


@<TRIPOS>ATOM
   1 C1            -0.0167     1.3812     0.0096 C.ar    
   2 C2             0.0021    -0.0041     0.0020 C.ar    
   3 C3             1.2262    -0.6663    -0.0132 C.ar    
   4 C4             2.3855     0.0912    -0.0202 C.ar    
   5 C5             2.2884     1.4774    -0.0118 C.ar    
   6 N6             1.1077     2.0719     0.0026 N.ar    
   7 O7            -1.1613    -0.7082     0.0098 O.3     
   8 O8             3.4188     2.2296    -0.0181 O.3     
   9 C9             3.2535     3.6490    -0.0089 C.3     
  10 C10            4.4420     4.2962     0.7050 C.3     
  11 C11            4.2650     5.8159     0.7148 C.3     
  12 C12            4.1929     6.3303    -0.7243 C.3     
  13 C13            3.0045     5.6831    -1.4382 C.3     
  14 C14            3.1814     4.1634    -1.4481 C.3     
  15 F15            4.0311     7.7199    -0.7153 F       
  16 F16            5.3753     6.0028    -1.3964 F       
  17 Cl17           3.9402    -0.6810    -0.0386 Cl      
  18 H18           -0.9628     1.9020     0.0169 H       
  19 H19            1.2709    -1.7453    -0.0191 H       
  20 H20           -1.5066    -0.9072    -0.8713 H       
  21 H21            2.3322     3.9042     0.5147 H       
  22 H22            4.4934     3.9298     1.7303 H       
  23 H23            5.3633     4.0411     0.1813 H       
  24 H24            3.3438     6.0711     1.2385 H       
  25 H25            5.1117     6.2770     1.2234 H       
  26 H26            2.0832     5.9382    -0.9146 H       
  27 H27            2.9530     6.0495    -2.4635 H       
  28 H28            4.1027     3.9082    -1.9717 H       
  29 H29            2.3347     3.7023    -1.9567 H       
@<TRIPOS>BOND
   1    1    2 ar
   2    1    6 ar
   3    1   18 1
   4    2    3 ar
   5    2    7 1
   6    3    4 ar
   7    3   19 1
   8    4    5 ar
   9    4   17 1
  10    5    6 ar
  11    5    8 1
  12    7   20 1
  13    8    9 1
  14    9   10 1
  15    9   14 1
  16    9   21 1
  17   10   11 1
  18   10   22 1
  19   10   23 1
  20   11   12 1
  21   11   24 1
  22   11   25 1
  23   12   13 1
  24   12   15 1
  25   12   16 1
  26   13   14 1
  27   13   26 1
  28   13   27 1
  29   14   28 1
  30   14   29 1

#	End of record

