#	Name: ASD10160413
#	Creating user name:	WinNT
#	Creation time:	15. 06. 2019 21:25

#	Modifying user name:	WinNT
#	Modification time:	15. 06. 2019 21:25

#	Program:	/corina/corina34_cracker 3.40 0067  02.08.2006

@<TRIPOS>MOLECULE
ASD10160413
  47   48    0    0    0
SMALL
NO_CHARGES


@<TRIPOS>ATOM
   1 C1            -0.0179     1.4704     0.0101 C.2     
   2 C2             0.0021    -0.0041     0.0020 C.ar    
   3 C3             1.2211    -0.6881    -0.0133 C.ar    
   4 C4             1.2361    -2.0670    -0.0204 C.ar    
   5 C5             0.0397    -2.7774    -0.0123 C.ar    
   6 C6            -1.1755    -2.0998     0.0030 C.ar    
   7 C7            -1.1979    -0.7211     0.0155 C.ar    
   8 O8             1.0260     2.0922     0.0035 O.2     
   9 O9            -1.1939     2.1282     0.0193 O.3     
  10 F10           -2.3348    -2.7935     0.0108 F       
  11 F11            2.4137    -2.7289    -0.0356 F       
  12 O12            0.0581    -4.1350    -0.0197 O.3     
  13 C13            0.0806    -4.0601     2.3615 C.ar    
  14 C14            0.0787    -4.7797     1.1772 C.ar    
  15 C15            0.0977    -6.1708     1.2281 C.ar    
  16 C16            0.1178    -6.7848     2.4690 C.ar    
  17 C17            0.1184    -5.9974     3.6140 C.ar    
  18 N18            0.1001    -4.6783     3.5271 N.ar    
  19 O19            0.1377    -6.5893     4.8358 O.3     
  20 C20            0.1372    -5.7264     5.9749 C.3     
  21 C21           -1.3052    -5.4371     6.3950 C.3     
  22 C22            0.8783    -6.4047     7.1288 C.3     
  23 Cl23           0.1415    -8.5163     2.5929 Cl      
  24 C24           -1.1376     3.5791     0.0269 C.3     
  25 C25           -0.4031     4.0676    -1.2232 C.3     
  26 C26           -2.5592     4.1446     0.0367 C.3     
  27 C27           -0.3912     4.0540     1.2752 C.3     
  28 H28            2.1501    -0.1373    -0.0199 H       
  29 H29           -2.1414    -0.1958     0.0318 H       
  30 H30            0.0705    -2.9806     2.3301 H       
  31 H31            0.0964    -6.7572     0.3211 H       
  32 H32            0.6366    -4.7910     5.7223 H       
  33 H33           -1.8046    -6.3725     6.6476 H       
  34 H34           -1.3055    -4.7789     7.2638 H       
  35 H35           -1.8332    -4.9539     5.5729 H       
  36 H36            1.9059    -6.6107     6.8295 H       
  37 H37            0.8780    -5.7465     7.9977 H       
  38 H38            0.3789    -7.3400     7.3815 H       
  39 H39           -0.9348     3.7293    -2.1125 H       
  40 H40           -0.3608     5.1567    -1.2175 H       
  41 H41            0.6097     3.6647    -1.2302 H       
  42 H42           -3.0825     3.7967     0.9273 H       
  43 H43           -2.5170     5.2338     0.0424 H       
  44 H44           -3.0910     3.8063    -0.8526 H       
  45 H45            0.6216     3.6511     1.2682 H       
  46 H46           -0.3489     5.1432     1.2809 H       
  47 H47           -0.9145     3.7060     2.1658 H       
@<TRIPOS>BOND
   1    1    2 1
   2    1    8 2
   3    1    9 1
   4    2    3 ar
   5    2    7 ar
   6    3    4 ar
   7    3   28 1
   8    4    5 ar
   9    4   11 1
  10    5    6 ar
  11    5   12 1
  12    6    7 ar
  13    6   10 1
  14    7   29 1
  15    9   24 1
  16   12   14 1
  17   13   14 ar
  18   13   18 ar
  19   13   30 1
  20   14   15 ar
  21   15   16 ar
  22   15   31 1
  23   16   17 ar
  24   16   23 1
  25   17   18 ar
  26   17   19 1
  27   19   20 1
  28   20   21 1
  29   20   22 1
  30   20   32 1
  31   21   33 1
  32   21   34 1
  33   21   35 1
  34   22   36 1
  35   22   37 1
  36   22   38 1
  37   24   25 1
  38   24   27 1
  39   24   26 1
  40   25   39 1
  41   25   40 1
  42   25   41 1
  43   26   42 1
  44   26   43 1
  45   26   44 1
  46   27   45 1
  47   27   46 1
  48   27   47 1

#	End of record

