#	Name: ASD11000293
#	Creating user name:	WinNT
#	Creation time:	15. 06. 2019 21:29

#	Modifying user name:	WinNT
#	Modification time:	15. 06. 2019 21:29

#	Program:	/corina/corina34_cracker 3.40 0067  02.08.2006

@<TRIPOS>MOLECULE
ASD11000293
  26   27    0    0    0
SMALL
NO_CHARGES


@<TRIPOS>ATOM
   1 C1             2.9118     5.2829     0.0830 C.3     
   2 O2             4.2931     5.6490     0.0700 O.3     
   3 C3             1.4756     1.8927     0.0356 C.ar    
   4 N4             1.5963     3.2049     0.0606 N.ar    
   5 C5             2.7899     3.7811     0.0546 C.ar    
   6 C6             3.9207     2.9886     0.0216 C.ar    
   7 C7             3.7576     1.6021    -0.0044 C.ar    
   8 N8             2.5265     1.0987     0.0037 N.ar    
   9 N9             4.8611     0.7637    -0.0384 N.pl3   
  10 C10            4.6908    -0.6207     0.0618 C.ar    
  11 C11            5.5391    -1.4777    -0.6275 C.ar    
  12 C12            5.3687    -2.8453    -0.5261 C.ar    
  13 C13            4.3529    -3.3610     0.2620 C.ar    
  14 C14            3.5068    -2.5088     0.9488 C.ar    
  15 C15            3.6767    -1.1411     0.8553 C.ar    
  16 Cl16           4.1409    -5.0794     0.3876 Cl      
  17 Cl17           6.4278    -3.9178    -1.3875 Cl      
  18 H18            2.4422     5.6685     0.9880 H       
  19 H19            2.4160     5.7043    -0.7915 H       
  20 H20            4.4471     6.6035     0.0870 H       
  21 H21            0.4879     1.4560     0.0459 H       
  22 H22            4.9062     3.4302     0.0156 H       
  23 H23            5.7514     1.1373    -0.1318 H       
  24 H24            6.3309    -1.0757    -1.2422 H       
  25 H25            2.7152    -2.9134     1.5620 H       
  26 H26            3.0187    -0.4767     1.3957 H       
@<TRIPOS>BOND
   1    1    2 1
   2    1    5 1
   3    1   18 1
   4    1   19 1
   5    2   20 1
   6    3    4 ar
   7    3    8 ar
   8    3   21 1
   9    4    5 ar
  10    5    6 ar
  11    6    7 ar
  12    6   22 1
  13    7    8 ar
  14    7    9 1
  15    9   10 1
  16    9   23 1
  17   10   11 ar
  18   10   15 ar
  19   11   12 ar
  20   11   24 1
  21   12   13 ar
  22   12   17 1
  23   13   14 ar
  24   13   16 1
  25   14   15 ar
  26   14   25 1
  27   15   26 1

#	End of record

