#	Name: ASD10160517
#	Creating user name:	WinNT
#	Creation time:	15. 06. 2019 21:26

#	Modifying user name:	WinNT
#	Modification time:	15. 06. 2019 21:26

#	Program:	/corina/corina34_cracker 3.40 0067  02.08.2006

@<TRIPOS>MOLECULE
ASD10160517
  48   49    0    0    0
SMALL
NO_CHARGES


@<TRIPOS>ATOM
   1 C1             0.2519     1.4532     0.3696 C.2     
   2 C2             0.2012    -0.0161     0.2674 C.ar    
   3 C3             1.3755    -0.7445     0.0510 C.ar    
   4 C4             1.3250    -2.1113    -0.0431 C.ar    
   5 C5             0.1063    -2.7745     0.0761 C.ar    
   6 C6            -1.0648    -2.0522     0.2916 C.ar    
   7 C7            -1.0204    -0.6857     0.3924 C.ar    
   8 O8             1.3146     2.0333     0.2658 O.2     
   9 O9            -0.8812     2.1540     0.5726 O.3     
  10 N10            0.0585    -4.1605    -0.0208 N.pl3   
  11 C11           -1.3973    -6.0815     0.1837 C.ar    
  12 C12           -0.9182    -4.8778     0.6801 C.ar    
  13 C13           -1.4214    -4.3922     1.8856 C.ar    
  14 C14           -2.3860    -5.1357     2.5440 C.ar    
  15 C15           -2.8171    -6.3328     1.9850 C.ar    
  16 N16           -2.3174    -6.7631     0.8392 N.ar    
  17 O17           -3.7627    -7.0692     2.6232 O.3     
  18 C18           -3.2748    -9.4325     2.4923 C.3     
  19 C19           -4.1649    -8.2901     1.9989 C.3     
  20 C20           -5.6226    -8.5889     2.3551 C.3     
  21 F21           -6.4365    -7.5443     1.9040 F       
  22 F22           -6.0163    -9.7842     1.7439 F       
  23 F23           -5.7478    -8.7116     3.7431 F       
  24 F24           -3.4000    -9.5552     3.8803 F       
  25 F25           -3.6686   -10.6278     1.8811 F       
  26 F26           -1.9420    -9.1592     2.1666 F       
  27 Cl27          -3.0482    -4.5799     4.0494 Cl      
  28 C28           -0.7561     3.5978     0.6630 C.3     
  29 C29           -0.1646     4.1409    -0.6393 C.3     
  30 C30           -2.1367     4.2159     0.8928 C.3     
  31 C31            0.1647     3.9578     1.8306 C.3     
  32 H32            2.3209    -0.2307    -0.0422 H       
  33 H33            2.2314    -2.6743    -0.2102 H       
  34 H34           -2.0084    -2.5695     0.3836 H       
  35 H35           -1.9283    -0.1265     0.5640 H       
  36 H36            0.7018    -4.6305    -0.5740 H       
  37 H37           -1.0159    -6.4627    -0.7520 H       
  38 H38           -1.0671    -3.4584     2.2965 H       
  39 H39           -4.0674    -8.1945     0.9175 H       
  40 H40           -0.8206     3.8844    -1.4711 H       
  41 H41           -0.0707     5.2248    -0.5714 H       
  42 H42            0.8190     3.7006    -0.8030 H       
  43 H43           -2.5582     3.8289     1.8206 H       
  44 H44           -2.0428     5.2997     0.9607 H       
  45 H45           -2.7927     3.9594     0.0610 H       
  46 H46            1.1482     3.5174     1.6669 H       
  47 H47            0.2586     5.0416     1.8985 H       
  48 H48           -0.2568     3.5708     2.7584 H       
@<TRIPOS>BOND
   1    1    2 1
   2    1    8 2
   3    1    9 1
   4    2    3 ar
   5    2    7 ar
   6    3    4 ar
   7    3   32 1
   8    4    5 ar
   9    4   33 1
  10    5    6 ar
  11    5   10 1
  12    6    7 ar
  13    6   34 1
  14    7   35 1
  15    9   28 1
  16   10   12 1
  17   10   36 1
  18   11   12 ar
  19   11   16 ar
  20   11   37 1
  21   12   13 ar
  22   13   14 ar
  23   13   38 1
  24   14   15 ar
  25   14   27 1
  26   15   16 ar
  27   15   17 1
  28   17   19 1
  29   18   19 1
  30   18   24 1
  31   18   25 1
  32   18   26 1
  33   19   20 1
  34   19   39 1
  35   20   21 1
  36   20   22 1
  37   20   23 1
  38   28   29 1
  39   28   31 1
  40   28   30 1
  41   29   40 1
  42   29   41 1
  43   29   42 1
  44   30   43 1
  45   30   44 1
  46   30   45 1
  47   31   46 1
  48   31   47 1
  49   31   48 1

#	End of record

