#	Name: ASD14170002
#	Creating user name:	WinNT
#	Creation time:	15. 06. 2019 21:30

#	Modifying user name:	WinNT
#	Modification time:	15. 06. 2019 21:30

#	Program:	/corina/corina34_cracker 3.40 0067  02.08.2006

@<TRIPOS>MOLECULE
ASD14170002
  61   63    0    0    0
SMALL
NO_CHARGES


@<TRIPOS>ATOM
   1 C1            -0.0167     1.3828     0.0096 C.ar    
   2 C2             0.0021    -0.0041     0.0020 C.ar    
   3 C3             1.2057    -0.6801    -0.0131 C.ar    
   4 C4             2.4027     0.0195    -0.0203 C.ar    
   5 C5             2.4020     1.3984    -0.0124 C.ar    
   6 C6             1.1905     2.0941     0.0019 C.ar    
   7 O7            -1.1992     2.0479     0.0189 O.3     
   8 C8            -2.3889     1.2563     0.0202 C.3     
   9 C9             1.1823     3.5694     0.0095 C.2     
  10 O10            0.1260     4.1714     0.0224 O.2     
  11 N11            2.3457     4.2498     0.0020 N.am    
  12 C12            2.3376     5.7148     0.0095 C.3     
  13 C13            3.7772     6.2328    -0.0014 C.3     
  14 C14            3.7688     7.7398     0.0063 C.ar    
  15 C15            3.7404     9.8192    -1.1802 C.ar    
  16 C16            3.7481     8.4369    -1.1872 C.ar    
  17 C17            3.7762     8.4249     1.2069 C.ar    
  18 C18            3.7686     9.8072     1.2139 C.ar    
  19 C19            3.7541    10.5044     0.0204 C.ar    
  20 S20            3.7443    12.2663     0.0293 S.o2    
  21 O21            4.3046    12.6644     1.2730 O.2     
  22 O22            4.2682    12.6769    -1.2261 O.2     
  23 N23            2.1600    12.7476     0.0549 N.am    
  24 C24            1.3873    12.4662     1.1227 C.2     
  25 N25            0.0979    12.8579     1.1435 N.am    
  26 O26            1.8535    11.8589     2.0673 O.2     
  27 C27           -0.7420    12.5519     2.3042 C.3     
  28 C28           -1.4268    13.3117     4.5837 C.3     
  29 C29           -0.5497    13.6312     3.3715 C.3     
  30 C30           -2.2103    12.5144     1.8756 C.3     
  31 C31           -3.0874    12.1949     3.0878 C.3     
  32 C32           -2.8951    13.2742     4.1551 C.3     
  33 Cl33           3.9085    -0.8441    -0.0388 Cl      
  34 H34           -0.9263    -0.5559     0.0083 H       
  35 H35            1.2149    -1.7600    -0.0190 H       
  36 H36            3.3366     1.9397    -0.0174 H       
  37 H37           -2.4025     0.6224     0.9068 H       
  38 H38           -3.2606     1.9105     0.0279 H       
  39 H39           -2.4109     0.6321    -0.8731 H       
  40 H40            3.1884     3.7695    -0.0083 H       
  41 H41            1.8135     6.0797    -0.8738 H       
  42 H42            1.8301     6.0707     0.9060 H       
  43 H43            4.3013     5.8679     0.8819 H       
  44 H44            4.2847     5.8768    -0.8980 H       
  45 H45            3.7246    10.3639    -2.1126 H       
  46 H46            3.7383     7.9016    -2.1252 H       
  47 H47            3.7876     7.8802     2.1394 H       
  48 H48            3.7736    10.3425     2.1519 H       
  49 H49            1.7880    13.2321    -0.6987 H       
  50 H50           -0.2740    13.3423     0.3899 H       
  51 H51           -0.4579    11.5822     2.7128 H       
  52 H52           -1.1427    12.3419     4.9923 H       
  53 H53           -1.2898    14.0806     5.3441 H       
  54 H54            0.4963    13.6579     3.6768 H       
  55 H55           -0.8338    14.6009     2.9629 H       
  56 H56           -2.4944    13.4842     1.4670 H       
  57 H57           -2.3473    11.7455     1.1152 H       
  58 H58           -4.1334    12.1682     2.7825 H       
  59 H59           -2.8033    11.2252     3.4964 H       
  60 H60           -3.5200    13.0466     5.0187 H       
  61 H61           -3.1792    14.2439     3.7465 H       
@<TRIPOS>BOND
   1    1    2 ar
   2    1    6 ar
   3    1    7 1
   4    2    3 ar
   5    2   34 1
   6    3    4 ar
   7    3   35 1
   8    4    5 ar
   9    4   33 1
  10    5    6 ar
  11    5   36 1
  12    6    9 1
  13    7    8 1
  14    8   37 1
  15    8   38 1
  16    8   39 1
  17    9   10 2
  18    9   11 am
  19   11   12 1
  20   11   40 1
  21   12   13 1
  22   12   41 1
  23   12   42 1
  24   13   14 1
  25   13   43 1
  26   13   44 1
  27   14   17 ar
  28   14   16 ar
  29   15   16 ar
  30   15   19 ar
  31   15   45 1
  32   16   46 1
  33   17   18 ar
  34   17   47 1
  35   18   19 ar
  36   18   48 1
  37   19   20 1
  38   20   21 2
  39   20   22 2
  40   20   23 am
  41   23   24 am
  42   23   49 1
  43   24   25 am
  44   24   26 2
  45   25   27 1
  46   25   50 1
  47   27   30 1
  48   27   29 1
  49   27   51 1
  50   28   29 1
  51   28   32 1
  52   28   52 1
  53   28   53 1
  54   29   54 1
  55   29   55 1
  56   30   31 1
  57   30   56 1
  58   30   57 1
  59   31   32 1
  60   31   58 1
  61   31   59 1
  62   32   60 1
  63   32   61 1

#	End of record

