#	Name: ASD11030056
#	Creating user name:	WinNT
#	Creation time:	15. 06. 2019 21:29

#	Modifying user name:	WinNT
#	Modification time:	15. 06. 2019 21:29

#	Program:	/corina/corina34_cracker 3.40 0067  02.08.2006

@<TRIPOS>MOLECULE
ASD11030056
  83   88    0    0    0
SMALL
NO_CHARGES


@<TRIPOS>ATOM
   1 C1             3.1407     4.5907    -6.5265 C.ar    
   2 C2             2.0960     3.7172    -6.2536 C.ar    
   3 C3             2.0699     3.0471    -5.0421 C.ar    
   4 N4             3.0202     3.2281    -4.1487 N.ar    
   5 C5             4.0364     4.0545    -4.3708 C.ar    
   6 C6             4.1260     4.7615    -5.5701 C.ar    
   7 C7             5.0807     4.2262    -3.3387 C.2     
   8 C8             5.4590     3.2823    -2.4401 C.2     
   9 C9             6.4806     3.8380    -1.6326 C.ar    
  10 C10            6.6926     5.1539    -2.0912 C.ar    
  11 N11            5.8254     5.3657    -3.1424 N.pl3   
  12 C12            7.2367     3.3397    -0.5617 C.ar    
  13 C13            8.1739     4.1262     0.0344 C.ar    
  14 C14            8.3918     5.4368    -0.4150 C.ar    
  15 C15            7.6499     5.9477    -1.4775 C.ar    
  16 C16            5.7098     6.6040    -3.9166 C.3     
  17 C17            4.8924     1.8908    -2.3223 C.3     
  18 C18            9.4111     6.2786     0.2412 C.2     
  19 N19           10.1301     5.7875     1.2699 N.am    
  20 O20            9.6022     7.4152    -0.1463 O.2     
  21 C21           11.2174     6.5809     1.8484 C.3     
  22 C22           10.7312     7.8427     2.5137 C.2     
  23 N23            9.5325     7.8609     3.1296 N.am    
  24 O24           11.4185     8.8418     2.4948 O.2     
  25 C25            9.1116     9.0078     3.8025 C.ar    
  26 C26            9.3819    10.2647     3.2665 C.ar    
  27 C27            8.9748    11.3944     3.9161 C.ar    
  28 C28            8.2812    11.2953     5.1287 C.ar    
  29 C29            8.0064    10.0280     5.6730 C.ar    
  30 C30            8.4196     8.8913     5.0017 C.ar    
  31 C31           12.1844     5.7596     2.7174 C.3     
  32 C32           13.3216     6.5869     2.0952 C.3     
  33 C33           12.3950     6.8067     0.8855 C.3     
  34 C34            7.8436    12.5079     5.8282 C.2     
  35 C35            8.1098    13.7257     5.3021 C.2     
  36 C36            6.0049     0.8490    -2.5340 C.3     
  37 C37            6.0904     0.0250    -1.2327 C.3     
  38 C38            4.6916     0.1876    -0.5876 C.3     
  39 C39            4.3407     1.6635    -0.8997 C.3     
  40 Cl40           0.8346     3.4682    -7.4200 Cl      
  41 O41            7.3351     9.9208     6.8472 O.3     
  42 C42            6.3299     8.6805     8.6616 C.3     
  43 C43            7.0928     8.6007     7.3378 C.3     
  44 C44            7.6875    14.8961     5.9772 C.2     
  45 O45            7.0850    14.8069     7.0306 O.2     
  46 O46            7.9531    16.1108     5.4525 O.3     
  47 H47            3.1854     5.1215    -7.4660 H       
  48 H48            1.2589     2.3672    -4.8268 H       
  49 H49            4.9528     5.4328    -5.7496 H       
  50 H50            7.0749     2.3316    -0.2097 H       
  51 H51            8.7534     3.7387     0.8593 H       
  52 H52            7.8199     6.9570    -1.8222 H       
  53 H53            6.3122     6.5242    -4.8216 H       
  54 H54            4.6667     6.7671    -4.1876 H       
  55 H55            6.0647     7.4420    -3.3167 H       
  56 H56            4.1010     1.7467    -3.0579 H       
  57 H57            9.9277     4.9088     1.6273 H       
  58 H58            8.9626     7.0764     3.1050 H       
  59 H59            9.9168    10.3460     2.3318 H       
  60 H60            9.1883    12.3655     3.4946 H       
  61 H61            8.2118     7.9147     5.4134 H       
  62 H62           12.0584     5.9258     3.7873 H       
  63 H63           12.2183     4.7026     2.4533 H       
  64 H64           13.5464     7.5018     2.6433 H       
  65 H65           14.2115     6.0013     1.8640 H       
  66 H66           12.4861     6.0361     0.1200 H       
  67 H67           12.4407     7.8167     0.4784 H       
  68 H68            7.3088    12.4288     6.7632 H       
  69 H69            8.6446    13.8048     4.3671 H       
  70 H70            5.7530     0.1988    -3.3718 H       
  71 H71            6.9546     1.3498    -2.7219 H       
  72 H72            6.2874    -1.0233    -1.4572 H       
  73 H73            6.8622     0.4272    -0.5765 H       
  74 H74            3.9717    -0.4870    -1.0510 H       
  75 H75            4.7409     0.0215     0.4886 H       
  76 H76            4.8299     2.3303    -0.1898 H       
  77 H77            3.2609     1.8110    -0.8813 H       
  78 H78            6.9219     9.2356     9.3892 H       
  79 H79            5.3791     9.1893     8.5028 H       
  80 H80            6.1451     7.6736     9.0358 H       
  81 H81            6.5007     8.0456     6.6101 H       
  82 H82            8.0436     8.0918     7.4965 H       
  83 H83            7.6258    16.8491     5.9843 H       
@<TRIPOS>BOND
   1    1    2 ar
   2    1    6 ar
   3    1   47 1
   4    2    3 ar
   5    2   40 1
   6    3    4 ar
   7    3   48 1
   8    4    5 ar
   9    5    6 ar
  10    5    7 1
  11    6   49 1
  12    7    8 2
  13    7   11 1
  14    8    9 1
  15    8   17 1
  16    9   10 ar
  17    9   12 ar
  18   10   11 1
  19   10   15 ar
  20   11   16 1
  21   12   13 ar
  22   12   50 1
  23   13   14 ar
  24   13   51 1
  25   14   15 ar
  26   14   18 1
  27   15   52 1
  28   16   53 1
  29   16   54 1
  30   16   55 1
  31   17   36 1
  32   17   39 1
  33   17   56 1
  34   18   19 am
  35   18   20 2
  36   19   21 1
  37   19   57 1
  38   21   22 1
  39   21   31 1
  40   21   33 1
  41   22   23 am
  42   22   24 2
  43   23   25 1
  44   23   58 1
  45   25   26 ar
  46   25   30 ar
  47   26   27 ar
  48   26   59 1
  49   27   28 ar
  50   27   60 1
  51   28   29 ar
  52   28   34 1
  53   29   30 ar
  54   29   41 1
  55   30   61 1
  56   31   32 1
  57   31   62 1
  58   31   63 1
  59   32   33 1
  60   32   64 1
  61   32   65 1
  62   33   66 1
  63   33   67 1
  64   34   35 2
  65   34   68 1
  66   35   44 1
  67   35   69 1
  68   36   37 1
  69   36   70 1
  70   36   71 1
  71   37   38 1
  72   37   72 1
  73   37   73 1
  74   38   39 1
  75   38   74 1
  76   38   75 1
  77   39   76 1
  78   39   77 1
  79   41   43 1
  80   42   43 1
  81   42   78 1
  82   42   79 1
  83   42   80 1
  84   43   81 1
  85   43   82 1
  86   44   45 2
  87   44   46 1
  88   46   83 1

#	End of record

