#	Name: ASD10420192
#	Creating user name:	WinNT
#	Creation time:	15. 06. 2019 21:27

#	Modifying user name:	WinNT
#	Modification time:	15. 06. 2019 21:27

#	Program:	/corina/corina34_cracker 3.40 0067  02.08.2006

@<TRIPOS>MOLECULE
ASD10420192
  31   33    0    0    0
SMALL
NO_CHARGES


@<TRIPOS>ATOM
   1 C1            -0.0168     1.3854     0.0097 C.ar    
   2 C2             0.0021    -0.0041     0.0020 C.ar    
   3 C3            -1.1897    -0.7187     0.0091 C.ar    
   4 C4            -2.3963    -0.0508     0.0242 C.ar    
   5 C5            -2.4193     1.3457     0.0324 C.ar    
   6 C6            -1.2193     2.0604     0.0305 C.ar    
   7 Cl7            1.4753     2.2727     0.0002 Cl      
   8 Cl8           -1.1597    -2.4544    -0.0017 Cl      
   9 C9            -3.7091     2.0646     0.0481 C.2     
  10 N10           -4.9041     1.5181     0.0561 N.2     
  11 N11           -5.7973     2.4440     0.0700 N.2     
  12 C12           -5.2086     3.6182     0.0714 C.2     
  13 O13           -3.8769     3.4028     0.0627 O.3     
  14 C14           -5.8813     4.9333     0.0856 C.ar    
  15 C15           -7.2752     5.0078     0.0997 C.ar    
  16 C16           -7.8970     6.2393     0.1134 C.ar    
  17 C17           -7.1428     7.3992     0.1126 C.ar    
  18 C18           -5.7609     7.3336     0.0986 C.ar    
  19 C19           -5.1253     6.1083     0.0907 C.ar    
  20 S20           -9.6563     6.3351     0.1312 S.o     
  21 O21           -9.9451     6.6582     1.4846 O.2     
  22 O22           -9.9356     7.6406    -0.5996 O.3     
  23 O23            1.1889    -0.6656    -0.0129 O.3     
  24 Br24          -3.2364     6.0204     0.0717 Br      
  25 H25           -3.3221    -0.6069     0.0293 H       
  26 H26           -1.2332     3.1403     0.0372 H       
  27 H27           -7.8655     4.1034     0.0996 H       
  28 H28           -7.6352     8.3604     0.1226 H       
  29 H29           -5.1782     8.2429     0.0978 H       
  30 H30          -10.8756     7.8523    -0.6813 H       
  31 H31            1.5408    -0.8618     0.8662 H       
@<TRIPOS>BOND
   1    1    2 ar
   2    1    7 1
   3    1    6 ar
   4    2    3 ar
   5    2   23 1
   6    3    4 ar
   7    3    8 1
   8    4    5 ar
   9    4   25 1
  10    5    6 ar
  11    5    9 1
  12    6   26 1
  13    9   10 2
  14    9   13 1
  15   10   11 1
  16   11   12 2
  17   12   13 1
  18   12   14 1
  19   14   15 ar
  20   14   19 ar
  21   15   16 ar
  22   15   27 1
  23   16   17 ar
  24   16   20 1
  25   17   18 ar
  26   17   28 1
  27   18   19 ar
  28   18   29 1
  29   19   24 1
  30   20   21 2
  31   20   22 1
  32   22   30 1
  33   23   31 1

#	End of record

