#	Name: ASD10950021
#	Creating user name:	WinNT
#	Creation time:	15. 06. 2019 21:28

#	Modifying user name:	WinNT
#	Modification time:	15. 06. 2019 21:28

#	Program:	/corina/corina34_cracker 3.40 0067  02.08.2006

@<TRIPOS>MOLECULE
ASD10950021
  56   59    0    0    0
SMALL
NO_CHARGES


@<TRIPOS>ATOM
   1 C1            -0.0187     1.5258     0.0104 C.3     
   2 C2             0.0021    -0.0041     0.0020 C.3     
   3 O3             0.7043    -0.4851     1.1784 O.3     
   4 C4             0.8122    -1.8200     1.3230 C.2     
   5 O5             0.3326    -2.5620     0.4893 O.2     
   6 C6             1.5136    -2.3817     2.4956 C.ar    
   7 C7             1.6271    -3.7649     2.6486 C.ar    
   8 C8             2.2833    -4.2826     3.7460 C.ar    
   9 C9             2.8284    -3.4346     4.6938 C.ar    
  10 C10            2.7195    -2.0629     4.5483 C.ar    
  11 C11            2.0709    -1.5316     3.4529 C.ar    
  12 C12            3.5434    -4.0075     5.8903 C.3     
  13 N13            4.7376    -3.2104     6.1935 N.am    
  14 C14            5.8802    -2.9970     5.3018 C.3     
  15 C15            5.6346    -1.7518     4.4473 C.3     
  16 C16            6.8099    -1.5322     3.5299 C.2     
  17 C17            7.8630    -0.7319     3.7590 C.2     
  18 N18            8.7305    -0.7888     2.7024 N.pl3   
  19 C19            8.2445    -1.6490     1.7434 C.ar    
  20 C20            7.0230    -2.1566     2.2220 C.ar    
  21 C21            6.2957    -3.0648     1.4501 C.ar    
  22 C22            6.7752    -3.4564     0.2322 C.ar    
  23 C23            7.9804    -2.9587    -0.2444 C.ar    
  24 C24            8.7156    -2.0644     0.5021 C.ar    
  25 C25            4.5983    -2.7098     7.4344 C.2     
  26 O26            5.4103    -2.0019     7.9959 O.2     
  27 C27            3.3094    -3.1484     8.0138 C.2     
  28 C28            2.6590    -3.9250     7.1124 C.2     
  29 C29            1.3958    -4.5394     7.2834 C.2     
  30 O30            0.7850    -4.3925     8.3219 O.2     
  31 C31            0.8088    -5.3762     6.1760 C.3     
  32 O32            2.8532    -2.8261     9.2446 O.3     
  33 H33            1.0039     1.9031     0.0027 H       
  34 H34           -0.5459     1.8868    -0.8726 H       
  35 H35           -0.5289     1.8773     0.9072 H       
  36 H36           -1.0205    -0.3814     0.0098 H       
  37 H37            0.5123    -0.3556    -0.8948 H       
  38 H38            1.2019    -4.4279     1.9098 H       
  39 H39            2.3716    -5.3523     3.8658 H       
  40 H40            3.1468    -1.4066     5.2920 H       
  41 H41            1.9866    -0.4608     3.3405 H       
  42 H42            3.8232    -5.0434     5.6984 H       
  43 H43            6.7835    -2.8577     5.8956 H       
  44 H44            6.0019    -3.8645     4.6531 H       
  45 H45            4.7312    -1.8910     3.8534 H       
  46 H46            5.5129    -0.8843     5.0959 H       
  47 H47            8.0042    -0.1315     4.6455 H       
  48 H48            9.5637    -0.2963     2.6383 H       
  49 H49            5.3577    -3.4567     1.8147 H       
  50 H50            6.2123    -4.1589    -0.3645 H       
  51 H51            8.3466    -3.2780    -1.2090 H       
  52 H52            9.6520    -1.6829     0.1226 H       
  53 H53            1.4782    -6.2075     5.9549 H       
  54 H54           -0.1609    -5.7637     6.4883 H       
  55 H55            0.6846    -4.7626     5.2837 H       
  56 H56            3.4525    -2.2607     9.7507 H       
@<TRIPOS>BOND
   1    1    2 1
   2    1   33 1
   3    1   34 1
   4    1   35 1
   5    2    3 1
   6    2   36 1
   7    2   37 1
   8    3    4 1
   9    4    5 2
  10    4    6 1
  11    6    7 ar
  12    6   11 ar
  13    7    8 ar
  14    7   38 1
  15    8    9 ar
  16    8   39 1
  17    9   10 ar
  18    9   12 1
  19   10   11 ar
  20   10   40 1
  21   11   41 1
  22   12   13 1
  23   12   28 1
  24   12   42 1
  25   13   14 1
  26   13   25 am
  27   14   15 1
  28   14   43 1
  29   14   44 1
  30   15   16 1
  31   15   45 1
  32   15   46 1
  33   16   17 2
  34   16   20 1
  35   17   18 1
  36   17   47 1
  37   18   19 1
  38   18   48 1
  39   19   20 ar
  40   19   24 ar
  41   20   21 ar
  42   21   22 ar
  43   21   49 1
  44   22   23 ar
  45   22   50 1
  46   23   24 ar
  47   23   51 1
  48   24   52 1
  49   25   26 2
  50   25   27 1
  51   27   28 2
  52   27   32 1
  53   28   29 1
  54   29   30 2
  55   29   31 1
  56   31   53 1
  57   31   54 1
  58   31   55 1
  59   32   56 1

#	End of record

