#	Name: ASD13210006
#	Creating user name:	WinNT
#	Creation time:	15. 06. 2019 21:30

#	Modifying user name:	WinNT
#	Modification time:	15. 06. 2019 21:30

#	Program:	/corina/corina34_cracker 3.40 0067  02.08.2006

@<TRIPOS>MOLECULE
ASD13210006
  50   52    0    0    0
SMALL
NO_CHARGES


@<TRIPOS>ATOM
   1 O1            -0.0577     1.4087    -0.0742 O.3     
   2 C2            -0.0426    -0.0202    -0.0835 C.3     
   3 C3            -1.4793    -0.5455    -0.0539 C.3     
   4 H4            -2.0037    -0.1221     0.8027 H       
   5 O5            -2.1499    -0.1673    -1.2578 O.3     
   6 C6            -3.5141    -0.5880    -1.3227 C.3     
   7 H7            -3.9564    -0.2443    -2.2577 H       
   8 O8            -4.2366    -0.0335    -0.2215 O.3     
   9 C9            -4.4555     1.3053    -0.2400 C.ar    
  10 C10           -3.9909     2.0722    -1.2976 C.ar    
  11 C11           -4.2141     3.4349    -1.3156 C.ar    
  12 C12           -4.9030     4.0461    -0.2797 C.ar    
  13 Cl13          -5.1760     5.7601    -0.3161 Cl      
  14 C14           -5.3729     3.2980     0.7796 C.ar    
  15 C15           -5.1573     1.9182     0.8073 C.ar    
  16 C16           -5.6610     1.1113     1.9347 C.2     
  17 O17           -5.4678    -0.0891     1.9574 O.2     
  18 N18           -6.3354     1.7044     2.9396 N.am    
  19 C19           -6.9146     0.9268     3.9482 C.ar    
  20 C20           -7.4351    -0.3250     3.6491 C.ar    
  21 C21           -8.0060    -1.0908     4.6473 C.ar    
  22 C22           -8.0596    -0.6122     5.9433 C.ar    
  23 C23           -7.5426     0.6345     6.2455 C.ar    
  24 C24           -6.9650     1.4033     5.2531 C.ar    
  25 Cl25          -6.3097     2.9651     5.6341 Cl      
  26 N26           -8.6721    -1.4359     7.0098 N.pl3   
  27 O27           -9.1282    -2.5338     6.7452 O.2     
  28 O28           -8.7200    -1.0157     8.1520 O.2     
  29 C29           -3.5789    -2.1162    -1.2586 C.3     
  30 H30           -3.0625    -2.5392    -2.1203 H       
  31 O31           -4.9446    -2.5370    -1.2664 O.3     
  32 C32           -2.9019    -2.5946     0.0295 C.3     
  33 H33           -3.4477    -2.2122     0.8920 H       
  34 O34           -2.8945    -4.0232     0.0635 O.3     
  35 C35           -1.4624    -2.0720     0.0614 C.3     
  36 H36           -0.9032    -2.4942    -0.7735 H       
  37 O37           -0.8437    -2.4511     1.2925 O.3     
  38 H38            0.8212     1.8115    -0.0918 H       
  39 H39            0.4545    -0.3724    -0.9873 H       
  40 H40            0.4952    -0.3835     0.7922 H       
  41 H41           -3.4533     1.6031    -2.1083 H       
  42 H42           -3.8495     4.0278    -2.1413 H       
  43 H43           -5.9092     3.7780     1.5848 H       
  44 H44           -6.4192     2.6705     2.9637 H       
  45 H45           -7.3942    -0.6997     2.6371 H       
  46 H46           -8.4113    -2.0645     4.4149 H       
  47 H47           -7.5866     1.0057     7.2587 H       
  48 H48           -5.4358    -2.2638    -2.0533 H       
  49 H49           -3.7753    -4.4218     0.0398 H       
  50 H50           -0.7987    -3.4069     1.4321 H       
@<TRIPOS>BOND
   1    1    2 1
   2    1   38 1
   3    2    3 1
   4    2   39 1
   5    2   40 1
   6    3    4 1
   7    3   35 1
   8    3    5 1
   9    5    6 1
  10    6    7 1
  11    6    8 1
  12    6   29 1
  13    8    9 1
  14    9   15 ar
  15    9   10 ar
  16   10   11 ar
  17   10   41 1
  18   11   12 ar
  19   11   42 1
  20   12   13 1
  21   12   14 ar
  22   14   15 ar
  23   14   43 1
  24   15   16 1
  25   16   17 2
  26   16   18 am
  27   18   19 1
  28   18   44 1
  29   19   24 ar
  30   19   20 ar
  31   20   21 ar
  32   20   45 1
  33   21   22 ar
  34   21   46 1
  35   22   23 ar
  36   22   26 1
  37   23   24 ar
  38   23   47 1
  39   24   25 1
  40   26   27 2
  41   26   28 2
  42   29   30 1
  43   29   31 1
  44   29   32 1
  45   31   48 1
  46   32   33 1
  47   32   34 1
  48   32   35 1
  49   34   49 1
  50   35   36 1
  51   35   37 1
  52   37   50 1

#	End of record

