#	Name: ASD14500001
#	Creating user name:	WinNT
#	Creation time:	15. 06. 2019 21:31

#	Modifying user name:	WinNT
#	Modification time:	15. 06. 2019 21:31

#	Program:	/corina/corina34_cracker 3.40 0067  02.08.2006

@<TRIPOS>MOLECULE
ASD14500001
  69   71    0    0    0
SMALL
NO_CHARGES


@<TRIPOS>ATOM
   1 S1             0.8555    -2.6324    -0.9060 S.3     
   2 O2           -12.2483    -2.4807     0.6066 O.3     
   3 O3           -10.7641    -4.1722    -2.1318 O.2     
   4 O4            -8.2056    -2.7185    -0.0860 O.2     
   5 O5            -7.3481    -5.2284    -2.1769 O.3     
   6 O6            -3.9063    -2.7581    -1.7863 O.2     
   7 O7            -3.8110    -1.4065     1.3075 O.3     
   8 O8            -1.3996    -4.9110     1.4514 O.2     
   9 N9            -8.9371    -2.2462    -2.1266 N.am    
  10 N10           -5.7309    -3.3568    -0.6753 N.am    
  11 N11           -2.1074    -3.3621     0.0241 N.am    
  12 N12            2.5039    -4.0316     0.3041 N.2     
  13 C13          -12.2950    -3.2307    -0.6089 C.3     
  14 C14          -12.1461    -3.8978     0.7600 C.3     
  15 C15          -11.0846    -3.1905    -1.5058 C.2     
  16 C16          -10.2742    -1.9252    -1.6214 C.3     
  17 C17          -13.6445    -3.3541    -1.3191 C.3     
  18 C18          -10.9670    -0.9625    -2.5879 C.3     
  19 C19          -10.2300     0.3520    -2.6019 C.ar    
  20 C20           -7.9694    -2.6347    -1.2727 C.2     
  21 C21           -6.5939    -2.9649    -1.7923 C.3     
  22 C22           -9.1999     0.5572    -3.5006 C.ar    
  23 C23          -10.5878     1.3545    -1.7199 C.ar    
  24 C24           -6.6899    -4.1192    -2.7920 C.3     
  25 C25           -4.3945    -3.2124    -0.7733 C.2     
  26 C26           -3.5068    -3.6156     0.3758 C.3     
  27 C27           -8.5238     1.7629    -3.5134 C.ar    
  28 C28           -9.9118     2.5602    -1.7328 C.ar    
  29 C29           -8.8782     2.7635    -2.6279 C.ar    
  30 C30           -3.8766    -2.8002     1.6165 C.3     
  31 C31           -7.4901    -6.3660    -3.0301 C.3     
  32 C32           -1.1246    -4.0654     0.6207 C.2     
  33 C33            0.2766    -3.8116     0.2685 C.2     
  34 C34           -4.1402    -0.5518     2.4044 C.3     
  35 C35            1.3590    -4.4431     0.7881 C.2     
  36 C36            2.4703    -3.0957    -0.5893 C.2     
  37 C37            3.6829    -2.4990    -1.2560 C.3     
  38 H38          -11.1719    -4.3116     1.0201 H       
  39 H39          -13.0088    -4.4286     1.1628 H       
  40 H40          -10.1894    -1.4572    -0.6407 H       
  41 H41          -13.9580    -2.3733    -1.6766 H       
  42 H42          -13.5493    -4.0356    -2.1644 H       
  43 H43          -14.3878    -3.7414    -0.6222 H       
  44 H44          -10.9657    -1.3904    -3.5903 H       
  45 H45          -11.9948    -0.7993    -2.2637 H       
  46 H46           -8.7482    -2.1792    -3.0757 H       
  47 H47           -6.1727    -2.0898    -2.2872 H       
  48 H48           -8.9230    -0.2245    -4.1924 H       
  49 H49          -11.3958     1.1958    -1.0211 H       
  50 H50           -5.6878    -4.4168    -3.1006 H       
  51 H51           -7.2584    -3.7977    -3.6647 H       
  52 H52           -6.1213    -3.7202     0.1349 H       
  53 H53           -3.6424    -4.6767     0.5848 H       
  54 H54           -7.7185     1.9230    -4.2151 H       
  55 H55          -10.1916     3.3435    -1.0440 H       
  56 H56           -8.3498     3.7054    -2.6378 H       
  57 H57           -3.1781    -3.0270     2.4219 H       
  58 H58           -4.8887    -3.0554     1.9306 H       
  59 H59           -1.8882    -2.6880    -0.6381 H       
  60 H60           -7.9989    -7.1642    -2.4897 H       
  61 H61           -8.0752    -6.0911    -3.9077 H       
  62 H62           -6.5046    -6.7103    -3.3436 H       
  63 H63           -5.1577    -0.7604     2.7348 H       
  64 H64           -3.4471    -0.7320     3.2261 H       
  65 H65           -4.0668     0.4889     2.0888 H       
  66 H66            1.2828    -5.2187     1.5359 H       
  67 H67            4.0335    -1.6455    -0.6756 H       
  68 H68            4.4721    -3.2486    -1.3128 H       
  69 H69            3.4201    -2.1711    -2.2617 H       
@<TRIPOS>BOND
   1    1   33 1
   2    1   36 1
   3    2   13 1
   4    2   14 1
   5    3   15 2
   6    4   20 2
   7    5   24 1
   8    5   31 1
   9    6   25 2
  10    7   30 1
  11    7   34 1
  12    8   32 2
  13    9   20 am
  14    9   46 1
  15    9   16 1
  16   10   25 am
  17   10   52 1
  18   10   21 1
  19   11   32 am
  20   11   59 1
  21   11   26 1
  22   12   35 1
  23   12   36 2
  24   13   14 1
  25   13   15 1
  26   13   17 1
  27   14   38 1
  28   14   39 1
  29   15   16 1
  30   16   18 1
  31   16   40 1
  32   17   41 1
  33   17   42 1
  34   17   43 1
  35   18   19 1
  36   18   44 1
  37   18   45 1
  38   19   22 ar
  39   19   23 ar
  40   20   21 1
  41   21   24 1
  42   21   47 1
  43   22   27 ar
  44   22   48 1
  45   23   28 ar
  46   23   49 1
  47   24   50 1
  48   24   51 1
  49   25   26 1
  50   26   30 1
  51   26   53 1
  52   27   29 ar
  53   27   54 1
  54   28   29 ar
  55   28   55 1
  56   29   56 1
  57   30   57 1
  58   30   58 1
  59   31   60 1
  60   31   61 1
  61   31   62 1
  62   32   33 1
  63   33   35 2
  64   34   63 1
  65   34   64 1
  66   34   65 1
  67   35   66 1
  68   36   37 1
  69   37   67 1
  70   37   68 1
  71   37   69 1

#	End of record

