#	Name: ASD10410147
#	Creating user name:	WinNT
#	Creation time:	15. 06. 2019 21:27

#	Modifying user name:	WinNT
#	Modification time:	15. 06. 2019 21:27

#	Program:	/corina/corina34_cracker 3.40 0067  02.08.2006

@<TRIPOS>MOLECULE
ASD10410147
  67   73    0    0    0
SMALL
NO_CHARGES


@<TRIPOS>ATOM
   1 C1            -0.0183     1.3928    -0.0806 C.ar    
   2 C2            -0.0057     0.0094     0.0245 C.ar    
   3 C3             1.2047    -0.6699     0.1149 C.ar    
   4 C4             2.3940     0.0338     0.0999 C.ar    
   5 C5             2.3797     1.4189    -0.0054 C.ar    
   6 C6             1.1710     2.0959    -0.0956 C.ar    
   7 F7             1.2176    -2.0170     0.2177 F       
   8 N8             3.5845     2.1323    -0.0206 N.pl3   
   9 C9             3.6694     3.3431    -0.7079 C.2     
  10 N10            4.7064     4.1462    -0.7104 N.2     
  11 N11            2.7081     3.8699    -1.4755 N.2     
  12 C12            3.1172     5.0175    -1.9726 C.2     
  13 N13            4.3736     5.2427    -1.5220 N.pl3   
  14 C14            5.1796     6.3468    -1.8082 C.ar    
  15 N15            2.3932     5.8453    -2.8096 N.pl3   
  16 N16           -1.2122    -0.7033     0.0401 N.3     
  17 C17           -2.0516    -0.2932     1.1745 C.3     
  18 C18           -3.3889    -1.0347     1.1106 C.3     
  19 N19           -3.1444    -2.4836     1.1368 N.3     
  20 C20           -2.3051    -2.8937     0.0024 C.3     
  21 C21           -0.9677    -2.1522     0.0663 C.3     
  22 N22            4.7339     7.3108    -2.5936 N.ar    
  23 N23            5.4368     8.3423    -2.8844 N.ar    
  24 C24            6.6531     8.5304    -2.4304 C.ar    
  25 C25            7.2408     7.5672    -1.5792 C.ar    
  26 C26            6.4680     6.4439    -1.2587 C.ar    
  27 C27           -4.4091    -3.2307     1.1531 C.3     
  28 C28           -4.1368    -4.7627     1.0535 C.3     
  29 C29           -5.1251    -3.0486     2.5110 C.3     
  30 C30           -5.2179    -4.4877     3.1039 C.3     
  31 C31           -5.5458    -5.3969     0.8443 C.3     
  32 C32           -6.2618    -5.2148     2.2022 C.3     
  33 C33           -3.8830    -5.1111     2.5626 C.3     
  34 C34            8.5433     7.5250    -0.9475 C.2     
  35 C35            8.7649     6.4556    -0.2037 C.2     
  36 S36            7.3785     5.3811    -0.1994 S.3     
  37 C37            7.4210     9.7686    -2.8153 C.3     
  38 H38           -0.9580     1.9199    -0.1552 H       
  39 H39            3.3342    -0.4929     0.1704 H       
  40 H40            1.1604     3.1728    -0.1774 H       
  41 H41            4.3600     1.7844     0.4467 H       
  42 H42            1.4958     5.5959    -3.0808 H       
  43 H43            2.7823     6.6756    -3.1259 H       
  44 H44           -1.5450    -0.5367     2.1084 H       
  45 H45           -2.2288     0.7812     1.1260 H       
  46 H46           -4.0018    -0.7538     1.9671 H       
  47 H47           -3.9078    -0.7701     0.1893 H       
  48 H48           -2.1278    -3.9681     0.0509 H       
  49 H49           -2.8116    -2.6502    -0.9315 H       
  50 H50           -0.3548    -2.4331    -0.7901 H       
  51 H51           -0.4489    -2.4168     0.9877 H       
  52 H52           -5.0525    -2.9051     0.3357 H       
  53 H53           -3.3680    -5.0647     0.3422 H       
  54 H54           -4.5386    -2.4047     3.1665 H       
  55 H55           -6.1221    -2.6338     2.3623 H       
  56 H56           -5.3906    -4.5503     4.1783 H       
  57 H57           -6.0858    -4.8716     0.0566 H       
  58 H58           -5.4539    -6.4557     0.6022 H       
  59 H59           -6.5218    -6.1840     2.6277 H       
  60 H60           -7.1538    -4.5999     2.0820 H       
  61 H61           -3.8362    -6.1869     2.7316 H       
  62 H62           -3.0042    -4.6013     2.9576 H       
  63 H63            9.2771     8.3072    -1.0749 H       
  64 H64            9.6818     6.2684     0.3353 H       
  65 H65            7.2247    10.5581    -2.0898 H       
  66 H66            8.4877     9.5450    -2.8293 H       
  67 H67            7.1059    10.0984    -3.8053 H       
@<TRIPOS>BOND
   1    1    2 ar
   2    1    6 ar
   3    1   38 1
   4    2    3 ar
   5    2   16 1
   6    3    4 ar
   7    3    7 1
   8    4    5 ar
   9    4   39 1
  10    5    6 ar
  11    5    8 1
  12    6   40 1
  13    8    9 1
  14    8   41 1
  15    9   10 2
  16    9   11 1
  17   10   13 1
  18   11   12 2
  19   12   13 1
  20   12   15 1
  21   13   14 1
  22   14   22 ar
  23   14   26 ar
  24   15   42 1
  25   15   43 1
  26   16   17 1
  27   16   21 1
  28   17   18 1
  29   17   44 1
  30   17   45 1
  31   18   19 1
  32   18   46 1
  33   18   47 1
  34   19   20 1
  35   19   27 1
  36   20   21 1
  37   20   48 1
  38   20   49 1
  39   21   50 1
  40   21   51 1
  41   22   23 ar
  42   23   24 ar
  43   24   25 ar
  44   24   37 1
  45   25   26 ar
  46   25   34 1
  47   26   36 1
  48   27   28 1
  49   27   29 1
  50   27   52 1
  51   28   31 1
  52   28   33 1
  53   28   53 1
  54   29   30 1
  55   29   54 1
  56   29   55 1
  57   30   32 1
  58   30   33 1
  59   30   56 1
  60   31   32 1
  61   31   57 1
  62   31   58 1
  63   32   59 1
  64   32   60 1
  65   33   61 1
  66   33   62 1
  67   34   35 2
  68   34   63 1
  69   35   36 1
  70   35   64 1
  71   37   65 1
  72   37   66 1
  73   37   67 1

#	End of record

