#	Name: ASD14640004
#	Creating user name:	WinNT
#	Creation time:	15. 06. 2019 21:31

#	Modifying user name:	WinNT
#	Modification time:	15. 06. 2019 21:31

#	Program:	/corina/corina34_cracker 3.40 0067  02.08.2006

@<TRIPOS>MOLECULE
ASD14640004
  69   73    0    0    0
SMALL
NO_CHARGES


@<TRIPOS>ATOM
   1 S1             0.4473     1.1848    -1.0757 S.o2    
   2 F2            -8.9547     2.3014    -7.5518 F       
   3 O3             0.4873    -0.2299    -1.2024 O.2     
   4 O4             1.6389     1.9579    -1.1149 O.2     
   5 N5            -9.6549     5.0667    -5.5604 N.3     
   6 N6            -7.9753     7.1633    -3.4017 N.3     
   7 N7            -2.4721     2.8340    -3.8842 N.3     
   8 N8            -0.4106     1.6893    -2.3993 N.am    
   9 C9            -7.3570     5.4537    -5.0808 C.3     
  10 C10           -8.1468     5.7561    -3.7867 C.3     
  11 C11           -8.3101     4.5095    -5.8559 C.3     
  12 C12           -9.6192     5.4739    -4.1389 C.3     
  13 C13          -10.7031     4.0646    -5.7947 C.3     
  14 C14          -12.0838     4.6319    -5.4022 C.3     
  15 C15          -10.8091     3.7510    -7.2717 C.ar    
  16 C16           -6.0589     4.7575    -4.7630 C.ar    
  17 C17          -12.5935     5.2155    -6.7371 C.3     
  18 C18          -11.8950     4.4121    -7.8131 C.ar    
  19 C19          -10.0167     2.9486    -8.0794 C.ar    
  20 C20           -4.8576     5.3381    -5.1266 C.ar    
  21 C21           -6.0713     3.5424    -4.1028 C.ar    
  22 C22           -8.7202     7.4673    -2.1726 C.3     
  23 C23           -6.5529     7.4984    -3.2518 C.3     
  24 C24          -12.1871     4.2711    -9.1598 C.ar    
  25 C25           -3.6753     3.4793    -4.1789 C.ar    
  26 C26           -3.6661     4.7027    -4.8368 C.ar    
  27 C27           -4.8835     2.9017    -3.8099 C.ar    
  28 C28          -10.3115     2.8091    -9.4238 C.ar    
  29 C29          -11.3977     3.4720    -9.9634 C.ar    
  30 C30           -2.7131     1.5620    -3.1901 C.3     
  31 C31           -1.5839     3.7065    -3.1046 C.3     
  32 C32           -0.2140     3.0356    -2.9581 C.3     
  33 C33           -1.3896     0.8032    -3.0471 C.3     
  34 C34           -0.5789     1.6683     0.3399 C.3     
  35 H35           -7.1771     6.3686    -5.6455 H       
  36 H36           -7.8170     5.1010    -2.9804 H       
  37 H37           -8.2265     3.4884    -5.4837 H       
  38 H38           -8.1042     4.5484    -6.9255 H       
  39 H39          -10.2145     6.3757    -3.9960 H       
  40 H40          -10.0032     4.6690    -3.5123 H       
  41 H41          -10.4919     3.1577    -5.2282 H       
  42 H42          -12.7427     3.8385    -5.0495 H       
  43 H43          -11.9817     5.4149    -4.6508 H       
  44 H44          -13.6739     5.0935    -6.8152 H       
  45 H45          -12.3244     6.2688    -6.8167 H       
  46 H46           -4.8512     6.2891    -5.6384 H       
  47 H47           -7.0111     3.0939    -3.8163 H       
  48 H48           -6.1106     6.8685    -2.4800 H       
  49 H49           -8.6334     8.5306    -1.9488 H       
  50 H50           -9.7703     7.2097    -2.3110 H       
  51 H51           -6.0382     7.3297    -4.1976 H       
  52 H52           -6.4546     8.5458    -2.9664 H       
  53 H53           -8.3097     6.8873    -1.3461 H       
  54 H54          -13.0357     4.7878    -9.5830 H       
  55 H55           -2.7283     5.1563    -5.1217 H       
  56 H56           -4.8940     1.9528    -3.2944 H       
  57 H57           -9.6937     2.1834   -10.0508 H       
  58 H58          -11.6296     3.3643   -11.0127 H       
  59 H59           -1.4684     4.6607    -3.6187 H       
  60 H60           -2.0141     3.8746    -2.1173 H       
  61 H61           -3.1276     1.7599    -2.2016 H       
  62 H62           -3.4166     0.9609    -3.7662 H       
  63 H63            0.4115     3.6232    -2.2861 H       
  64 H64            0.2633     2.9604    -3.9351 H       
  65 H65           -1.0253     0.5134    -4.0327 H       
  66 H66           -1.5412    -0.0852    -2.4339 H       
  67 H67           -0.0849     1.3713     1.2650 H       
  68 H68           -0.7199     2.7492     0.3341 H       
  69 H69           -1.5484     1.1751     0.2711 H       
@<TRIPOS>BOND
   1    1    3 2
   2    1    4 2
   3    1    8 am
   4    1   34 1
   5    2   19 1
   6    5   11 1
   7    5   12 1
   8    5   13 1
   9    6   22 1
  10    6   23 1
  11    6   10 1
  12    7   25 1
  13    7   30 1
  14    7   31 1
  15    8   32 1
  16    8   33 1
  17    9   10 1
  18    9   11 1
  19    9   16 1
  20    9   35 1
  21   10   12 1
  22   10   36 1
  23   11   37 1
  24   11   38 1
  25   12   39 1
  26   12   40 1
  27   13   14 1
  28   13   15 1
  29   13   41 1
  30   14   17 1
  31   14   42 1
  32   14   43 1
  33   15   18 ar
  34   15   19 ar
  35   16   20 ar
  36   16   21 ar
  37   17   18 1
  38   17   44 1
  39   17   45 1
  40   18   24 ar
  41   19   28 ar
  42   20   26 ar
  43   20   46 1
  44   21   27 ar
  45   21   47 1
  46   22   49 1
  47   22   50 1
  48   22   53 1
  49   23   48 1
  50   23   51 1
  51   23   52 1
  52   24   29 ar
  53   24   54 1
  54   25   26 ar
  55   25   27 ar
  56   26   55 1
  57   27   56 1
  58   28   29 ar
  59   28   57 1
  60   29   58 1
  61   30   33 1
  62   30   61 1
  63   30   62 1
  64   31   32 1
  65   31   59 1
  66   31   60 1
  67   32   63 1
  68   32   64 1
  69   33   65 1
  70   33   66 1
  71   34   67 1
  72   34   68 1
  73   34   69 1

#	End of record

