#	Name: ASD10160520
#	Creating user name:	WinNT
#	Creation time:	15. 06. 2019 21:26

#	Modifying user name:	WinNT
#	Modification time:	15. 06. 2019 21:26

#	Program:	/corina/corina34_cracker 3.40 0067  02.08.2006

@<TRIPOS>MOLECULE
ASD10160520
  44   45    0    0    0
SMALL
NO_CHARGES


@<TRIPOS>ATOM
   1 C1            -0.0168     1.3876     0.0097 C.ar    
   2 C2             0.0021    -0.0041     0.0020 C.ar    
   3 C3             1.2046    -0.6595    -0.0130 C.ar    
   4 C4             2.3807     0.1017    -0.0201 C.ar    
   5 C5             2.2870     1.4923    -0.0117 C.ar    
   6 N6             1.1102     2.0834     0.0026 N.ar    
   7 C7            -1.2884    -0.7823     0.0106 C.3     
   8 F8            -1.0066    -2.1526     0.0005 F       
   9 F9            -2.0169    -0.4646     1.1619 F       
  10 F10           -2.0396    -0.4523    -1.1225 F       
  11 O11            5.0756     0.0235    -0.0456 O.3     
  12 B12            3.7842    -0.6016    -0.0367 Du      
  13 O13            4.0565    -2.0102    -0.0459 O.3     
  14 C14            5.1903    -2.1688     0.8328 C.3     
  15 C15            5.8812    -0.7900     0.8329 C.3     
  16 C16            7.3073    -0.9082     0.2914 C.3     
  17 C17            5.8929    -0.1997     2.2445 C.3     
  18 C18            4.7243    -2.5318     2.2442 C.3     
  19 C19            6.1387    -3.2403     0.2911 C.3     
  20 O20           -1.2043     2.0395     0.0188 O.3     
  21 C21           -1.1603     3.4678     0.0264 C.3     
  22 C22           -2.5864     4.0219     0.0361 C.3     
  23 C23           -3.3171     3.5276     1.2861 C.3     
  24 F24           -4.6211     4.0343     1.2950 F       
  25 F25           -3.3602     2.1293     1.2787 F       
  26 F26           -2.5433     5.4202     0.0435 F       
  27 F27           -3.2653     3.5823    -1.1054 F       
  28 H28            1.2453    -1.7387    -0.0188 H       
  29 H29            3.1866     2.0898    -0.0171 H       
  30 H30            7.7611     0.0817     0.2437 H       
  31 H31            7.8950    -1.5458     0.9518 H       
  32 H32            7.2818    -1.3447    -0.7070 H       
  33 H33            4.8718    -0.1375     2.6207 H       
  34 H34            6.4837    -0.8389     2.9007 H       
  35 H35            6.3316     0.7977     2.2176 H       
  36 H36            4.1879    -3.4803     2.2170 H       
  37 H37            5.5899    -2.6225     2.9004 H       
  38 H38            4.0632    -1.7512     2.6205 H       
  39 H39            6.4732    -2.9583    -0.7073 H       
  40 H40            7.0012    -3.3295     0.9516 H       
  41 H41            5.6173    -4.1963     0.2431 H       
  42 H42           -0.6313     3.8102     0.9157 H       
  43 H43           -0.6397     3.8199    -0.8642 H       
  44 H44           -2.7881     3.8701     2.1755 H       
@<TRIPOS>BOND
   1    1    2 ar
   2    1    6 ar
   3    1   20 1
   4    2    3 ar
   5    2    7 1
   6    3    4 ar
   7    3   28 1
   8    4    5 ar
   9    4   12 1
  10    5    6 ar
  11    5   29 1
  12    7    8 1
  13    7    9 1
  14    7   10 1
  15   11   12 1
  16   11   15 1
  17   12   13 1
  18   13   14 1
  19   14   15 1
  20   14   18 1
  21   14   19 1
  22   15   16 1
  23   15   17 1
  24   16   30 1
  25   16   31 1
  26   16   32 1
  27   17   33 1
  28   17   34 1
  29   17   35 1
  30   18   36 1
  31   18   37 1
  32   18   38 1
  33   19   39 1
  34   19   40 1
  35   19   41 1
  36   20   21 1
  37   21   22 1
  38   21   42 1
  39   21   43 1
  40   22   23 1
  41   22   26 1
  42   22   27 1
  43   23   24 1
  44   23   25 1
  45   23   44 1

#	End of record

