#	Name: ASD10160306
#	Creating user name:	WinNT
#	Creation time:	15. 06. 2019 21:25

#	Modifying user name:	WinNT
#	Modification time:	15. 06. 2019 21:25

#	Program:	/corina/corina34_cracker 3.40 0067  02.08.2006

@<TRIPOS>MOLECULE
ASD10160306
  52   54    0    0    0
SMALL
NO_CHARGES


@<TRIPOS>ATOM
   1 C1            -0.3986     1.1092    -1.9427 C.2     
   2 C2            -0.2787    -0.2692    -1.4374 C.ar    
   3 C3             0.9057    -0.9897    -1.6362 C.ar    
   4 C4             1.0132    -2.2808    -1.1603 C.ar    
   5 C5            -0.0506    -2.8649    -0.4856 C.ar    
   6 C6            -1.2303    -2.1519    -0.2857 C.ar    
   7 C7            -1.3453    -0.8608    -0.7523 C.ar    
   8 O8             0.5310     1.6230    -2.5332 O.2     
   9 O9            -1.5413     1.7986    -1.7551 O.3     
  10 F10           -2.2620    -2.7258     0.3711 F       
  11 F11            1.9410    -0.4222    -2.2929 F       
  12 O12            0.0593    -4.1350    -0.0197 O.3     
  13 C13            1.5477    -5.5224    -1.2590 C.ar    
  14 C14            1.2624    -4.7570    -0.1397 C.ar    
  15 C15            2.2229    -4.6323     0.8604 C.ar    
  16 C16            3.4341    -5.2829     0.6957 C.ar    
  17 C17            3.6488    -6.0331    -0.4541 C.ar    
  18 N18            2.7130    -6.1289    -1.3831 N.ar    
  19 O19            4.8331    -6.6746    -0.6257 O.3     
  20 C20            6.6449    -8.3194    -3.4748 C.3     
  21 C21            6.4714    -7.4438    -2.2311 C.3     
  22 C22            4.9936    -7.4298    -1.8282 C.3     
  23 C23            4.5255    -8.8696    -1.5954 C.3     
  24 C24            4.7742    -9.6901    -2.8637 C.3     
  25 O25            6.1621    -9.6360    -3.2000 O.3     
  26 Cl26           4.6689    -5.1623     1.9100 Cl      
  27 C27           -1.5886     3.1517    -2.2797 C.3     
  28 C28           -1.3719     3.1194    -3.7940 C.3     
  29 C29           -2.9540     3.7702    -1.9730 C.3     
  30 C30           -0.4898     3.9912    -1.6251 C.3     
  31 H31            1.9258    -2.8377    -1.3132 H       
  32 H32           -2.2589    -0.3074    -0.5928 H       
  33 H33            0.8060    -5.6275    -2.0369 H       
  34 H34            2.0280    -4.0419     1.7435 H       
  35 H35            6.0804    -7.8907    -4.3028 H       
  36 H36            7.7008    -8.3677    -3.7410 H       
  37 H37            7.0679    -7.8495    -1.4139 H       
  38 H38            6.7982    -6.4278    -2.4524 H       
  39 H39            4.4028    -6.9772    -2.6246 H       
  40 H40            5.0827    -9.3041    -0.7654 H       
  41 H41            3.4608    -8.8733    -1.3621 H       
  42 H42            4.4825   -10.7259    -2.6896 H       
  43 H43            4.1852    -9.2794    -3.6837 H       
  44 H44           -2.1547     2.5213    -4.2604 H       
  45 H45           -1.4074     4.1351    -4.1878 H       
  46 H46           -0.3992     2.6787    -4.0125 H       
  47 H47           -3.1084     3.7932    -0.8943 H       
  48 H48           -2.9895     4.7859    -2.3669 H       
  49 H49           -3.7368     3.1721    -2.4394 H       
  50 H50            0.4830     3.5506    -1.8436 H       
  51 H51           -0.5253     5.0070    -2.0189 H       
  52 H52           -0.6442     4.0142    -0.5463 H       
@<TRIPOS>BOND
   1    1    2 1
   2    1    8 2
   3    1    9 1
   4    2    3 ar
   5    2    7 ar
   6    3    4 ar
   7    3   11 1
   8    4    5 ar
   9    4   31 1
  10    5    6 ar
  11    5   12 1
  12    6    7 ar
  13    6   10 1
  14    7   32 1
  15    9   27 1
  16   12   14 1
  17   13   14 ar
  18   13   18 ar
  19   13   33 1
  20   14   15 ar
  21   15   16 ar
  22   15   34 1
  23   16   17 ar
  24   16   26 1
  25   17   18 ar
  26   17   19 1
  27   19   22 1
  28   20   21 1
  29   20   25 1
  30   20   35 1
  31   20   36 1
  32   21   22 1
  33   21   37 1
  34   21   38 1
  35   22   23 1
  36   22   39 1
  37   23   24 1
  38   23   40 1
  39   23   41 1
  40   24   25 1
  41   24   42 1
  42   24   43 1
  43   27   28 1
  44   27   30 1
  45   27   29 1
  46   28   44 1
  47   28   45 1
  48   28   46 1
  49   29   47 1
  50   29   48 1
  51   29   49 1
  52   30   50 1
  53   30   51 1
  54   30   52 1

#	End of record

