#	Name: ASD10410259
#	Creating user name:	WinNT
#	Creation time:	15. 06. 2019 21:27

#	Modifying user name:	WinNT
#	Modification time:	15. 06. 2019 21:27

#	Program:	/corina/corina34_cracker 3.40 0067  02.08.2006

@<TRIPOS>MOLECULE
ASD10410259
  56   60    0    0    0
SMALL
NO_CHARGES


@<TRIPOS>ATOM
   1 C1            -0.1089     1.8672    -0.8973 C.ar    
   2 C2            -0.0204     0.4995    -0.6736 C.ar    
   3 C3             1.2195    -0.1259    -0.6773 C.ar    
   4 C4             2.3644     0.6122    -0.9033 C.ar    
   5 C5             2.2758     1.9799    -1.1275 C.ar    
   6 C6             1.0358     2.6053    -1.1238 C.ar    
   7 N7             3.4369     2.7286    -1.3562 N.pl3   
   8 C8             3.3862     3.8648    -2.1630 C.2     
   9 N9             4.3781     4.6986    -2.3649 N.2     
  10 N10            2.3194     4.2748    -2.8591 N.2     
  11 C11            2.6126     5.3794    -3.5112 C.2     
  12 N12            3.9062     5.6951    -3.2345 N.pl3   
  13 C13            4.6200     6.7883    -3.7168 C.ar    
  14 N14            1.7595     6.0899    -4.3333 N.pl3   
  15 C15            5.3779     7.5855    -2.8327 C.ar    
  16 N16            4.5951     7.0801    -5.0026 N.ar    
  17 C17            5.2556     8.1087    -5.5159 C.ar    
  18 C18            6.0099     8.9388    -4.7441 C.ar    
  19 C19            6.0920     8.6912    -3.3606 C.ar    
  20 C20            6.8478     9.5004    -2.5006 C.ar    
  21 C21            6.8885     9.2099    -1.1699 C.ar    
  22 C22            6.1910     8.1210    -0.6519 C.ar    
  23 C23            5.4431     7.3168    -1.4588 C.ar    
  24 N24           -1.1809    -0.2487    -0.4440 N.3     
  25 C25           -0.8599    -1.6665    -0.2325 C.3     
  26 C26           -2.1272    -2.4157     0.1927 C.3     
  27 N27           -3.1786    -2.1579    -0.8030 N.am    
  28 C28           -3.4628    -0.7622    -1.1695 C.3     
  29 C29           -2.1429    -0.0780    -1.5410 C.3     
  30 C30           -3.8631    -3.1738    -1.3651 C.2     
  31 O31           -3.6853    -4.3105    -0.9814 O.2     
  32 C32           -4.8495    -2.8973    -2.4704 C.3     
  33 H33           -1.0736     2.3528    -0.8985 H       
  34 H34            1.2884    -1.1895    -0.5030 H       
  35 H35            3.3287     0.1260    -0.9055 H       
  36 H36            0.9669     3.6688    -1.2985 H       
  37 H37            4.2764     2.4568    -0.9535 H       
  38 H38            0.8501     5.7817    -4.4710 H       
  39 H39            2.0698     6.8969    -4.7730 H       
  40 H40            5.1936     8.2935    -6.5781 H       
  41 H41            6.5393     9.7699    -5.1861 H       
  42 H42            7.3936    10.3471    -2.8898 H       
  43 H43            7.4705     9.8329    -0.5070 H       
  44 H44            6.2407     7.9130     0.4067 H       
  45 H45            4.9073     6.4763    -1.0431 H       
  46 H46           -0.4775    -2.0950    -1.1589 H       
  47 H47           -0.1051    -1.7559     0.5488 H       
  48 H48           -1.9219    -3.4852     0.2398 H       
  49 H49           -2.4530    -2.0592     1.1698 H       
  50 H50           -4.1404    -0.7384    -2.0229 H       
  51 H51           -3.9169    -0.2466    -0.3232 H       
  52 H52           -2.3186     0.9846    -1.7086 H       
  53 H53           -1.7427    -0.5286    -2.4492 H       
  54 H54           -4.8043    -1.8427    -2.7422 H       
  55 H55           -4.6022    -3.5074    -3.3391 H       
  56 H56           -5.8554    -3.1418    -2.1292 H       
@<TRIPOS>BOND
   1    1    2 ar
   2    1    6 ar
   3    1   33 1
   4    2    3 ar
   5    2   24 1
   6    3    4 ar
   7    3   34 1
   8    4    5 ar
   9    4   35 1
  10    5    6 ar
  11    5    7 1
  12    6   36 1
  13    7    8 1
  14    7   37 1
  15    8    9 2
  16    8   10 1
  17    9   12 1
  18   10   11 2
  19   11   12 1
  20   11   14 1
  21   12   13 1
  22   13   15 ar
  23   13   16 ar
  24   14   38 1
  25   14   39 1
  26   15   19 ar
  27   15   23 ar
  28   16   17 ar
  29   17   18 ar
  30   17   40 1
  31   18   19 ar
  32   18   41 1
  33   19   20 ar
  34   20   21 ar
  35   20   42 1
  36   21   22 ar
  37   21   43 1
  38   22   23 ar
  39   22   44 1
  40   23   45 1
  41   24   25 1
  42   24   29 1
  43   25   26 1
  44   25   46 1
  45   25   47 1
  46   26   27 1
  47   26   48 1
  48   26   49 1
  49   27   28 1
  50   27   30 am
  51   28   29 1
  52   28   50 1
  53   28   51 1
  54   29   52 1
  55   29   53 1
  56   30   31 2
  57   30   32 1
  58   32   54 1
  59   32   55 1
  60   32   56 1

#	End of record

