#	Name: ASD10410261
#	Creating user name:	WinNT
#	Creation time:	15. 06. 2019 21:27

#	Modifying user name:	WinNT
#	Modification time:	15. 06. 2019 21:27

#	Program:	/corina/corina34_cracker 3.40 0067  02.08.2006

@<TRIPOS>MOLECULE
ASD10410261
  55   59    0    0    0
SMALL
NO_CHARGES


@<TRIPOS>ATOM
   1 C1            -0.0184     1.3926    -0.0798 C.ar    
   2 C2            -0.0057     0.0095     0.0248 C.ar    
   3 C3             1.2007    -0.6691     0.1142 C.ar    
   4 C4             2.3905     0.0318     0.0992 C.ar    
   5 C5             2.3788     1.4166    -0.0054 C.ar    
   6 C6             1.1704     2.0952    -0.0949 C.ar    
   7 O7            -1.1769    -0.6816     0.0401 O.3     
   8 N8             3.5843     2.1280    -0.0202 N.pl3   
   9 C9             3.6712     3.3384    -0.7072 C.2     
  10 N10            4.7098     4.1387    -0.7084 N.2     
  11 N11            2.7100     3.8653    -1.4750 N.2     
  12 C12            3.1189     5.0120    -1.9737 C.2     
  13 N13            4.3815     5.2363    -1.5205 N.pl3   
  14 C14            5.1874     6.3349    -1.8045 C.ar    
  15 N15            2.3958     5.8394    -2.8107 N.pl3   
  16 N16            4.7090     7.2889    -2.5997 N.ar    
  17 N17            6.3907     6.3907    -1.2711 N.ar    
  18 C18            5.4217     8.3525    -2.9061 C.ar    
  19 C19            6.7185     8.4675    -2.3713 C.ar    
  20 C20            7.1918     7.4331    -1.5234 C.ar    
  21 C21           -1.0897    -2.1037     0.1499 C.3     
  22 C22           -2.4976    -2.7024     0.1508 C.3     
  23 N23           -3.1373    -2.4514    -1.1476 N.3     
  24 C24           -3.0089    -1.0306    -1.5356 C.3     
  25 C25           -4.5695    -2.7995    -1.1071 C.3     
  26 C26           -5.3585    -1.5370    -1.5135 C.3     
  27 C27           -4.3127    -0.7124    -2.3093 C.3     
  28 C28            7.5424     9.5683    -2.6469 C.ar    
  29 C29            8.7891     9.6267    -2.1004 C.ar    
  30 C30            9.2570     8.6089    -1.2719 C.ar    
  31 C31            8.4812     7.5279    -0.9794 C.ar    
  32 H32           -0.9580     1.9198    -0.1538 H       
  33 H33            1.2096    -1.7460     0.1959 H       
  34 H34            3.3297    -0.4967     0.1692 H       
  35 H35            1.1604     3.1720    -0.1767 H       
  36 H36            4.3591     1.7790     0.4474 H       
  37 H37            1.4981     5.5908    -3.0813 H       
  38 H38            2.7857     6.6690    -3.1278 H       
  39 H39            5.0208     9.1188    -3.5530 H       
  40 H40           -0.5270    -2.4995    -0.6956 H       
  41 H41           -0.5827    -2.3660     1.0785 H       
  42 H42           -2.4354    -3.7769     0.3235 H       
  43 H43           -3.0883    -2.2408     0.9421 H       
  44 H44           -2.9302    -0.4008    -0.6495 H       
  45 H45           -2.1413    -0.8902    -2.1803 H       
  46 H46           -4.7748    -3.6072    -1.8096 H       
  47 H47           -4.8491    -3.1026    -0.0981 H       
  48 H48           -6.2056    -1.7993    -2.1472 H       
  49 H49           -5.6906    -0.9895    -0.6314 H       
  50 H50           -4.5414     0.3525    -2.2677 H       
  51 H51           -4.2479    -1.0562    -3.3416 H       
  52 H52            7.1915    10.3636    -3.2879 H       
  53 H53            9.4241    10.4742    -2.3127 H       
  54 H54           10.2493     8.6799    -0.8516 H       
  55 H55            8.8579     6.7471    -0.3353 H       
@<TRIPOS>BOND
   1    1    2 ar
   2    1    6 ar
   3    1   32 1
   4    2    3 ar
   5    2    7 1
   6    3    4 ar
   7    3   33 1
   8    4    5 ar
   9    4   34 1
  10    5    6 ar
  11    5    8 1
  12    6   35 1
  13    7   21 1
  14    8    9 1
  15    8   36 1
  16    9   10 2
  17    9   11 1
  18   10   13 1
  19   11   12 2
  20   12   13 1
  21   12   15 1
  22   13   14 1
  23   14   16 ar
  24   14   17 ar
  25   15   37 1
  26   15   38 1
  27   16   18 ar
  28   17   20 ar
  29   18   19 ar
  30   18   39 1
  31   19   20 ar
  32   19   28 ar
  33   20   31 ar
  34   21   22 1
  35   21   40 1
  36   21   41 1
  37   22   23 1
  38   22   42 1
  39   22   43 1
  40   23   25 1
  41   23   24 1
  42   24   27 1
  43   24   44 1
  44   24   45 1
  45   25   26 1
  46   25   46 1
  47   25   47 1
  48   26   27 1
  49   26   48 1
  50   26   49 1
  51   27   50 1
  52   27   51 1
  53   28   29 ar
  54   28   52 1
  55   29   30 ar
  56   29   53 1
  57   30   31 ar
  58   30   54 1
  59   31   55 1

#	End of record

