#	Name: ASD10410177
#	Creating user name:	WinNT
#	Creation time:	15. 06. 2019 21:27

#	Modifying user name:	WinNT
#	Modification time:	15. 06. 2019 21:27

#	Program:	/corina/corina34_cracker 3.40 0067  02.08.2006

@<TRIPOS>MOLECULE
ASD10410177
  87   94    0    0    0
SMALL
NO_CHARGES


@<TRIPOS>ATOM
   1 C1             0.7287    -0.0648    -0.5452 C.ar    
   2 C2            -0.3391     0.5259     0.1178 C.ar    
   3 C3            -0.1616     1.7312     0.7844 C.ar    
   4 C4             1.0767     2.3421     0.7884 C.ar    
   5 C5             2.1446     1.7512     0.1258 C.ar    
   6 C6             1.9669     0.5461    -0.5413 C.ar    
   7 N7             3.4004     2.3709     0.1294 N.pl3   
   8 C8             3.4922     3.7598     0.2144 C.2     
   9 N9             4.6062     4.4426     0.3256 N.2     
  10 N10            2.4578     4.6085     0.1897 N.2     
  11 C11            2.8958     5.8451     0.2904 C.2     
  12 N12            4.2520     5.8003     0.3799 N.pl3   
  13 C13            5.1174     6.8852     0.5012 C.ar    
  14 N14            2.1169     6.9861     0.3002 N.pl3   
  15 N15           -1.5943    -0.0934     0.1138 N.3     
  16 C16           -2.5743     0.6979     0.8709 C.3     
  17 C17           -3.9481     0.0298     0.7759 C.3     
  18 N18           -3.8615    -1.3395     1.3023 N.3     
  19 C19           -2.8815    -2.1307     0.5453 C.3     
  20 C20           -1.5078    -1.4627     0.6403 C.3     
  21 N21            4.6434     8.1214     0.5403 N.ar    
  22 C22            5.4640     9.1619     0.6560 C.ar    
  23 N23            6.7732     9.0201     0.7366 N.ar    
  24 C24            7.3428     7.7977     0.7048 C.ar    
  25 C25            6.5051     6.6832     0.5896 C.ar    
  26 C26           -5.1789    -1.9894     1.2981 C.3     
  27 C27           -6.1688    -1.2173     2.2229 C.3     
  28 C28           -5.0849    -3.4019     1.9190 C.3     
  29 C29           -6.0270    -3.3503     3.1605 C.3     
  30 C30           -5.3811    -1.0118     3.5528 C.3     
  31 C31           -5.2871    -2.4243     4.1736 C.3     
  32 C32           -7.1418    -2.3767     2.6384 C.3     
  33 C33            8.7385     7.4189     0.7772 C.2     
  34 C34            8.9656     6.1172     0.7172 C.2     
  35 S35            7.4692     5.2148     0.5685 S.3     
  36 C36            9.8476     8.4305     0.9102 C.3     
  37 C37            4.8898    10.5225     0.6949 C.2     
  38 C38            3.5768    10.6907     0.6151 C.2     
  39 C39            2.9911    12.0787     0.6549 C.3     
  40 N40            2.1478    12.2885    -0.5296 N.3     
  41 C41            1.3739    13.5328    -0.4116 C.3     
  42 C42            0.5568    13.7423    -1.6893 C.3     
  43 O43           -0.2798    12.6029    -1.9063 O.3     
  44 C44            0.4413    11.3737    -2.0265 C.3     
  45 C45            1.2572    11.1402    -0.7523 C.3     
  46 H46            0.5916    -1.0042    -1.0601 H       
  47 H47           -0.9921     2.1908     1.2994 H       
  48 H48            1.2147     3.2796     1.3065 H       
  49 H49            2.7975     0.0864    -1.0563 H       
  50 H50            4.2063     1.8342     0.0728 H       
  51 H51            1.1521     6.9153     0.2287 H       
  52 H52            2.5348     7.8580     0.3785 H       
  53 H53           -2.2682     0.7529     1.9156 H       
  54 H54           -2.6295     1.7036     0.4543 H       
  55 H55           -4.6706     0.5992     1.3606 H       
  56 H56           -4.2663    -0.0006    -0.2661 H       
  57 H57           -2.8264    -3.1365     0.9618 H       
  58 H58           -3.1876    -2.1857    -0.4994 H       
  59 H59           -0.7853    -2.0321     0.0555 H       
  60 H60           -1.1895    -1.4322     1.6823 H       
  61 H61           -5.5715    -2.0440     0.2828 H       
  62 H62           -6.6223    -0.3234     1.7947 H       
  63 H63           -5.4323    -4.1528     1.2094 H       
  64 H64           -4.0612    -3.6141     2.2274 H       
  65 H65           -6.3568    -4.3139     3.5487 H       
  66 H66           -4.3849    -0.6199     3.3476 H       
  67 H67           -5.9252    -0.3403     4.2169 H       
  68 H68           -5.7851    -2.4472     5.1430 H       
  69 H69           -4.2447    -2.7268     4.2737 H       
  70 H70           -7.8240    -2.0731     3.4324 H       
  71 H71           -7.6760    -2.7886     1.7822 H       
  72 H72            9.9467     5.6675     0.7571 H       
  73 H73           10.0459     8.6155     1.9659 H       
  74 H74           10.7491     8.0461     0.4331 H       
  75 H75            9.5500     9.3615     0.4278 H       
  76 H76            5.5394    11.3803     0.7884 H       
  77 H77            2.9272     9.8330     0.5216 H       
  78 H78            2.3876    12.1927     1.5554 H       
  79 H79            3.7967    12.8129     0.6620 H       
  80 H80            0.7013    13.4634     0.4433 H       
  81 H81            2.0544    14.3729    -0.2729 H       
  82 H82           -0.0620    14.6334    -1.5835 H       
  83 H83            1.2313    13.8653    -2.5366 H       
  84 H84           -0.2610    10.5517    -2.1647 H       
  85 H85            1.1125    11.4278    -2.8837 H       
  86 H86            1.8526    10.2338    -0.8623 H       
  87 H87            0.5827    11.0326     0.0972 H       
@<TRIPOS>BOND
   1    1    2 ar
   2    1    6 ar
   3    1   46 1
   4    2    3 ar
   5    2   15 1
   6    3    4 ar
   7    3   47 1
   8    4    5 ar
   9    4   48 1
  10    5    6 ar
  11    5    7 1
  12    6   49 1
  13    7    8 1
  14    7   50 1
  15    8    9 2
  16    8   10 1
  17    9   12 1
  18   10   11 2
  19   11   12 1
  20   11   14 1
  21   12   13 1
  22   13   21 ar
  23   13   25 ar
  24   14   51 1
  25   14   52 1
  26   15   16 1
  27   15   20 1
  28   16   17 1
  29   16   53 1
  30   16   54 1
  31   17   18 1
  32   17   55 1
  33   17   56 1
  34   18   19 1
  35   18   26 1
  36   19   20 1
  37   19   57 1
  38   19   58 1
  39   20   59 1
  40   20   60 1
  41   21   22 ar
  42   22   23 ar
  43   22   37 1
  44   23   24 ar
  45   24   25 ar
  46   24   33 1
  47   25   35 1
  48   26   27 1
  49   26   28 1
  50   26   61 1
  51   27   30 1
  52   27   32 1
  53   27   62 1
  54   28   29 1
  55   28   63 1
  56   28   64 1
  57   29   31 1
  58   29   32 1
  59   29   65 1
  60   30   31 1
  61   30   66 1
  62   30   67 1
  63   31   68 1
  64   31   69 1
  65   32   70 1
  66   32   71 1
  67   33   34 2
  68   33   36 1
  69   34   35 1
  70   34   72 1
  71   36   73 1
  72   36   74 1
  73   36   75 1
  74   37   38 2
  75   37   76 1
  76   38   39 1
  77   38   77 1
  78   39   40 1
  79   39   78 1
  80   39   79 1
  81   40   41 1
  82   40   45 1
  83   41   42 1
  84   41   80 1
  85   41   81 1
  86   42   43 1
  87   42   82 1
  88   42   83 1
  89   43   44 1
  90   44   45 1
  91   44   84 1
  92   44   85 1
  93   45   86 1
  94   45   87 1

#	End of record

