#	Name: ASD13110016
#	Creating user name:	WinNT
#	Creation time:	15. 06. 2019 21:30

#	Modifying user name:	WinNT
#	Modification time:	15. 06. 2019 21:30

#	Program:	/corina/corina34_cracker 3.40 0067  02.08.2006

@<TRIPOS>MOLECULE
ASD13110016
  48   51    0    0    0
SMALL
NO_CHARGES


@<TRIPOS>ATOM
   1 C1            -0.0187     1.5258     0.0104 C.3     
   2 C2             0.0021    -0.0041     0.0020 C.3     
   3 H3             0.5124    -0.3550    -0.8950 H       
   4 N4            -1.3744    -0.5110     0.0104 N.am    
   5 C5            -2.1091    -0.4497     1.2849 C.3     
   6 C6            -1.3992    -1.3659     2.2804 C.3     
   7 C7             0.0867    -1.1205     2.2692 C.ar    
   8 C8             0.8179    -1.5453     3.3716 C.ar    
   9 C9             2.1840    -1.3600     3.4214 C.ar    
  10 C10            2.8335    -0.7469     2.3666 C.ar    
  11 C11            2.1093    -0.3201     1.2723 C.ar    
  12 C12            0.7334    -0.5028     1.2230 C.ar    
  13 C13            0.1125    -2.2149     4.5227 C.3     
  14 H14           -0.8732    -1.7685     4.6540 H       
  15 O15            0.8775    -2.0398     5.7169 O.3     
  16 C16           -0.0392    -3.7086     4.2286 C.3     
  17 F17           -0.7931    -4.3094     5.2425 F       
  18 F18           -0.6889    -3.8786     3.0013 F       
  19 C19           -1.9437    -1.0122    -1.1036 C.2     
  20 O20           -1.3161    -1.0507    -2.1407 O.2     
  21 C21           -3.3602    -1.5249    -1.0606 C.3     
  22 C22           -3.7544    -2.0268    -2.4258 C.ar    
  23 C23           -4.3314    -1.1713    -3.3377 C.ar    
  24 Cl24          -4.6038     0.4894    -2.9114 Cl      
  25 C25           -4.6961    -1.6300    -4.5970 C.ar    
  26 C26           -4.4867    -2.9446    -4.9519 C.ar    
  27 C27           -3.9058    -3.8238    -4.0460 C.ar    
  28 O28           -3.5832    -5.1322    -4.1030 O.3     
  29 N29           -3.0056    -5.5264    -2.8747 N.2     
  30 C30           -2.9610    -4.5115    -2.0658 C.2     
  31 Cl31          -2.3358    -4.5144    -0.4463 Cl      
  32 C32           -3.5310    -3.3608    -2.7746 C.ar    
  33 H33            1.0039     1.9031     0.0027 H       
  34 H34           -0.5459     1.8868    -0.8726 H       
  35 H35           -0.5289     1.8773     0.9072 H       
  36 H36           -2.1103     0.5734     1.6611 H       
  37 H37           -3.1340    -0.7899     1.1365 H       
  38 H38           -1.7864    -1.1760     3.2815 H       
  39 H39           -1.5930    -2.4046     2.0129 H       
  40 H40            2.7444    -1.6929     4.2826 H       
  41 H41            3.9033    -0.6022     2.3989 H       
  42 H42            2.6163     0.1595     0.4480 H       
  43 H43            1.7682    -2.4136     5.6718 H       
  44 H44            0.9463    -4.1723     4.1853 H       
  45 H45           -3.4300    -2.3395    -0.3399 H       
  46 H46           -4.0298    -0.7180    -0.7629 H       
  47 H47           -5.1483    -0.9503    -5.3040 H       
  48 H48           -4.7742    -3.2917    -5.9334 H       
@<TRIPOS>BOND
   1    1    2 1
   2    1   33 1
   3    1   34 1
   4    1   35 1
   5    2    3 1
   6    2   12 1
   7    2    4 1
   8    4    5 1
   9    4   19 am
  10    5    6 1
  11    5   36 1
  12    5   37 1
  13    6    7 1
  14    6   38 1
  15    6   39 1
  16    7   12 ar
  17    7    8 ar
  18    8    9 ar
  19    8   13 1
  20    9   10 ar
  21    9   40 1
  22   10   11 ar
  23   10   41 1
  24   11   12 ar
  25   11   42 1
  26   13   14 1
  27   13   15 1
  28   13   16 1
  29   15   43 1
  30   16   17 1
  31   16   18 1
  32   16   44 1
  33   19   20 2
  34   19   21 1
  35   21   22 1
  36   21   45 1
  37   21   46 1
  38   22   32 ar
  39   22   23 ar
  40   23   24 1
  41   23   25 ar
  42   25   26 ar
  43   25   47 1
  44   26   27 ar
  45   26   48 1
  46   27   32 ar
  47   27   28 1
  48   28   29 1
  49   29   30 2
  50   30   31 1
  51   30   32 1

#	End of record

