#	Name: ASD11000202
#	Creating user name:	WinNT
#	Creation time:	15. 06. 2019 21:28

#	Modifying user name:	WinNT
#	Modification time:	15. 06. 2019 21:28

#	Program:	/corina/corina34_cracker 3.40 0067  02.08.2006

@<TRIPOS>MOLECULE
ASD11000202
  45   48    0    0    0
SMALL
NO_CHARGES


@<TRIPOS>ATOM
   1 C1            -0.0168     1.3887     0.0097 C.ar    
   2 C2             0.0021    -0.0041     0.0020 C.ar    
   3 N3             1.1621    -0.6480    -0.0125 N.ar    
   4 C4             2.2947     0.0341    -0.0197 C.ar    
   5 C5             2.2719     1.4159    -0.0120 C.ar    
   6 N6             1.1180     2.0619     0.0025 N.ar    
   7 N7            -1.1910    -0.7173     0.0100 N.pl3   
   8 C8            -3.6010    -1.0009     0.0325 C.ar    
   9 C9            -4.1073    -1.4643     1.2324 C.ar    
  10 C10           -4.1349    -1.4471    -1.1621 C.ar    
  11 C11           -5.1757    -2.3565    -1.1572 C.ar    
  12 C12           -5.6829    -2.8206     0.0434 C.ar    
  13 C13           -5.1475    -2.3743     1.2385 C.ar    
  14 Cl14          -6.9906    -3.9623     0.0503 Cl      
  15 C15            3.6127    -0.6965    -0.0357 C.3     
  16 O16            4.6825     0.2510    -0.0409 O.3     
  17 C17            5.9477    -0.2466    -0.0552 C.ar    
  18 C18            6.1503    -1.6244    -0.0641 C.ar    
  19 C19            7.4250    -2.1464    -0.0791 C.ar    
  20 C20            8.5244    -1.2948    -0.0855 C.ar    
  21 C21            8.3242     0.0986    -0.0766 C.ar    
  22 C22            7.0252     0.6165    -0.0667 C.ar    
  23 N23            9.8095    -1.7983    -0.0995 N.am    
  24 C24           10.8740    -0.9771    -0.1048 C.2     
  25 C25           10.7268     0.4264    -0.0959 C.2     
  26 C26            9.4907     0.9835    -0.0825 C.2     
  27 O27           11.9944    -1.4569    -0.1172 O.2     
  28 C28           -2.4706    -0.0043     0.0266 C.3     
  29 H29           -0.9589     1.9168     0.0170 H       
  30 H30            3.1990     1.9698    -0.0179 H       
  31 H31           -1.1762    -1.6872     0.0047 H       
  32 H32           -3.6898    -1.1153     2.1653 H       
  33 H33           -3.7389    -1.0848    -2.0992 H       
  34 H34           -5.5932    -2.7045    -2.0905 H       
  35 H35           -5.5428    -2.7365     2.1761 H       
  36 H36            3.6897    -1.3265     0.8505 H       
  37 H37            3.6731    -1.3175    -0.9294 H       
  38 H38            5.2998    -2.2900    -0.0588 H       
  39 H39            7.5705    -3.2166    -0.0855 H       
  40 H40            6.8660     1.6847    -0.0602 H       
  41 H41            9.9466    -2.7585    -0.1053 H       
  42 H42           11.6020     1.0592    -0.1001 H       
  43 H43            9.3691     2.0566    -0.0764 H       
  44 H44           -2.5290     0.6166     0.9205 H       
  45 H45           -2.5467     0.6262    -0.8593 H       
@<TRIPOS>BOND
   1    1    2 ar
   2    1    6 ar
   3    1   29 1
   4    2    3 ar
   5    2    7 1
   6    3    4 ar
   7    4    5 ar
   8    4   15 1
   9    5    6 ar
  10    5   30 1
  11    7   28 1
  12    7   31 1
  13    8    9 ar
  14    8   10 ar
  15    8   28 1
  16    9   13 ar
  17    9   32 1
  18   10   11 ar
  19   10   33 1
  20   11   12 ar
  21   11   34 1
  22   12   13 ar
  23   12   14 1
  24   13   35 1
  25   15   16 1
  26   15   36 1
  27   15   37 1
  28   16   17 1
  29   17   18 ar
  30   17   22 ar
  31   18   19 ar
  32   18   38 1
  33   19   20 ar
  34   19   39 1
  35   20   21 ar
  36   20   23 1
  37   21   22 ar
  38   21   26 1
  39   22   40 1
  40   23   24 am
  41   23   41 1
  42   24   25 1
  43   24   27 2
  44   25   26 2
  45   25   42 1
  46   26   43 1
  47   28   44 1
  48   28   45 1

#	End of record

