#	Name: ASD11030014
#	Creating user name:	WinNT
#	Creation time:	15. 06. 2019 21:29

#	Modifying user name:	WinNT
#	Modification time:	15. 06. 2019 21:29

#	Program:	/corina/corina34_cracker 3.40 0067  02.08.2006

@<TRIPOS>MOLECULE
ASD11030014
  37   40    0    0    0
SMALL
NO_CHARGES


@<TRIPOS>ATOM
   1 F1            -0.0520     0.0906     1.6064 F       
   2 C2            -0.0644     1.4311     1.4382 C.ar    
   3 C3             1.1270     2.1391     1.4479 C.ar    
   4 C4             1.1203     3.5074     1.2763 C.ar    
   5 C5            -0.0897     4.1794     1.0924 C.ar    
   6 C6            -1.2869     3.4610     1.0835 C.ar    
   7 C7            -1.2679     2.0922     1.2508 C.ar    
   8 C8            -0.1032     5.6453     0.9085 C.2     
   9 N9             0.9407     6.4263     0.8969 N.2     
  10 N10            0.7485     7.6611     0.7271 N.2     
  11 C11           -0.4886     8.0658     0.5749 C.2     
  12 S12           -1.5343     6.6467     0.6581 S.3     
  13 N13           -0.8930     9.3470     0.3818 N.2     
  14 C14           -0.0040    10.3180     0.3333 C.2     
  15 S15           -0.3336    12.0423     0.0917 S.3     
  16 C16            1.3703    12.5300     0.1710 C.2     
  17 C17            1.8824    13.7817     0.0577 C.2     
  18 C18            0.9814    14.9381    -0.0380 C.ar    
  19 C19           -0.3491    14.8298     0.3824 C.ar    
  20 C20           -1.1884    15.9190     0.2895 C.ar    
  21 C21           -0.7189    17.1194    -0.2189 C.ar    
  22 C22            0.5964    17.2356    -0.6379 C.ar    
  23 C23            1.4511    16.1567    -0.5453 C.ar    
  24 Cl24           3.0992    16.3040    -1.0702 Cl      
  25 Cl25          -1.7848    18.4850    -0.3320 Cl      
  26 C26            2.1015    11.2766     0.3870 C.2     
  27 O27            3.3134    11.2389     0.4917 O.2     
  28 N28            1.3498    10.1913     0.4656 N.am    
  29 H29            2.0623     1.6183     1.5906 H       
  30 H30            2.0493     4.0582     1.2844 H       
  31 H31           -2.2257     3.9758     0.9420 H       
  32 H32           -2.1933     1.5355     1.2437 H       
  33 H33            2.9523    13.9277     0.0378 H       
  34 H34           -0.7173    13.8949     0.7783 H       
  35 H35           -2.2153    15.8366     0.6137 H       
  36 H36            0.9548    18.1744    -1.0337 H       
  37 H37            1.7529     9.3205     0.6074 H       
@<TRIPOS>BOND
   1    1    2 1
   2    2    3 ar
   3    2    7 ar
   4    3    4 ar
   5    3   29 1
   6    4    5 ar
   7    4   30 1
   8    5    6 ar
   9    5    8 1
  10    6    7 ar
  11    6   31 1
  12    7   32 1
  13    8    9 2
  14    8   12 1
  15    9   10 1
  16   10   11 2
  17   11   12 1
  18   11   13 1
  19   13   14 2
  20   14   15 1
  21   14   28 1
  22   15   16 1
  23   16   17 2
  24   16   26 1
  25   17   18 1
  26   17   33 1
  27   18   19 ar
  28   18   23 ar
  29   19   20 ar
  30   19   34 1
  31   20   21 ar
  32   20   35 1
  33   21   22 ar
  34   21   25 1
  35   22   23 ar
  36   22   36 1
  37   23   24 1
  38   26   27 2
  39   26   28 am
  40   28   37 1

#	End of record

