#	Name: ASD13490020
#	Creating user name:	WinNT
#	Creation time:	15. 06. 2019 21:30

#	Modifying user name:	WinNT
#	Modification time:	15. 06. 2019 21:30

#	Program:	/corina/corina34_cracker 3.40 0067  02.08.2006

@<TRIPOS>MOLECULE
ASD13490020
  54   58    0    0    0
SMALL
NO_CHARGES


@<TRIPOS>ATOM
   1 C1             0.1434     1.5055     1.2321 C.ar    
   2 C2             0.0449     0.1263     1.1623 C.ar    
   3 C3             0.6898    -0.5655     0.1391 C.ar    
   4 C4             1.4289     0.1279    -0.8074 C.ar    
   5 C5             1.5266     1.5040    -0.7369 C.ar    
   6 C6             0.8847     2.1965     0.2821 C.ar    
   7 N7             0.5916    -1.9651     0.0667 N.pl3   
   8 C8             0.2536    -2.7007    -1.0389 C.2     
   9 C9             0.2802    -3.9956    -0.6682 C.2     
  10 N10            0.6246    -4.0504     0.6269 N.2     
  11 C11            0.8186    -2.8390     1.0732 C.2     
  12 C12           -0.0244    -5.1763    -1.5538 C.3     
  13 O13           -0.6796    -0.5522     2.0911 O.3     
  14 C14           -1.3133     0.2218     3.1116 C.3     
  15 N15            0.9846     3.5891     0.3512 N.pl3   
  16 C16            2.2128     4.2131     0.1242 C.ar    
  17 C17            2.2895     5.6137     0.0444 C.ar    
  18 C18            3.3616     3.4562    -0.0175 C.ar    
  19 C19            4.5844     4.0705    -0.2426 C.ar    
  20 C20            4.6735     5.4438    -0.3284 C.ar    
  21 C21            1.9535     7.7656    -0.0057 C.2     
  22 N22            1.3685     6.6027     0.1439 N.2     
  23 C23            3.5334     6.2243    -0.1839 C.ar    
  24 N24            3.2958     7.5849    -0.2116 N.pl3   
  25 C25            1.2683     9.0750     0.0402 C.ar    
  26 C26            1.9507    10.2071     0.4881 C.ar    
  27 C27            1.3069    11.4260     0.5290 C.ar    
  28 C28           -0.0153    11.5279     0.1263 C.ar    
  29 C29           -0.6977    10.4067    -0.3190 C.ar    
  30 C30           -0.0614     9.1843    -0.3697 C.ar    
  31 F31           -0.6414    12.7244     0.1683 F       
  32 C32            4.2927     8.6376    -0.4217 C.3     
  33 H33           -0.3594     2.0440     2.0218 H       
  34 H34            1.9290    -0.4085    -1.6002 H       
  35 H35            2.1027     2.0422    -1.4750 H       
  36 H36            0.0119    -2.3163    -2.0188 H       
  37 H37            1.1093    -2.5779     2.0801 H       
  38 H38            0.8932    -5.5168    -2.0336 H       
  39 H39           -0.4410    -5.9840    -0.9520 H       
  40 H40           -0.7455    -4.8821    -2.3163 H       
  41 H41           -1.8570    -0.4407     3.7852 H       
  42 H42           -0.5575     0.7706     3.6735 H       
  43 H43           -2.0088     0.9258     2.6547 H       
  44 H44            0.2005     4.1219     0.5568 H       
  45 H45            3.3061     2.3796     0.0479 H       
  46 H46            5.4743     3.4682    -0.3512 H       
  47 H47            5.6304     5.9129    -0.5036 H       
  48 H48            2.9809    10.1287     0.8025 H       
  49 H49            1.8340    12.3026     0.8758 H       
  50 H50           -1.7282    10.4914    -0.6310 H       
  51 H51           -0.5925     8.3121    -0.7213 H       
  52 H52            4.6412     9.0058     0.5432 H       
  53 H53            5.1355     8.2332    -0.9823 H       
  54 H54            3.8431     9.4571    -0.9825 H       
@<TRIPOS>BOND
   1    1    2 ar
   2    1    6 ar
   3    1   33 1
   4    2    3 ar
   5    2   13 1
   6    3    4 ar
   7    3    7 1
   8    4    5 ar
   9    4   34 1
  10    5    6 ar
  11    5   35 1
  12    6   15 1
  13    7    8 1
  14    7   11 1
  15    8    9 2
  16    8   36 1
  17    9   10 1
  18    9   12 1
  19   10   11 2
  20   11   37 1
  21   12   38 1
  22   12   39 1
  23   12   40 1
  24   13   14 1
  25   14   41 1
  26   14   42 1
  27   14   43 1
  28   15   16 1
  29   15   44 1
  30   16   18 ar
  31   16   17 ar
  32   17   23 ar
  33   17   22 1
  34   18   19 ar
  35   18   45 1
  36   19   20 ar
  37   19   46 1
  38   20   23 ar
  39   20   47 1
  40   21   22 2
  41   21   24 1
  42   21   25 1
  43   23   24 1
  44   24   32 1
  45   25   26 ar
  46   25   30 ar
  47   26   27 ar
  48   26   48 1
  49   27   28 ar
  50   27   49 1
  51   28   29 ar
  52   28   31 1
  53   29   30 ar
  54   29   50 1
  55   30   51 1
  56   32   52 1
  57   32   53 1
  58   32   54 1

#	End of record

