#	Name: ASD10160156
#	Creating user name:	WinNT
#	Creation time:	15. 06. 2019 21:25

#	Modifying user name:	WinNT
#	Modification time:	15. 06. 2019 21:25

#	Program:	/corina/corina34_cracker 3.40 0067  02.08.2006

@<TRIPOS>MOLECULE
ASD10160156
  48   50    0    0    0
SMALL
NO_CHARGES


@<TRIPOS>ATOM
   1 C1            -2.2278    -2.6081     4.8627 C.2     
   2 C2            -1.6266    -3.0100     3.5778 C.ar    
   3 C3            -0.3021    -3.4608     3.5328 C.ar    
   4 C4             0.2562    -3.8359     2.3274 C.ar    
   5 C5            -0.4939    -3.7659     1.1611 C.ar    
   6 C6            -1.8119    -3.3180     1.2016 C.ar    
   7 C7            -2.3796    -2.9474     2.4012 C.ar    
   8 O8            -1.5728    -2.6680     5.8855 O.2     
   9 N9            -3.5014    -2.1691     4.9028 N.am    
  10 S10           -4.1766    -1.7178     6.3459 S.o2    
  11 O11           -5.5060    -1.3452     6.0096 O.2     
  12 O12           -3.9201    -2.8153     7.2113 O.2     
  13 C13           -3.2190    -0.2651     6.8590 C.3     
  14 F14           -2.5369    -3.2521     0.0635 F       
  15 F15            0.4286    -3.5282     4.6672 F       
  16 O16            0.0593    -4.1349    -0.0222 O.3     
  17 C17            2.4213    -3.8526    -0.1457 C.ar    
  18 C18            1.3102    -4.6677    -0.0036 C.ar    
  19 C19            1.4894    -6.0392     0.1590 C.ar    
  20 C20            2.7802    -6.5384     0.1724 C.ar    
  21 C21            3.8485    -5.6589     0.0240 C.ar    
  22 N22            3.6391    -4.3611    -0.1280 N.ar    
  23 N23            5.1520    -6.1498     0.0359 N.pl3   
  24 C24            6.6504    -4.6372     1.2425 C.3     
  25 C25            6.2823    -5.2309    -0.1198 C.3     
  26 C26            7.4880    -5.9925    -0.6787 C.3     
  27 C27            8.6848    -5.0403    -0.7637 C.3     
  28 C28            8.9601    -4.4540     0.6234 C.3     
  29 O29            7.7892    -3.7862     1.0978 O.3     
  30 Cl30           3.0630    -8.2395     0.3725 Cl      
  31 H31            1.2780    -4.1838     2.2914 H       
  32 H32           -3.4034    -2.6048     2.4320 H       
  33 H33           -4.0226    -2.1176     4.0863 H       
  34 H34           -3.3114     0.5161     6.1045 H       
  35 H35           -3.5996     0.1030     7.8117 H       
  36 H36           -2.1704    -0.5416     6.9692 H       
  37 H37            2.2892    -2.7888    -0.2767 H       
  38 H38            0.6410    -6.6977     0.2724 H       
  39 H39            5.3114    -7.1001     0.1473 H       
  40 H40            5.8102    -4.0582     1.6257 H       
  41 H41            6.8846    -5.4426     1.9387 H       
  42 H42            6.0077    -4.4285    -0.8046 H       
  43 H43            7.7310    -6.8254    -0.0189 H       
  44 H44            7.2514    -6.3705    -1.6733 H       
  45 H45            9.5621    -5.5877    -1.1085 H       
  46 H46            8.4599    -4.2340    -1.4619 H       
  47 H47            9.2245    -5.2570     1.3115 H       
  48 H48            9.7838    -3.7429     0.5606 H       
@<TRIPOS>BOND
   1    1    2 1
   2    1    8 2
   3    1    9 am
   4    2    3 ar
   5    2    7 ar
   6    3    4 ar
   7    3   15 1
   8    4    5 ar
   9    4   31 1
  10    5    6 ar
  11    5   16 1
  12    6    7 ar
  13    6   14 1
  14    7   32 1
  15    9   10 am
  16    9   33 1
  17   10   11 2
  18   10   12 2
  19   10   13 1
  20   13   34 1
  21   13   35 1
  22   13   36 1
  23   16   18 1
  24   17   18 ar
  25   17   22 ar
  26   17   37 1
  27   18   19 ar
  28   19   20 ar
  29   19   38 1
  30   20   21 ar
  31   20   30 1
  32   21   22 ar
  33   21   23 1
  34   23   25 1
  35   23   39 1
  36   24   25 1
  37   24   29 1
  38   24   40 1
  39   24   41 1
  40   25   26 1
  41   25   42 1
  42   26   27 1
  43   26   43 1
  44   26   44 1
  45   27   28 1
  46   27   45 1
  47   27   46 1
  48   28   29 1
  49   28   47 1
  50   28   48 1

#	End of record

