#	Name: ASD15130001
#	Creating user name:	WinNT
#	Creation time:	15. 06. 2019 21:31

#	Modifying user name:	WinNT
#	Modification time:	15. 06. 2019 21:31

#	Program:	/corina/corina34_cracker 3.40 0067  02.08.2006

@<TRIPOS>MOLECULE
ASD15130001
  62   65    0    0    0
SMALL
NO_CHARGES


@<TRIPOS>ATOM
   1 C1            -2.9754    -0.2304    -2.9072 C.3     
   2 C2            -2.5039    -1.6613    -2.6407 C.3     
   3 C3            -1.3796    -2.0177    -3.6153 C.3     
   4 N4            -0.9281    -3.3879    -3.3601 N.am    
   5 C5             0.0621    -3.9206    -4.1032 C.2     
   6 O6             0.5803    -3.2644    -4.9849 O.2     
   7 O7             0.4770    -5.1797    -3.8686 O.3     
   8 C8             1.5475    -5.6881    -4.7076 C.3     
   9 C9             1.8806    -7.1234    -4.2955 C.3     
  10 C10            2.9557    -7.6867    -5.2295 C.3     
  11 C11            4.1858    -8.0668    -4.3958 C.3     
  12 C12            3.7651    -9.1058    -3.3487 C.3     
  13 C13            2.6683    -8.5029    -2.4666 C.3     
  14 N14            2.3812    -7.1332    -2.9144 N.3     
  15 C15            3.5664    -6.2755    -2.7764 C.3     
  16 C16            4.6892    -6.8142    -3.6674 C.3     
  17 C17            5.0797    -5.7657    -4.6769 C.2     
  18 C18            4.6742    -4.4772    -4.6811 C.2     
  19 N19            5.9012    -5.9476    -5.7332 N.pl3   
  20 C20            6.5686    -7.1998    -6.0975 C.3     
  21 N21            6.0044    -4.7312    -6.4199 N.2     
  22 C22            5.2667    -3.8417    -5.7898 C.2     
  23 C23            5.0924    -2.4197    -6.1772 C.ar    
  24 C24            5.7408    -1.9188    -7.3043 C.ar    
  25 C25            5.5770    -0.5968    -7.6619 C.ar    
  26 C26            4.7672     0.2345    -6.9002 C.ar    
  27 O27            4.6077     1.5365    -7.2549 O.3     
  28 C28            3.7605     2.3354    -6.4266 C.3     
  29 C29            4.1197    -0.2619    -5.7771 C.ar    
  30 C30            4.2755    -1.5844    -5.4177 C.ar    
  31 H31           -2.1422     0.4585    -2.7684 H       
  32 H32           -3.3436    -0.1539    -3.9303 H       
  33 H33           -3.7763     0.0235    -2.2129 H       
  34 H34           -2.1357    -1.7379    -1.6176 H       
  35 H35           -3.3371    -2.3503    -2.7795 H       
  36 H36           -1.7478    -1.9412    -4.6384 H       
  37 H37           -0.5464    -1.3288    -3.4765 H       
  38 H38           -1.3418    -3.9117    -2.6562 H       
  39 H39            1.2300    -5.6738    -5.7502 H       
  40 H40            2.4314    -5.0615    -4.5883 H       
  41 H41            0.9829    -7.7382    -4.3613 H       
  42 H42            2.5712    -8.5711    -5.7375 H       
  43 H43            3.2322    -6.9316    -5.9653 H       
  44 H44            4.9683    -8.4644    -5.0421 H       
  45 H45            3.3831    -9.9953    -3.8498 H       
  46 H46            4.6246    -9.3737    -2.7342 H       
  47 H47            1.7650    -9.1080    -2.5449 H       
  48 H48            3.0047    -8.4840    -1.4299 H       
  49 H49            3.3170    -5.2589    -3.0803 H       
  50 H50            3.8955    -6.2745    -1.7372 H       
  51 H51            5.5518    -7.0712    -3.0526 H       
  52 H52            4.0132    -4.0162    -3.9621 H       
  53 H53            5.9281    -7.7706    -6.7699 H       
  54 H54            7.5119    -6.9771    -6.5962 H       
  55 H55            6.7623    -7.7835    -5.1976 H       
  56 H56            6.3713    -2.5649    -7.8971 H       
  57 H57            6.0796    -0.2079    -8.5352 H       
  58 H58            2.7570     1.9098    -6.4156 H       
  59 H59            4.1580     2.3549    -5.4119 H       
  60 H60            3.7201     3.3509    -6.8205 H       
  61 H61            3.4900     0.3870    -5.1865 H       
  62 H62            3.7682    -1.9711    -4.5462 H       
@<TRIPOS>BOND
   1    1    2 1
   2    1   31 1
   3    1   32 1
   4    1   33 1
   5    2    3 1
   6    2   34 1
   7    2   35 1
   8    3    4 1
   9    3   36 1
  10    3   37 1
  11    4    5 am
  12    4   38 1
  13    5    6 2
  14    5    7 1
  15    7    8 1
  16    8    9 1
  17    8   39 1
  18    8   40 1
  19    9   14 1
  20    9   10 1
  21    9   41 1
  22   10   11 1
  23   10   42 1
  24   10   43 1
  25   11   16 1
  26   11   44 1
  27   11   12 1
  28   12   45 1
  29   12   46 1
  30   12   13 1
  31   13   47 1
  32   13   48 1
  33   13   14 1
  34   14   15 1
  35   15   16 1
  36   15   49 1
  37   15   50 1
  38   16   17 1
  39   16   51 1
  40   17   19 1
  41   17   18 2
  42   18   22 1
  43   18   52 1
  44   19   21 1
  45   19   20 1
  46   20   53 1
  47   20   54 1
  48   20   55 1
  49   21   22 2
  50   22   23 1
  51   23   24 ar
  52   23   30 ar
  53   24   25 ar
  54   24   56 1
  55   25   26 ar
  56   25   57 1
  57   26   27 1
  58   26   29 ar
  59   27   28 1
  60   28   58 1
  61   28   59 1
  62   28   60 1
  63   29   61 1
  64   29   30 ar
  65   30   62 1

#	End of record

