#	Name: ASD11000191
#	Creating user name:	WinNT
#	Creation time:	15. 06. 2019 21:28

#	Modifying user name:	WinNT
#	Modification time:	15. 06. 2019 21:28

#	Program:	/corina/corina34_cracker 3.40 0067  02.08.2006

@<TRIPOS>MOLECULE
ASD11000191
  51   54    0    0    0
SMALL
NO_CHARGES


@<TRIPOS>ATOM
   1 N1             1.5922    -0.6278     0.0776 N.ar    
   2 C2             1.7561    -1.9285    -0.1147 C.ar    
   3 N3             2.9439    -2.4438    -0.3963 N.ar    
   4 C4             4.0111    -1.6686    -0.4947 C.ar    
   5 C5             3.8752    -0.3030    -0.2994 C.ar    
   6 C6             2.6182     0.2027    -0.0064 C.ar    
   7 C7             5.0681     0.6120    -0.4029 C.3     
   8 O8             5.2051     1.0654    -1.7511 O.3     
   9 C9             6.2406     1.9057    -2.0176 C.ar    
  10 C10            7.1086     2.2798    -1.0024 C.ar    
  11 N11            0.6599    -2.7695    -0.0187 N.pl3   
  12 C12            0.7917    -4.1294    -0.3258 C.ar    
  13 C13            0.0298    -5.0716     0.3521 C.ar    
  14 C14            1.6803    -4.5359    -1.3127 C.ar    
  15 C15            1.8093    -5.8769    -1.6152 C.ar    
  16 C16            1.0512    -6.8181    -0.9340 C.ar    
  17 C17            0.1600    -6.4126     0.0483 C.ar    
  18 O18            1.1785    -8.1387    -1.2329 O.3     
  19 C19            6.4315     2.3836    -3.3057 C.ar    
  20 C20            7.4828     3.2369    -3.5773 C.ar    
  21 C21            8.3490     3.6166    -2.5603 C.ar    
  22 C22            8.1604     3.1331    -1.2721 C.ar    
  23 C23            2.1113    -8.4847    -2.2586 C.3     
  24 F24            1.7404    -7.8624    -3.4555 F       
  25 F25            3.3912    -8.0580    -1.8884 F       
  26 N26            9.4151     4.4812    -2.8348 N.pl3   
  27 C27            9.7766     5.4508    -1.9119 C.2     
  28 N28           10.8163     6.2200    -2.0109 N.2     
  29 S29            8.9128     5.8118    -0.4813 S.3     
  30 C30           10.0897     7.0572    -0.0720 C.2     
  31 C31           11.0095     7.0910    -1.0370 C.2     
  32 C32           -0.6630    -7.4359     0.7876 C.3     
  33 H33            4.9767    -2.0944    -0.7241 H       
  34 H34            2.4784     1.2619     0.1511 H       
  35 H35            4.9272     1.4687     0.2561 H       
  36 H36            5.9675     0.0711    -0.1083 H       
  37 H37            6.9617     1.9040    -0.0006 H       
  38 H38           -0.1992    -2.4165     0.2612 H       
  39 H39           -0.6642    -4.7560     1.1170 H       
  40 H40            2.2701    -3.8033    -1.8436 H       
  41 H41            2.5004    -6.1932    -2.3826 H       
  42 H42            5.7580     2.0881    -4.0966 H       
  43 H43            7.6315     3.6087    -4.5803 H       
  44 H44            8.8336     3.4277    -0.4806 H       
  45 H45            2.1147    -9.5658    -2.3971 H       
  46 H46            9.9010     4.4019    -3.6705 H       
  47 H47           10.0678     7.6864     0.8055 H       
  48 H48           11.8461     7.7738    -1.0222 H       
  49 H49           -0.1206    -7.7675     1.6730 H       
  50 H50           -1.6116    -6.9909     1.0881 H       
  51 H51           -0.8520    -8.2894     0.1365 H       
@<TRIPOS>BOND
   1    1    2 ar
   2    1    6 ar
   3    2    3 ar
   4    2   11 1
   5    3    4 ar
   6    4    5 ar
   7    4   33 1
   8    5    6 ar
   9    5    7 1
  10    6   34 1
  11    7    8 1
  12    7   35 1
  13    7   36 1
  14    8    9 1
  15    9   19 ar
  16    9   10 ar
  17   10   22 ar
  18   10   37 1
  19   11   12 1
  20   11   38 1
  21   12   13 ar
  22   12   14 ar
  23   13   17 ar
  24   13   39 1
  25   14   15 ar
  26   14   40 1
  27   15   16 ar
  28   15   41 1
  29   16   17 ar
  30   16   18 1
  31   17   32 1
  32   18   23 1
  33   19   20 ar
  34   19   42 1
  35   20   21 ar
  36   20   43 1
  37   21   22 ar
  38   21   26 1
  39   22   44 1
  40   23   24 1
  41   23   25 1
  42   23   45 1
  43   26   27 1
  44   26   46 1
  45   27   28 2
  46   27   29 1
  47   28   31 1
  48   29   30 1
  49   30   31 2
  50   30   47 1
  51   31   48 1
  52   32   49 1
  53   32   50 1
  54   32   51 1

#	End of record

