#	Name: ASD14870010
#	Creating user name:	WinNT
#	Creation time:	15. 06. 2019 21:31

#	Modifying user name:	WinNT
#	Modification time:	15. 06. 2019 21:31

#	Program:	/corina/corina34_cracker 3.40 0067  02.08.2006

@<TRIPOS>MOLECULE
ASD14870010
  57   59    0    0    0
SMALL
NO_CHARGES


@<TRIPOS>ATOM
   1 C1            -0.0167     1.3781     0.0096 C.ar    
   2 C2             0.0021    -0.0041     0.0020 C.ar    
   3 C3             1.2084    -0.6789    -0.0132 C.ar    
   4 C4             2.3961     0.0285    -0.0212 C.ar    
   5 C5             2.3773     1.4107    -0.0145 C.ar    
   6 C6             1.1709     2.0855     0.0021 C.ar    
   7 C7             1.1505     3.5924     0.0089 C.3     
   8 C8             1.8789     4.1067     1.2522 C.3     
   9 C9             1.8505     4.1176    -1.2461 C.3     
  10 C10           -0.2987     4.0827     0.0274 C.3     
  11 C11           -0.3195     5.6125     0.0343 C.3     
  12 S12            1.2323    -2.4407    -0.0217 S.o2    
  13 O13            2.4928    -2.8275     0.5084 O.2     
  14 O14           -0.0063    -2.8615     0.5331 O.2     
  15 N15            1.2232    -2.9234    -1.6058 N.am    
  16 C16            2.3604    -2.6084    -2.4740 C.3     
  17 C17            2.2861    -3.4622    -3.7415 C.3     
  18 S18            3.6942    -3.0722    -4.8166 S.3     
  19 C19            3.4349    -4.1649    -6.2411 C.3     
  20 S20            1.9110    -3.6947    -7.1143 S.3     
  21 C21            2.4017    -2.2436    -7.9896 C.ar    
  22 C22            3.7410    -1.9427    -8.2122 C.ar    
  23 N23            4.7922    -2.7431    -7.7568 N.pl3   
  24 C24            4.5782    -4.0096    -7.2280 C.2     
  25 C25            5.3373    -5.0349    -7.5688 C.2     
  26 C26            1.4125    -1.3882    -8.4644 C.ar    
  27 C27            1.7523    -0.2444    -9.1594 C.ar    
  28 C28            3.0828     0.0543    -9.3869 C.ar    
  29 C29            4.0712    -0.7871    -8.9180 C.ar    
  30 H30           -0.9592     1.9054     0.0170 H       
  31 H31           -0.9258    -0.5567     0.0083 H       
  32 H32            3.3386    -0.4987    -0.0324 H       
  33 H33            3.3052     1.9634    -0.0205 H       
  34 H34            2.9113     3.7574     1.2390 H       
  35 H35            1.8641     5.1966     1.2571 H       
  36 H36            1.3801     3.7325     2.1463 H       
  37 H37            1.3316     3.7511    -2.1319 H       
  38 H38            1.8358     5.2075    -1.2412 H       
  39 H39            2.8830     3.7683    -1.2593 H       
  40 H40           -0.8176     3.7162    -0.8583 H       
  41 H41           -0.7974     3.7085     0.9215 H       
  42 H42           -1.3519     5.9618     0.0475 H       
  43 H43            0.1994     5.9789     0.9201 H       
  44 H44            0.1793     5.9867    -0.8598 H       
  45 H45            0.4650    -3.4147    -1.9587 H       
  46 H46            2.3295    -1.5530    -2.7446 H       
  47 H47            3.2902    -2.8212    -1.9466 H       
  48 H48            2.3170    -4.5176    -3.4709 H       
  49 H49            1.3563    -3.2494    -4.2690 H       
  50 H50            3.3679    -5.2005    -5.9077 H       
  51 H51            5.6993    -2.4039    -7.8119 H       
  52 H52            6.1449    -4.8985    -8.2727 H       
  53 H53            5.1505    -6.0099    -7.1435 H       
  54 H54            0.3725    -1.6203    -8.2887 H       
  55 H55            0.9797     0.4162    -9.5244 H       
  56 H56            3.3492     0.9475    -9.9326 H       
  57 H57            5.1087    -0.5483    -9.0996 H       
@<TRIPOS>BOND
   1    1    2 ar
   2    1    6 ar
   3    1   30 1
   4    2    3 ar
   5    2   31 1
   6    3    4 ar
   7    3   12 1
   8    4    5 ar
   9    4   32 1
  10    5    6 ar
  11    5   33 1
  12    6    7 1
  13    7    8 1
  14    7    9 1
  15    7   10 1
  16    8   34 1
  17    8   35 1
  18    8   36 1
  19    9   37 1
  20    9   38 1
  21    9   39 1
  22   10   11 1
  23   10   40 1
  24   10   41 1
  25   11   42 1
  26   11   43 1
  27   11   44 1
  28   12   13 2
  29   12   14 2
  30   12   15 am
  31   15   16 1
  32   15   45 1
  33   16   17 1
  34   16   46 1
  35   16   47 1
  36   17   18 1
  37   17   48 1
  38   17   49 1
  39   18   19 1
  40   19   20 1
  41   19   24 1
  42   19   50 1
  43   20   21 1
  44   21   22 ar
  45   21   26 ar
  46   22   23 1
  47   22   29 ar
  48   23   24 1
  49   23   51 1
  50   24   25 2
  51   25   52 1
  52   25   53 1
  53   26   27 ar
  54   26   54 1
  55   27   28 ar
  56   27   55 1
  57   28   29 ar
  58   28   56 1
  59   29   57 1

#	End of record

