#	Name: ASD10160078
#	Creating user name:	WinNT
#	Creation time:	15. 06. 2019 21:25

#	Modifying user name:	WinNT
#	Modification time:	15. 06. 2019 21:25

#	Program:	/corina/corina34_cracker 3.40 0067  02.08.2006

@<TRIPOS>MOLECULE
ASD10160078
  39   40    0    0    0
SMALL
NO_CHARGES


@<TRIPOS>ATOM
   1 C1            -0.3976     1.1110    -1.9433 C.2     
   2 C2            -0.2777    -0.2687    -1.4375 C.ar    
   3 C3             0.9061    -0.9890    -1.6362 C.ar    
   4 C4             1.0135    -2.2804    -1.1608 C.ar    
   5 C5            -0.0504    -2.8647    -0.4867 C.ar    
   6 C6            -1.2300    -2.1517    -0.2873 C.ar    
   7 C7            -1.3440    -0.8598    -0.7529 C.ar    
   8 O8             0.5328     1.6250    -2.5340 O.2     
   9 N9            -1.5403     1.8006    -1.7557 N.am    
  10 S10           -1.6749     3.3503    -2.3237 S.o2    
  11 O11           -2.9777     3.7568    -1.9276 O.2     
  12 O12           -0.5187     4.0083    -1.8244 O.2     
  13 C13           -1.5819     3.1809    -4.1274 C.3     
  14 F14           -2.2622    -2.7257     0.3685 F       
  15 F15            1.9416    -0.4212    -2.2924 F       
  16 O16            0.0593    -4.1349    -0.0209 O.3     
  17 C17            1.5483    -5.5223    -1.2596 C.ar    
  18 C18            1.2625    -4.7569    -0.1403 C.ar    
  19 C19            2.2225    -4.6323     0.8601 C.ar    
  20 C20            3.4339    -5.2828     0.6959 C.ar    
  21 C21            3.6490    -6.0330    -0.4539 C.ar    
  22 N22            2.7136    -6.1287    -1.3832 N.ar    
  23 O23            4.8334    -6.6744    -0.6250 O.3     
  24 C24            4.9944    -7.4295    -1.8275 C.3     
  25 C25            6.3813    -8.0755    -1.8422 C.3     
  26 F26            7.3608    -7.0785    -1.7830 F       
  27 F27            6.5122    -8.9241    -0.7376 F       
  28 Cl28           4.6682    -5.1623     1.9107 Cl      
  29 H29            1.9261    -2.8373    -1.3138 H       
  30 H30           -2.2574    -0.3061    -0.5932 H       
  31 H31           -2.2838     1.3892    -1.2879 H       
  32 H32           -2.3979     2.5476    -4.4755 H       
  33 H33           -1.6631     4.1648    -4.5894 H       
  34 H34           -0.6287     2.7285    -4.4012 H       
  35 H35            0.8068    -5.6273    -2.0378 H       
  36 H36            2.0273    -4.0419     1.7431 H       
  37 H37            4.2312    -8.2064    -1.8736 H       
  38 H38            4.8924    -6.7684    -2.6881 H       
  39 H39            6.5041    -8.6515    -2.7594 H       
@<TRIPOS>BOND
   1    1    2 1
   2    1    8 2
   3    1    9 am
   4    2    3 ar
   5    2    7 ar
   6    3    4 ar
   7    3   15 1
   8    4    5 ar
   9    4   29 1
  10    5    6 ar
  11    5   16 1
  12    6    7 ar
  13    6   14 1
  14    7   30 1
  15    9   10 am
  16    9   31 1
  17   10   11 2
  18   10   12 2
  19   10   13 1
  20   13   32 1
  21   13   33 1
  22   13   34 1
  23   16   18 1
  24   17   18 ar
  25   17   22 ar
  26   17   35 1
  27   18   19 ar
  28   19   20 ar
  29   19   36 1
  30   20   21 ar
  31   20   28 1
  32   21   22 ar
  33   21   23 1
  34   23   24 1
  35   24   25 1
  36   24   37 1
  37   24   38 1
  38   25   26 1
  39   25   27 1
  40   25   39 1

#	End of record

