#	Name: ASD10420120
#	Creating user name:	WinNT
#	Creation time:	15. 06. 2019 21:27

#	Modifying user name:	WinNT
#	Modification time:	15. 06. 2019 21:27

#	Program:	/corina/corina34_cracker 3.40 0067  02.08.2006

@<TRIPOS>MOLECULE
ASD10420120
  17   17    0    0    0
SMALL
NO_CHARGES


@<TRIPOS>ATOM
   1 C1            -0.0164     1.3548     0.0095 C.ar    
   2 O2             0.0021    -0.0041     0.0020 O.3     
   3 C3             1.1747     2.0658     0.0019 C.ar    
   4 N4             2.4675     1.3451    -0.0143 N.pl3   
   5 C5             1.1532     3.4473     0.0091 C.ar    
   6 C6            -0.0539     4.1209     0.0237 C.ar    
   7 N7            -0.0739     5.6010     0.0314 N.pl3   
   8 C8            -1.2426     3.4144     0.0308 C.ar    
   9 C9            -1.2266     2.0333     0.0189 C.ar    
  10 O10            3.5130     1.9699    -0.0209 O.2     
  11 O11            2.4858     0.1272    -0.0209 O.2     
  12 O12            0.9725     6.2243     0.0247 O.2     
  13 O13           -1.1369     6.1956     0.0443 O.2     
  14 H14            0.0158    -0.4021     0.8832 H       
  15 H15            2.0803     4.0013     0.0036 H       
  16 H16           -2.1844     3.9430     0.0419 H       
  17 H17           -2.1553     1.4820     0.0206 H       
@<TRIPOS>BOND
   1    1    2 1
   2    1    3 ar
   3    1    9 ar
   4    2   14 1
   5    3    4 1
   6    3    5 ar
   7    4   10 2
   8    4   11 2
   9    5    6 ar
  10    5   15 1
  11    6    7 1
  12    6    8 ar
  13    7   12 2
  14    7   13 2
  15    8    9 ar
  16    8   16 1
  17    9   17 1

#	End of record

