#	Name: ASD10420159
#	Creating user name:	WinNT
#	Creation time:	15. 06. 2019 21:27

#	Modifying user name:	WinNT
#	Modification time:	15. 06. 2019 21:27

#	Program:	/corina/corina34_cracker 3.40 0067  02.08.2006

@<TRIPOS>MOLECULE
ASD10420159
  29   30    0    0    0
SMALL
NO_CHARGES


@<TRIPOS>ATOM
   1 C1            -0.0168     1.3852     0.0097 C.ar    
   2 C2             0.0021    -0.0041     0.0020 C.ar    
   3 C3             1.2043    -0.6793    -0.0131 C.ar    
   4 C4             2.4052     0.0360    -0.0208 C.ar    
   5 C5             2.3813     1.4335    -0.0131 C.ar    
   6 C6             1.1744     2.1003     0.0021 C.ar    
   7 O7            -1.2040     2.0465     0.0189 O.3     
   8 Br8            1.1404     3.9910     0.0120 Br      
   9 Br9           -1.6234    -0.9703     0.0130 Br      
  10 C10            3.6922    -0.6810    -0.0365 C.2     
  11 C11            4.8450     0.0083    -0.0439 C.2     
  12 C12            6.1319    -0.7086    -0.0596 C.ar    
  13 C13            7.3328     0.0072    -0.0672 C.ar    
  14 C14            8.5341    -0.6667    -0.0814 C.ar    
  15 C15            8.5533    -2.0574    -0.0886 C.ar    
  16 C16            7.3607    -2.7731    -0.0815 C.ar    
  17 C17            6.1555    -2.1064    -0.0610 C.ar    
  18 N18            9.7721    -2.7364    -0.1034 N.pl3   
  19 H19            1.2180    -1.7592    -0.0187 H       
  20 H20            3.3068     1.9902    -0.0186 H       
  21 H21           -1.5434     2.2331     0.9049 H       
  22 H22            3.7088    -1.7609    -0.0421 H       
  23 H23            4.8284     1.0882    -0.0383 H       
  24 H24            7.3187     1.0871    -0.0624 H       
  25 H25            9.4622    -0.1145    -0.0874 H       
  26 H26            7.3797    -3.8529    -0.0878 H       
  27 H27            5.2299    -2.6629    -0.0506 H       
  28 H28           10.6046    -2.2386    -0.1087 H       
  29 H29            9.7870    -3.7063    -0.1085 H       
@<TRIPOS>BOND
   1    1    2 ar
   2    1    6 ar
   3    1    7 1
   4    2    3 ar
   5    2    9 1
   6    3    4 ar
   7    3   19 1
   8    4    5 ar
   9    4   10 1
  10    5    6 ar
  11    5   20 1
  12    6    8 1
  13    7   21 1
  14   10   11 2
  15   10   22 1
  16   11   12 1
  17   11   23 1
  18   12   13 ar
  19   12   17 ar
  20   13   14 ar
  21   13   24 1
  22   14   15 ar
  23   14   25 1
  24   15   16 ar
  25   15   18 1
  26   16   17 ar
  27   16   26 1
  28   17   27 1
  29   18   28 1
  30   18   29 1

#	End of record

