#	Name: ASD10220014
#	Creating user name:	WinNT
#	Creation time:	15. 06. 2019 21:26

#	Modifying user name:	WinNT
#	Modification time:	15. 06. 2019 21:26

#	Program:	/corina/corina34_cracker 3.40 0067  02.08.2006

@<TRIPOS>MOLECULE
ASD10220014
  39   41    0    0    0
SMALL
NO_CHARGES


@<TRIPOS>ATOM
   1 C1             0.1592     3.5835    -0.3738 C.2     
   2 C2             0.3959     4.8506    -0.9566 C.2     
   3 C3            -0.6228     5.6703    -1.3005 C.2     
   4 C4            -2.0219     5.2989    -1.0922 C.2     
   5 C5            -2.3362     4.0732    -0.5266 C.2     
   6 C6            -1.2590     3.1470    -0.1429 C.2     
   7 O7            -3.1772     5.9405    -1.3508 O.3     
   8 C8            -4.2327     5.2085    -0.9884 C.2     
   9 C9            -3.8004     4.0206    -0.4612 C.2     
  10 O10           -1.5085     2.0687     0.3534 O.2     
  11 O11            1.0865     2.8593    -0.0703 O.2     
  12 C12           -4.6313     2.9214     0.0611 C.2     
  13 O13           -4.1122     1.8748     0.4002 O.2     
  14 C14           -6.0929     3.0903     0.1728 C.ar    
  15 C15           -6.6367     4.3600     0.3879 C.ar    
  16 C16           -8.0059     4.5153     0.4916 C.ar    
  17 Cl17          -0.2587     7.2119    -2.0110 Cl      
  18 C18           -8.8439     3.4081     0.3825 C.ar    
  19 C19           -8.3047     2.1418     0.1683 C.ar    
  20 C20           -6.9366     1.9816     0.0580 C.ar    
  21 O21          -10.1898     3.5635     0.4858 O.3     
  22 C22          -10.9080     3.8188    -0.7229 C.3     
  23 O23           -9.1258     1.0628     0.0627 O.3     
  24 C24           -8.5053    -0.2056    -0.1568 C.3     
  25 O25           -8.5356     5.7502     0.7008 O.3     
  26 C26           -7.6180     6.8409     0.8033 C.3     
  27 Cl27           2.0304     5.3645    -1.2357 Cl      
  28 H28           -5.2654     5.5061    -1.0943 H       
  29 H29           -5.9873     5.2187     0.4732 H       
  30 H30           -6.5191     0.9996    -0.1085 H       
  31 H31          -11.9699     3.9221    -0.4997 H       
  32 H32          -10.5408     4.7396    -1.1761 H       
  33 H33          -10.7612     2.9896    -1.4149 H       
  34 H34           -7.9386    -0.1766    -1.0875 H       
  35 H35           -7.8328    -0.4292     0.6713 H       
  36 H36           -9.2712    -0.9784    -0.2217 H       
  37 H37           -8.1702     7.7659     0.9692 H       
  38 H38           -6.9397     6.6678     1.6388 H       
  39 H39           -7.0442     6.9209    -0.1200 H       
@<TRIPOS>BOND
   1    1    2 1
   2    1   11 2
   3    1    6 1
   4    2    3 2
   5    2   27 1
   6    3    4 1
   7    3   17 1
   8    4    5 2
   9    4    7 1
  10    5    6 1
  11    5    9 1
  12    6   10 2
  13    7    8 1
  14    8    9 2
  15    8   28 1
  16    9   12 1
  17   12   13 2
  18   12   14 1
  19   14   15 ar
  20   14   20 ar
  21   15   16 ar
  22   15   29 1
  23   16   18 ar
  24   16   25 1
  25   18   19 ar
  26   18   21 1
  27   19   20 ar
  28   19   23 1
  29   20   30 1
  30   21   22 1
  31   22   31 1
  32   22   32 1
  33   22   33 1
  34   23   24 1
  35   24   34 1
  36   24   35 1
  37   24   36 1
  38   25   26 1
  39   26   37 1
  40   26   38 1
  41   26   39 1

#	End of record

