#	Name: ASD10410183
#	Creating user name:	WinNT
#	Creation time:	15. 06. 2019 21:27

#	Modifying user name:	WinNT
#	Modification time:	15. 06. 2019 21:27

#	Program:	/corina/corina34_cracker 3.40 0067  02.08.2006

@<TRIPOS>MOLECULE
ASD10410183
  70   76    0    0    0
SMALL
NO_CHARGES


@<TRIPOS>ATOM
   1 C1            -0.0257     1.4157     0.0030 C.ar    
   2 C2            -0.0120     0.0345     0.1348 C.ar    
   3 C3             1.1988    -0.6419     0.2397 C.ar    
   4 C4             2.3876     0.0624     0.2127 C.ar    
   5 C5             2.3722     1.4452     0.0807 C.ar    
   6 C6             1.1631     2.1194    -0.0240 C.ar    
   7 F7             1.2127    -1.9867     0.3685 F       
   8 N8             3.5764     2.1593     0.0538 N.pl3   
   9 C9             3.6755     3.3313    -0.6954 C.2     
  10 N10            4.7087     4.1386    -0.7106 N.2     
  11 N11            2.7336     3.8081    -1.5178 N.2     
  12 C12            3.1493     4.9298    -2.0657 C.2     
  13 N13            4.3966     5.1883    -1.5897 N.pl3   
  14 C14            5.2040     6.2772    -1.9105 C.ar    
  15 N15            2.4452     5.7051    -2.9668 N.pl3   
  16 N16           -1.2180    -0.6788     0.1626 N.3     
  17 C17           -2.0591    -0.2476     1.2878 C.3     
  18 C18           -3.3277    -1.1028     1.3300 C.3     
  19 N19           -4.0481    -0.9690     0.0562 N.3     
  20 C20           -3.2070    -1.4003    -1.0691 C.3     
  21 C21           -1.9384    -0.5450    -1.1113 C.3     
  22 C22           -4.2245    -0.6295     2.4757 C.3     
  23 N23            4.7816     7.2022    -2.7628 N.ar    
  24 C24            5.5431     8.2365    -3.0705 C.ar    
  25 N25            6.7381     8.4080    -2.5630 N.ar    
  26 C26            7.2580     7.5209    -1.6856 C.ar    
  27 C27            6.4747     6.4170    -1.3336 C.ar    
  28 C28           -5.3123    -1.7167     0.0853 C.3     
  29 C29           -6.4181    -0.8870     0.8063 C.3     
  30 C30           -5.8503    -1.9216    -1.3493 C.3     
  31 C31           -7.2306    -1.1964    -1.3599 C.3     
  32 C32           -7.6080    -1.8813     0.9699 C.3     
  33 C33           -8.1461    -2.0862    -0.4647 C.3     
  34 C34           -6.9393    -0.0039    -0.3819 C.3     
  35 C35            8.5030     7.5240    -1.0371 C.2     
  36 C36            8.7306     6.5056    -0.2229 C.2     
  37 S37            7.3556     5.4144    -0.1903 S.3     
  38 C38            9.5167     8.6177    -1.2546 C.3     
  39 H39           -0.9657     1.9405    -0.0830 H       
  40 H40            3.3281    -0.4620     0.2945 H       
  41 H41            1.1517     3.1944    -0.1266 H       
  42 H42            4.3417     1.8387     0.5562 H       
  43 H43            1.5575     5.4349    -3.2493 H       
  44 H44            2.8387     6.5196    -3.3169 H       
  45 H45           -1.5082    -0.3679     2.2206 H       
  46 H46           -2.3309     0.8000     1.1581 H       
  47 H47           -3.0573    -2.1470     1.4870 H       
  48 H48           -2.9352    -2.4478    -0.9394 H       
  49 H49           -3.7579    -1.2800    -2.0019 H       
  50 H50           -2.2088     0.4991    -1.2683 H       
  51 H51           -1.2995    -0.8822    -1.9275 H       
  52 H52           -4.4953     0.4144     2.3177 H       
  53 H53           -5.1278    -1.2387     2.5055 H       
  54 H54           -3.6891    -0.7270     3.4202 H       
  55 H55            5.1657     8.9695    -3.7682 H       
  56 H56           -5.1734    -2.6772     0.5817 H       
  57 H57           -6.1074    -0.3629     1.7102 H       
  58 H58           -5.1769    -1.4675    -2.0762 H       
  59 H59           -5.9775    -2.9836    -1.5594 H       
  60 H60           -7.6275    -0.9417    -2.3427 H       
  61 H61           -7.2585    -2.8274     1.3833 H       
  62 H62           -8.3796    -1.4491     1.6070 H       
  63 H63           -9.1822    -1.7547    -0.5329 H       
  64 H64           -8.0611    -3.1330    -0.7565 H       
  65 H65           -7.8464     0.5405    -0.1194 H       
  66 H66           -6.1660     0.6610    -0.7669 H       
  67 H67            9.6379     6.3662     0.3461 H       
  68 H68            9.3539     9.4137    -0.5280 H       
  69 H69           10.5208     8.2122    -1.1306 H       
  70 H70            9.4085     9.0181    -2.2626 H       
@<TRIPOS>BOND
   1    1    2 ar
   2    1    6 ar
   3    1   39 1
   4    2    3 ar
   5    2   16 1
   6    3    4 ar
   7    3    7 1
   8    4    5 ar
   9    4   40 1
  10    5    6 ar
  11    5    8 1
  12    6   41 1
  13    8    9 1
  14    8   42 1
  15    9   10 2
  16    9   11 1
  17   10   13 1
  18   11   12 2
  19   12   13 1
  20   12   15 1
  21   13   14 1
  22   14   23 ar
  23   14   27 ar
  24   15   43 1
  25   15   44 1
  26   16   17 1
  27   16   21 1
  28   17   18 1
  29   17   45 1
  30   17   46 1
  31   18   19 1
  32   18   22 1
  33   18   47 1
  34   19   20 1
  35   19   28 1
  36   20   21 1
  37   20   48 1
  38   20   49 1
  39   21   50 1
  40   21   51 1
  41   22   52 1
  42   22   53 1
  43   22   54 1
  44   23   24 ar
  45   24   25 ar
  46   24   55 1
  47   25   26 ar
  48   26   27 ar
  49   26   35 1
  50   27   37 1
  51   28   29 1
  52   28   30 1
  53   28   56 1
  54   29   32 1
  55   29   34 1
  56   29   57 1
  57   30   31 1
  58   30   58 1
  59   30   59 1
  60   31   33 1
  61   31   34 1
  62   31   60 1
  63   32   33 1
  64   32   61 1
  65   32   62 1
  66   33   63 1
  67   33   64 1
  68   34   65 1
  69   34   66 1
  70   35   36 2
  71   35   38 1
  72   36   37 1
  73   36   67 1
  74   38   68 1
  75   38   69 1
  76   38   70 1

#	End of record

