#	Name: ASD11030027
#	Creating user name:	WinNT
#	Creation time:	15. 06. 2019 21:29

#	Modifying user name:	WinNT
#	Modification time:	15. 06. 2019 21:29

#	Program:	/corina/corina34_cracker 3.40 0067  02.08.2006

@<TRIPOS>MOLECULE
ASD11030027
  25   26    0    0    0
SMALL
NO_CHARGES


@<TRIPOS>ATOM
   1 N1             0.3718     1.0222     1.9503 N.pl3   
   2 C2             0.2925    -0.2827     1.4514 C.ar    
   3 C3             1.3692    -0.8314     0.7672 C.ar    
   4 C4             1.2902    -2.1193     0.2750 C.ar    
   5 C5             0.1354    -2.8646     0.4635 C.ar    
   6 C6            -0.9405    -2.3172     1.1469 C.ar    
   7 C7            -0.8607    -1.0316     1.6451 C.ar    
   8 O8             0.0581    -4.1324    -0.0222 O.3     
   9 C9            -1.1273    -4.7871     0.0897 C.ar    
  10 C10           -2.0821    -4.6720    -0.9106 C.ar    
  11 C11           -3.2863    -5.3386    -0.7944 C.ar    
  12 C12           -3.5410    -6.1198     0.3178 C.ar    
  13 C13           -2.5915    -6.2358     1.3163 C.ar    
  14 C14           -1.3830    -5.5766     1.2019 C.ar    
  15 H15            1.1790     1.5437     1.8183 H       
  16 H16           -0.3819     1.4066     2.4247 H       
  17 H17            2.2680    -0.2510     0.6197 H       
  18 H18            2.1274    -2.5462    -0.2572 H       
  19 H19           -1.8393    -2.8979     1.2930 H       
  20 H20           -1.6983    -0.6056     2.1774 H       
  21 H21           -1.8839    -4.0614    -1.7792 H       
  22 H22           -4.0297    -5.2494    -1.5727 H       
  23 H23           -4.4833    -6.6399     0.4069 H       
  24 H24           -2.7930    -6.8463     2.1841 H       
  25 H25           -0.6417    -5.6676     1.9820 H       
@<TRIPOS>BOND
   1    1    2 1
   2    1   15 1
   3    1   16 1
   4    2    3 ar
   5    2    7 ar
   6    3    4 ar
   7    3   17 1
   8    4    5 ar
   9    4   18 1
  10    5    6 ar
  11    5    8 1
  12    6    7 ar
  13    6   19 1
  14    7   20 1
  15    8    9 1
  16    9   10 ar
  17    9   14 ar
  18   10   11 ar
  19   10   21 1
  20   11   12 ar
  21   11   22 1
  22   12   13 ar
  23   12   23 1
  24   13   14 ar
  25   13   24 1
  26   14   25 1

#	End of record

