#	Name: ASD10800038
#	Creating user name:	WinNT
#	Creation time:	15. 06. 2019 21:28

#	Modifying user name:	WinNT
#	Modification time:	15. 06. 2019 21:28

#	Program:	/corina/corina34_cracker 3.40 0067  02.08.2006

@<TRIPOS>MOLECULE
ASD10800038
  47   50    0    0    0
SMALL
NO_CHARGES


@<TRIPOS>ATOM
   1 C1            -0.0168     1.3846     0.0097 C.ar    
   2 C2             0.0021    -0.0041     0.0020 C.ar    
   3 C3             1.2057    -0.6762    -0.0131 C.ar    
   4 C4             2.4054     0.0202    -0.0208 C.ar    
   5 C5             2.4089     1.3978    -0.0135 C.ar    
   6 C6             1.1989     2.0893     0.0018 C.ar    
   7 C7             3.7133     2.1525    -0.0214 C.3     
   8 C8             4.1050     2.5090     1.4140 C.3     
   9 N9             4.7575     1.3167    -0.6192 N.pl3   
  10 C10            5.3430     3.3682     1.3983 C.ar    
  11 C11            5.2285     4.7442     1.3333 C.ar    
  12 C12            6.5929     2.7804     1.4545 C.ar    
  13 C13            7.7285     3.5685     1.4401 C.ar    
  14 C14            7.6142     4.9443     1.3689 C.ar    
  15 C15            6.3642     5.5323     1.3188 C.ar    
  16 C16            9.0911     2.9278     1.5023 C.3     
  17 C17            6.2395     7.0321     1.2413 C.3     
  18 C18            4.9175     1.2881    -1.9853 C.2     
  19 N19            5.7984     0.5924    -2.6097 N.2     
  20 S20            3.9364     2.1975    -3.1406 S.3     
  21 C21            4.7991     1.5907    -4.6263 C.3     
  22 C22            5.8676     0.6467    -4.0530 C.3     
  23 C23            0.8289     3.5097     0.0140 C.2     
  24 C24           -0.5104     3.5467     0.0275 C.2     
  25 O25           -1.0086     2.2980     0.0187 O.3     
  26 H26           -0.9256    -0.5571     0.0083 H       
  27 H27            1.2146    -1.7561    -0.0186 H       
  28 H28            3.3406    -0.5199    -0.0323 H       
  29 H29            3.6008     3.0663    -0.6049 H       
  30 H30            3.2896     3.0554     1.8881 H       
  31 H31            4.3039     1.5952     1.9740 H       
  32 H32            5.3360     0.7835    -0.0519 H       
  33 H33            4.2519     5.2036     1.2935 H       
  34 H34            6.6822     1.7056     1.5101 H       
  35 H35            8.5014     5.5600     1.3580 H       
  36 H36            9.4423     2.7219     0.4912 H       
  37 H37            9.7879     3.6034     1.9984 H       
  38 H38            9.0287     1.9948     2.0624 H       
  39 H39            6.2263     7.3421     0.1964 H       
  40 H40            5.3142     7.3453     1.7249 H       
  41 H41            7.0879     7.4938     1.7466 H       
  42 H42            4.1131     1.0430    -5.2726 H       
  43 H43            5.2615     2.4166    -5.1668 H       
  44 H44            6.8545     1.0023    -4.3490 H       
  45 H45            5.7143    -0.3539    -4.4571 H       
  46 H46            1.5011     4.3550     0.0125 H       
  47 H47           -1.1039     4.4490     0.0394 H       
@<TRIPOS>BOND
   1    1    2 ar
   2    1    6 ar
   3    1   25 1
   4    2    3 ar
   5    2   26 1
   6    3    4 ar
   7    3   27 1
   8    4    5 ar
   9    4   28 1
  10    5    6 ar
  11    5    7 1
  12    6   23 1
  13    7    8 1
  14    7    9 1
  15    7   29 1
  16    8   10 1
  17    8   30 1
  18    8   31 1
  19    9   18 1
  20    9   32 1
  21   10   11 ar
  22   10   12 ar
  23   11   15 ar
  24   11   33 1
  25   12   13 ar
  26   12   34 1
  27   13   14 ar
  28   13   16 1
  29   14   15 ar
  30   14   35 1
  31   15   17 1
  32   16   36 1
  33   16   37 1
  34   16   38 1
  35   17   39 1
  36   17   40 1
  37   17   41 1
  38   18   19 2
  39   18   20 1
  40   19   22 1
  41   20   21 1
  42   21   22 1
  43   21   42 1
  44   21   43 1
  45   22   44 1
  46   22   45 1
  47   23   24 2
  48   23   46 1
  49   24   25 1
  50   24   47 1

#	End of record

