#	Name: ASD10610002
#	Creating user name:	WinNT
#	Creation time:	15. 06. 2019 21:27

#	Modifying user name:	WinNT
#	Modification time:	15. 06. 2019 21:27

#	Program:	/corina/corina34_cracker 3.40 0067  02.08.2006

@<TRIPOS>MOLECULE
ASD10610002
  57   61    0    0    0
SMALL
NO_CHARGES


@<TRIPOS>ATOM
   1 O1            -0.3546     1.3182    -0.3422 O.3     
   2 N2            -0.8180     0.2639    -0.7097 N.2     
   3 C3            -1.3069     0.3397    -1.9132 C.2     
   4 C4            -1.1042     1.6684    -2.3479 C.2     
   5 C5            -0.4796     2.2679    -1.2884 C.2     
   6 C6            -0.0339     3.6713    -1.2004 C.2     
   7 O7            -0.2122     4.4257    -2.1370 O.2     
   8 N8             0.5709     4.1173    -0.0815 N.am    
   9 O9            -0.1047     6.5016     1.2924 O.3     
  10 C10            0.0573     6.5872    -0.1293 C.3     
  11 C11            1.1120     5.4779    -0.0341 C.3     
  12 C12            1.2558     6.0580     1.3784 C.3     
  13 C13            2.3143     5.6786    -0.9202 C.2     
  14 N14            3.2094     4.6834    -1.0773 N.am    
  15 O15            2.4763     6.7358    -1.4921 O.2     
  16 C16            4.4330     4.9138    -1.8493 C.3     
  17 C17            4.1471     4.6933    -3.3361 C.3     
  18 C18            5.5017     3.9530    -1.3954 C.ar    
  19 C19            6.7882     4.4181    -1.1749 C.ar    
  20 C20            7.7668     3.5298    -0.7571 C.ar    
  21 C21            7.4112     2.1903    -0.5742 C.ar    
  22 C22            6.0948     1.8027    -0.8176 C.ar    
  23 N23            5.1969     2.6836    -1.2089 N.ar    
  24 F24            7.0853     5.7221    -1.3654 F       
  25 C25            8.4184     1.1978    -0.1290 C.ar    
  26 C26            8.1385     0.3439     0.9500 C.ar    
  27 C27            9.0940    -0.5854     1.3594 C.ar    
  28 C28           10.3089    -0.6615     0.7031 C.ar    
  29 C29           10.5832     0.1818    -0.3604 C.ar    
  30 C30            9.6436     1.1039    -0.7818 C.ar    
  31 O31            4.9278     1.0672     2.1289 O.3     
  32 N32            5.8557     1.2515     1.3699 N.2     
  33 C33            6.8351     0.4302     1.6499 C.2     
  34 N34            6.4344    -0.3259     2.6976 N.2     
  35 C35            5.2268     0.0886     2.9890 C.2     
  36 C36            4.3405    -0.4387     4.0878 C.3     
  37 F37            8.8333    -1.4106     2.3969 F       
  38 Cl38          12.1129     0.0750    -1.1742 Cl      
  39 H39           -1.7756    -0.4576    -2.4710 H       
  40 H40           -1.3781     2.1082    -3.2955 H       
  41 H41            0.6479     3.5375     0.6922 H       
  42 H42           -0.8327     6.2916    -0.6849 H       
  43 H43            0.4630     7.5427    -0.4619 H       
  44 H44            1.9744     6.8752     1.4395 H       
  45 H45            1.4158     5.2987     2.1438 H       
  46 H46            3.0435     3.8146    -0.6791 H       
  47 H47            4.7741     5.9371    -1.6927 H       
  48 H48            5.0574     4.8647    -3.9105 H       
  49 H49            3.8059     3.6700    -3.4926 H       
  50 H50            3.3741     5.3882    -3.6643 H       
  51 H51            8.7780     3.8640    -0.5779 H       
  52 H52            5.8070     0.7708    -0.6801 H       
  53 H53           11.0476    -1.3820     1.0219 H       
  54 H54            9.8623     1.7549    -1.6153 H       
  55 H55            3.3949     0.1035     4.0837 H       
  56 H56            4.1516    -1.4998     3.9246 H       
  57 H57            4.8339    -0.3014     5.0500 H       
@<TRIPOS>BOND
   1    1    2 1
   2    1    5 1
   3    2    3 2
   4    3    4 1
   5    3   39 1
   6    4    5 2
   7    4   40 1
   8    5    6 1
   9    6    7 2
  10    6    8 am
  11    8   11 1
  12    8   41 1
  13    9   10 1
  14    9   12 1
  15   10   11 1
  16   10   42 1
  17   10   43 1
  18   11   12 1
  19   11   13 1
  20   12   44 1
  21   12   45 1
  22   13   14 am
  23   13   15 2
  24   14   16 1
  25   14   46 1
  26   16   17 1
  27   16   18 1
  28   16   47 1
  29   17   48 1
  30   17   49 1
  31   17   50 1
  32   18   19 ar
  33   18   23 ar
  34   19   20 ar
  35   19   24 1
  36   20   21 ar
  37   20   51 1
  38   21   22 ar
  39   21   25 1
  40   22   23 ar
  41   22   52 1
  42   25   26 ar
  43   25   30 ar
  44   26   27 ar
  45   26   33 1
  46   27   28 ar
  47   27   37 1
  48   28   29 ar
  49   28   53 1
  50   29   30 ar
  51   29   38 1
  52   30   54 1
  53   31   32 1
  54   31   35 1
  55   32   33 2
  56   33   34 1
  57   34   35 2
  58   35   36 1
  59   36   55 1
  60   36   56 1
  61   36   57 1

#	End of record

