#	Name: ASD11140001
#	Creating user name:	WinNT
#	Creation time:	15. 06. 2019 21:29

#	Modifying user name:	WinNT
#	Modification time:	15. 06. 2019 21:29

#	Program:	/corina/corina34_cracker 3.40 0067  02.08.2006

@<TRIPOS>MOLECULE
ASD11140001
  23   23    0    0    0
SMALL
NO_CHARGES


@<TRIPOS>ATOM
   1 O1            -0.0173     1.4248     0.0099 O.3     
   2 C2             0.0021    -0.0041     0.0020 C.3     
   3 C3             0.6933    -0.4966    -1.2721 C.3     
   4 C4             2.1083     0.0868    -1.3342 C.3     
   5 C5             2.0216     1.6150    -1.2734 C.3     
   6 C6             1.2791     2.0260     0.0007 C.3     
   7 O7            -0.0503    -0.0686    -2.4148 O.3     
   8 O8             2.7351    -0.3082    -2.5561 O.3     
   9 O9             3.3393     2.1677    -1.2576 O.3     
  10 O10            2.0158     1.5876     1.1441 O.3     
  11 C11           -1.4327    -0.5340     0.0416 C.3     
  12 F12           -2.1319    -0.0711    -1.0782 F       
  13 F13           -1.4135    -1.9329     0.0339 F       
  14 F14           -2.0646    -0.0827     1.2053 F       
  15 H15            0.5473    -0.3650     0.8741 H       
  16 H16            0.7484    -1.5852    -1.2590 H       
  17 H17            2.6910    -0.2792    -0.4889 H       
  18 H18            1.4813     1.9841    -2.1451 H       
  19 H19            1.1769     3.1108     0.0280 H       
  20 H20           -0.9593    -0.3977    -2.4384 H       
  21 H21            3.6359     0.0268    -2.6623 H       
  22 H22            3.3602     3.1337    -1.2195 H       
  23 H23            1.6025     1.8136     1.9886 H       
@<TRIPOS>BOND
   1    1    2 1
   2    1    6 1
   3    2    3 1
   4    2   11 1
   5    2   15 1
   6    3    4 1
   7    3    7 1
   8    3   16 1
   9    4    5 1
  10    4    8 1
  11    4   17 1
  12    5    6 1
  13    5    9 1
  14    5   18 1
  15    6   10 1
  16    6   19 1
  17    7   20 1
  18    8   21 1
  19    9   22 1
  20   10   23 1
  21   11   12 1
  22   11   13 1
  23   11   14 1

#	End of record

