#	Name: ASD10160552
#	Creating user name:	WinNT
#	Creation time:	15. 06. 2019 21:26

#	Modifying user name:	WinNT
#	Modification time:	15. 06. 2019 21:26

#	Program:	/corina/corina34_cracker 3.40 0067  02.08.2006

@<TRIPOS>MOLECULE
ASD10160552
  42   44    0    0    0
SMALL
NO_CHARGES


@<TRIPOS>ATOM
   1 C1            -0.0168     1.3844     0.0097 C.ar    
   2 C2             0.0021    -0.0041     0.0020 C.ar    
   3 C3             1.2236    -0.6642    -0.0132 C.ar    
   4 C4             2.3911     0.1042    -0.0203 C.ar    
   5 C5             2.2850     1.4935    -0.0118 C.ar    
   6 N6             1.1050     2.0780     0.0027 N.ar    
   7 O7            -1.1606    -0.7081     0.0098 O.3     
   8 C8            -1.0561    -2.1332     0.0011 C.3     
   9 F9            -0.3529    -2.5562     1.1342 F       
  10 F10           -2.3374    -2.6948     0.0109 F       
  11 F11           -0.3757    -2.5439    -1.1502 F       
  12 O12            5.0865     0.0482    -0.0459 O.3     
  13 B13            3.8004    -0.5875    -0.0370 Du      
  14 O14            4.0843    -1.9938    -0.0463 O.3     
  15 C15            5.2194    -2.1431     0.8323 C.3     
  16 C16            5.8989    -0.7586     0.8326 C.3     
  17 C17            7.3259    -0.8650     0.2910 C.3     
  18 C18            5.9057    -0.1684     2.2442 C.3     
  19 C19            4.7565    -2.5101     2.2437 C.3     
  20 C20            6.1766    -3.2067     0.2906 C.3     
  21 C21           -1.3380     2.1092     0.0198 C.3     
  22 C22           -1.6255     3.0375     1.2016 C.3     
  23 C23           -1.3130     3.6264    -0.1755 C.3     
  24 H24            1.2703    -1.7432    -0.0191 H       
  25 H25            3.1803     2.0975    -0.0168 H       
  26 H26            7.7714     0.1286     0.2434 H       
  27 H27            7.9189    -1.4978     0.9514 H       
  28 H28            7.3039    -1.3016    -0.7074 H       
  29 H29            4.8841    -0.1147     2.6205 H       
  30 H30            6.5017    -0.8027     2.9003 H       
  31 H31            6.3362     0.8327     2.2173 H       
  32 H32            4.2279    -3.4630     2.2165 H       
  33 H33            5.6227    -2.5937     2.9000 H       
  34 H34            4.0889    -1.7350     2.6201 H       
  35 H35            6.5087    -2.9219    -0.7078 H       
  36 H36            7.0399    -3.2888     0.9510 H       
  37 H37            5.6632    -4.1670     0.2425 H       
  38 H38           -2.1785     1.5605    -0.4052 H       
  39 H39           -2.6551     3.0998     1.5538 H       
  40 H40           -0.8589     3.1240     1.9717 H       
  41 H41           -0.3409     4.1004    -0.3114 H       
  42 H42           -2.1371     4.0762    -0.7293 H       
@<TRIPOS>BOND
   1    1    2 ar
   2    1    6 ar
   3    1   21 1
   4    2    3 ar
   5    2    7 1
   6    3    4 ar
   7    3   24 1
   8    4    5 ar
   9    4   13 1
  10    5    6 ar
  11    5   25 1
  12    7    8 1
  13    8    9 1
  14    8   10 1
  15    8   11 1
  16   12   13 1
  17   12   16 1
  18   13   14 1
  19   14   15 1
  20   15   16 1
  21   15   19 1
  22   15   20 1
  23   16   17 1
  24   16   18 1
  25   17   26 1
  26   17   27 1
  27   17   28 1
  28   18   29 1
  29   18   30 1
  30   18   31 1
  31   19   32 1
  32   19   33 1
  33   19   34 1
  34   20   35 1
  35   20   36 1
  36   20   37 1
  37   21   22 1
  38   21   23 1
  39   21   38 1
  40   22   23 1
  41   22   39 1
  42   22   40 1
  43   23   41 1
  44   23   42 1

#	End of record

