#	Name: ASD11740014
#	Creating user name:	WinNT
#	Creation time:	15. 06. 2019 21:29

#	Modifying user name:	WinNT
#	Modification time:	15. 06. 2019 21:29

#	Program:	/corina/corina34_cracker 3.40 0067  02.08.2006

@<TRIPOS>MOLECULE
ASD11740014
  48   50    0    0    0
SMALL
NO_CHARGES


@<TRIPOS>ATOM
   1 C1             0.2490     1.8378    -0.2328 C.ar    
   2 C2             0.1079     0.4669    -0.1684 C.ar    
   3 C3             1.2209    -0.3476    -0.0303 C.ar    
   4 C4             2.4814     0.2029     0.0437 C.ar    
   5 C5             2.6414     1.5897    -0.0205 C.ar    
   6 C6             1.5123     2.4117    -0.1599 C.ar    
   7 N7             1.6571     3.7914    -0.2255 N.am    
   8 S8             0.5219     4.7770     0.4690 S.o2    
   9 O9             1.0135     6.1045     0.3453 O.2     
  10 O10           -0.7368     4.3633    -0.0445 O.2     
  11 C11            3.9874     2.1855     0.0585 C.2     
  12 N12            5.0686     1.3922     0.1932 N.am    
  13 O13            4.1222     3.3929     0.0022 O.2     
  14 C14            6.3540     1.9466     0.1477 C.ar    
  15 C15            7.4272     1.2710     0.7254 C.ar    
  16 C16            8.6960     1.8241     0.6773 C.ar    
  17 C17            8.8958     3.0440     0.0573 C.ar    
  18 C18            7.8318     3.7149    -0.5159 C.ar    
  19 C19            6.5631     3.1670    -0.4773 C.ar    
  20 O20            7.2291     0.0718     1.3350 O.3     
  21 C21            8.3752    -0.5633     1.9051 C.3     
  22 C22            7.9589    -1.8911     2.5413 C.3     
  23 C23            0.4999     4.4133     2.1929 C.ar    
  24 C24            1.3296     5.1046     3.0558 C.ar    
  25 C25            1.3124     4.8192     4.4083 C.ar    
  26 C26            0.4651     3.8428     4.8979 C.ar    
  27 C27           -0.3652     3.1521     4.0351 C.ar    
  28 C28           -0.3511     3.4405     2.6832 C.ar    
  29 H29           -0.6229     2.4652    -0.3446 H       
  30 H30           -0.8762     0.0256    -0.2255 H       
  31 H31            1.0991    -1.4195     0.0199 H       
  32 H32            3.3451    -0.4365     0.1516 H       
  33 H33            2.4232     4.1777    -0.6781 H       
  34 H34            4.9566     0.4373     0.3217 H       
  35 H35            9.5295     1.3028     1.1245 H       
  36 H36            9.8859     3.4740     0.0212 H       
  37 H37            7.9926     4.6675    -0.9987 H       
  38 H38            5.7337     3.6931    -0.9263 H       
  39 H39            9.1130    -0.7499     1.1248 H       
  40 H40            8.8082     0.0846     2.6672 H       
  41 H41            7.2211    -1.7046     3.3216 H       
  42 H42            7.5258    -2.5391     1.7792 H       
  43 H43            8.8331    -2.3756     2.9761 H       
  44 H44            1.9915     5.8674     2.6733 H       
  45 H45            1.9611     5.3588     5.0824 H       
  46 H46            0.4522     3.6193     5.9544 H       
  47 H47           -1.0269     2.3891     4.4176 H       
  48 H48           -1.0025     2.9035     2.0097 H       
@<TRIPOS>BOND
   1    1    2 ar
   2    1    6 ar
   3    1   29 1
   4    2    3 ar
   5    2   30 1
   6    3    4 ar
   7    3   31 1
   8    4    5 ar
   9    4   32 1
  10    5    6 ar
  11    5   11 1
  12    6    7 1
  13    7    8 am
  14    7   33 1
  15    8    9 2
  16    8   10 2
  17    8   23 1
  18   11   12 am
  19   11   13 2
  20   12   14 1
  21   12   34 1
  22   14   15 ar
  23   14   19 ar
  24   15   16 ar
  25   15   20 1
  26   16   17 ar
  27   16   35 1
  28   17   18 ar
  29   17   36 1
  30   18   19 ar
  31   18   37 1
  32   19   38 1
  33   20   21 1
  34   21   22 1
  35   21   39 1
  36   21   40 1
  37   22   41 1
  38   22   42 1
  39   22   43 1
  40   23   24 ar
  41   23   28 ar
  42   24   25 ar
  43   24   44 1
  44   25   26 ar
  45   25   45 1
  46   26   27 ar
  47   26   46 1
  48   27   28 ar
  49   27   47 1
  50   28   48 1

#	End of record

