#	Name: ASD14290004
#	Creating user name:	WinNT
#	Creation time:	15. 06. 2019 21:31

#	Modifying user name:	WinNT
#	Modification time:	15. 06. 2019 21:31

#	Program:	/corina/corina34_cracker 3.40 0067  02.08.2006

@<TRIPOS>MOLECULE
ASD14290004
  70   72    0    0    0
SMALL
NO_CHARGES


@<TRIPOS>ATOM
   1 C1            -2.3812    10.9984    -2.1848 C.ar    
   2 C2            -3.5002    11.5996    -2.7384 C.ar    
   3 C3            -4.6256    10.8343    -3.0286 C.ar    
   4 C4            -4.6223     9.4744    -2.7626 C.ar    
   5 C5            -3.5027     8.8809    -2.2103 C.ar    
   6 C6            -2.3846     9.6412    -1.9219 C.ar    
   7 C7            -1.1667     8.9890    -1.3198 C.3     
   8 C8            -1.2705     9.0256     0.2062 C.3     
   9 O9            -0.0971     8.3972     0.7863 O.3     
  10 C10           -0.0324     8.3469     2.1261 C.2     
  11 O11           -0.9266     8.8124     2.7921 O.2     
  12 C12            1.1556     7.7096     2.7997 C.3     
  13 C13            1.2321     8.1822     4.2529 C.3     
  14 C14            1.5491     9.6641     4.2928 C.2     
  15 C15            0.3849    10.6096     4.0570 C.3     
  16 O16           -0.6514    10.2699     5.0195 O.3     
  17 C17           -0.9132     8.9752     5.2405 C.2     
  18 C18           -0.0979     7.9674     4.9281 C.2     
  19 C19            2.7618    10.1050     4.5191 C.2     
  20 C20            3.8875     9.1297     4.7485 C.3     
  21 O21            0.8080    11.9602     4.2547 O.3     
  22 C22           -0.1915    12.9335     3.9452 C.3     
  23 O23           -1.2318    12.8759     4.9233 O.3     
  24 C24           -2.3008    13.7958     4.6928 C.3     
  25 C25           -3.3637    13.6255     5.7801 C.3     
  26 C26           -1.7578    15.2266     4.7293 C.3     
  27 C27           -0.6525    15.3719     3.6787 C.3     
  28 C28            0.4364    14.3298     3.9517 C.3     
  29 O29            1.0288    14.5810     5.2276 O.3     
  30 C30           -0.4969     6.6460     5.2422 C.2     
  31 O31           -1.5375     6.4510     5.8418 O.2     
  32 O32            0.2767     5.6028     4.8766 O.3     
  33 C33           -0.2122     4.2948     5.1800 C.3     
  34 O34           -2.8136    16.1456     4.4418 O.3     
  35 O35           -1.2005    15.1608     2.3760 O.3     
  36 O36           -3.4988    12.9347    -2.9971 O.3     
  37 O37           -5.7264    11.4199    -3.5715 O.3     
  38 O38           -3.9520    12.3277     5.6721 O.3     
  39 H39           -1.1058     7.9537    -1.6551 H       
  40 H40            2.0071     7.6260     4.7801 H       
  41 H41           -1.5049    11.5893    -1.9627 H       
  42 H42           -5.4946     8.8783    -2.9866 H       
  43 H43           -3.5014     7.8208    -2.0035 H       
  44 H44           -0.2728     9.5266    -1.6362 H       
  45 H45           -1.3314    10.0610     0.5415 H       
  46 H46           -2.1644     8.4880     0.5226 H       
  47 H47            1.0486     6.6252     2.7754 H       
  48 H48            2.0674     7.9965     2.2758 H       
  49 H49            0.0048    10.4839     3.0432 H       
  50 H50           -1.8555     8.7289     5.7072 H       
  51 H51            2.9548    11.1674     4.5411 H       
  52 H52            3.9988     8.4907     3.8725 H       
  53 H53            4.8142     9.6779     4.9184 H       
  54 H54            3.6638     8.5152     5.6205 H       
  55 H55           -0.6076    12.7264     2.9593 H       
  56 H56           -2.7447    13.6000     3.7167 H       
  57 H57           -2.9008    13.7342     6.7609 H       
  58 H58           -4.1352    14.3855     5.6562 H       
  59 H59           -1.3502    15.4364     5.7182 H       
  60 H60           -0.2230    16.3720     3.7373 H       
  61 H61            1.2001    14.3893     3.1763 H       
  62 H62            1.7283    13.9574     5.4661 H       
  63 H63            0.5040     3.5497     4.8334 H       
  64 H64           -0.3451     4.1974     6.2574 H       
  65 H65           -1.1685     4.1395     4.6804 H       
  66 H66           -2.5403    17.0732     4.4481 H       
  67 H67           -0.5547    15.2379     1.6604 H       
  68 H68           -3.1822    13.1635    -3.8817 H       
  69 H69           -5.7290    11.4319    -4.5384 H       
  70 H70           -4.6362    12.1499     6.3318 H       
@<TRIPOS>BOND
   1    1    2 ar
   2    1    6 ar
   3    1   41 1
   4    2    3 ar
   5    2   36 1
   6    3    4 ar
   7    3   37 1
   8    4    5 ar
   9    4   42 1
  10    5    6 ar
  11    5   43 1
  12    6    7 1
  13    7    8 1
  14    7   39 1
  15    7   44 1
  16    8    9 1
  17    8   45 1
  18    8   46 1
  19    9   10 1
  20   10   11 2
  21   10   12 1
  22   12   13 1
  23   12   47 1
  24   12   48 1
  25   13   14 1
  26   13   18 1
  27   13   40 1
  28   14   15 1
  29   14   19 2
  30   15   16 1
  31   15   21 1
  32   15   49 1
  33   16   17 1
  34   17   18 2
  35   17   50 1
  36   18   30 1
  37   19   20 1
  38   19   51 1
  39   20   52 1
  40   20   53 1
  41   20   54 1
  42   21   22 1
  43   22   23 1
  44   22   28 1
  45   22   55 1
  46   23   24 1
  47   24   25 1
  48   24   26 1
  49   24   56 1
  50   25   38 1
  51   25   57 1
  52   25   58 1
  53   26   27 1
  54   26   34 1
  55   26   59 1
  56   27   28 1
  57   27   35 1
  58   27   60 1
  59   28   29 1
  60   28   61 1
  61   29   62 1
  62   30   31 2
  63   30   32 1
  64   32   33 1
  65   33   63 1
  66   33   64 1
  67   33   65 1
  68   34   66 1
  69   35   67 1
  70   36   68 1
  71   37   69 1
  72   38   70 1

#	End of record

