#	Name: ASD10410173
#	Creating user name:	WinNT
#	Creation time:	15. 06. 2019 21:27

#	Modifying user name:	WinNT
#	Modification time:	15. 06. 2019 21:27

#	Program:	/corina/corina34_cracker 3.40 0067  02.08.2006

@<TRIPOS>MOLECULE
ASD10410173
  85   92    0    0    0
SMALL
NO_CHARGES


@<TRIPOS>ATOM
   1 C1            -0.4948    -0.4109     2.1028 C.ar    
   2 C2            -1.4563     0.3110     2.7977 C.ar    
   3 C3            -1.1997     1.6216     3.1788 C.ar    
   4 C4             0.0113     2.2068     2.8668 C.ar    
   5 C5             0.9729     1.4848     2.1719 C.ar    
   6 C6             0.7163     0.1743     1.7908 C.ar    
   7 N7             2.2011     2.0784     1.8554 N.pl3   
   8 C8             2.2781     3.4558     1.6520 C.2     
   9 N9             3.3821     4.1336     1.4485 N.2     
  10 N10            1.2365     4.2957     1.6277 N.2     
  11 C11            1.6606     5.5227     1.4135 C.2     
  12 N12            3.0144     5.4799     1.2922 N.pl3   
  13 C13            3.8666     6.5569     1.0592 C.ar    
  14 N14            0.8709     6.6527     1.3243 N.pl3   
  15 N15           -2.6841    -0.2820     3.1136 N.3     
  16 C16           -3.5481     0.6540     3.8464 C.3     
  17 C17           -4.9063    -0.0033     4.1025 C.3     
  18 N18           -4.7111    -1.2435     4.8665 N.3     
  19 C19           -3.8471    -2.1796     4.1337 C.3     
  20 C20           -2.4889    -1.5222     3.8775 C.3     
  21 N21            3.3809     7.7828     0.9311 N.ar    
  22 C22            4.1878     8.8147     0.7088 C.ar    
  23 N23            5.4943     8.6768     0.6053 N.ar    
  24 C24            6.0767     7.4652     0.7223 C.ar    
  25 C25            5.2542     6.3597     0.9625 C.ar    
  26 C26           -5.9997    -1.8659     5.1980 C.3     
  27 C27           -6.8501    -0.9122     6.0915 C.3     
  28 C28           -5.7820    -3.1253     6.0675 C.3     
  29 C29           -6.5214    -2.8139     7.4045 C.3     
  30 C30           -5.8704    -0.4518     7.2138 C.3     
  31 C31           -5.6527    -1.7112     8.0833 C.3     
  32 C32           -7.7232    -1.9529     6.8776 C.3     
  33 C33            7.4735     7.0922     0.6437 C.2     
  34 C34            7.7145     5.8015     0.8041 C.2     
  35 S35            6.2320     4.9047     1.0755 S.3     
  36 C36            8.5689     8.0974     0.3976 C.3     
  37 C37            3.5977    10.1687     0.5718 C.ar    
  38 C38            4.4207    11.2695     0.3381 C.ar    
  39 C39            2.2198    10.3428     0.6704 C.ar    
  40 C40            1.6743    11.6117     0.5409 C.ar    
  41 C41            2.5030    12.7037     0.3134 C.ar    
  42 C42            3.8702    12.5289     0.2108 C.ar    
  43 N43            0.2924    11.7915     0.6387 N.am    
  44 S44           -0.5998    12.1068    -0.7204 S.o2    
  45 O45           -1.9398    12.1736    -0.2522 O.2     
  46 O46            0.0316    13.2408    -1.2988 O.2     
  47 C47           -0.3632    10.6438    -1.7666 C.3     
  48 H48           -0.6926    -1.4316     1.8104 H       
  49 H49           -1.9476     2.1832     3.7189 H       
  50 H50            0.2107     3.2261     3.1628 H       
  51 H51            1.4642    -0.3873     1.2507 H       
  52 H52            2.9984     1.5313     1.7777 H       
  53 H53           -0.0913     6.5809     1.4231 H       
  54 H54            1.2788     7.5179     1.1630 H       
  55 H55           -3.0825     0.9096     4.7983 H       
  56 H56           -3.6878     1.5589     3.2550 H       
  57 H57           -5.5387     0.6783     4.6712 H       
  58 H58           -5.3839    -0.2341     3.1503 H       
  59 H59           -3.7074    -3.0845     4.7251 H       
  60 H60           -4.3127    -2.4351     3.1818 H       
  61 H61           -1.8564    -2.2038     3.3089 H       
  62 H62           -2.0112    -1.2914     4.8297 H       
  63 H63           -6.5436    -2.1196     4.2881 H       
  64 H64           -7.3825    -0.1178     5.5684 H       
  65 H65           -6.2196    -3.9998     5.5860 H       
  66 H66           -4.7188    -3.2826     6.2490 H       
  67 H67           -6.7674    -3.6757     8.0249 H       
  68 H68           -4.9262    -0.1206     6.7816 H       
  69 H69           -6.3188     0.3459     7.8060 H       
  70 H70           -5.9941    -1.5326     9.1030 H       
  71 H71           -4.6014    -1.9991     8.0786 H       
  72 H72           -8.2804    -1.4878     7.6909 H       
  73 H73           -8.3750    -2.5228     6.2154 H       
  74 H74            8.6985     5.3572     0.7739 H       
  75 H75            8.9285     8.4839     1.3513 H       
  76 H76            9.3909     7.6166    -0.1327 H       
  77 H77            8.1797     8.9190    -0.2038 H       
  78 H78            5.4895    11.1369     0.2571 H       
  79 H79            1.5777     9.4926     0.8469 H       
  80 H80            2.0772    13.6911     0.2124 H       
  81 H81            4.5101    13.3809     0.0344 H       
  82 H82           -0.1446    11.7317     1.5026 H       
  83 H83           -0.6369     9.7491    -1.2073 H       
  84 H84           -0.9928    10.7252    -2.6527 H       
  85 H85            0.6821    10.5781    -2.0683 H       
@<TRIPOS>BOND
   1    1    2 ar
   2    1    6 ar
   3    1   48 1
   4    2    3 ar
   5    2   15 1
   6    3    4 ar
   7    3   49 1
   8    4    5 ar
   9    4   50 1
  10    5    6 ar
  11    5    7 1
  12    6   51 1
  13    7    8 1
  14    7   52 1
  15    8    9 2
  16    8   10 1
  17    9   12 1
  18   10   11 2
  19   11   12 1
  20   11   14 1
  21   12   13 1
  22   13   21 ar
  23   13   25 ar
  24   14   53 1
  25   14   54 1
  26   15   16 1
  27   15   20 1
  28   16   17 1
  29   16   55 1
  30   16   56 1
  31   17   18 1
  32   17   57 1
  33   17   58 1
  34   18   19 1
  35   18   26 1
  36   19   20 1
  37   19   59 1
  38   19   60 1
  39   20   61 1
  40   20   62 1
  41   21   22 ar
  42   22   23 ar
  43   22   37 1
  44   23   24 ar
  45   24   25 ar
  46   24   33 1
  47   25   35 1
  48   26   27 1
  49   26   28 1
  50   26   63 1
  51   27   30 1
  52   27   32 1
  53   27   64 1
  54   28   29 1
  55   28   65 1
  56   28   66 1
  57   29   31 1
  58   29   32 1
  59   29   67 1
  60   30   31 1
  61   30   68 1
  62   30   69 1
  63   31   70 1
  64   31   71 1
  65   32   72 1
  66   32   73 1
  67   33   34 2
  68   33   36 1
  69   34   35 1
  70   34   74 1
  71   36   75 1
  72   36   76 1
  73   36   77 1
  74   37   38 ar
  75   37   39 ar
  76   38   42 ar
  77   38   78 1
  78   39   40 ar
  79   39   79 1
  80   40   41 ar
  81   40   43 1
  82   41   42 ar
  83   41   80 1
  84   42   81 1
  85   43   44 am
  86   43   82 1
  87   44   45 2
  88   44   46 2
  89   44   47 1
  90   47   83 1
  91   47   84 1
  92   47   85 1

#	End of record

