#	Name: ASD10410116
#	Creating user name:	WinNT
#	Creation time:	15. 06. 2019 21:26

#	Modifying user name:	WinNT
#	Modification time:	15. 06. 2019 21:26

#	Program:	/corina/corina34_cracker 3.40 0067  02.08.2006

@<TRIPOS>MOLECULE
ASD10410116
  52   56    0    0    0
SMALL
NO_CHARGES


@<TRIPOS>ATOM
   1 C1            -0.0183     1.3926    -0.0800 C.ar    
   2 C2            -0.0058     0.0095     0.0248 C.ar    
   3 C3             1.2006    -0.6691     0.1149 C.ar    
   4 C4             2.3904     0.0319     0.1004 C.ar    
   5 C5             2.3788     1.4166    -0.0050 C.ar    
   6 C6             1.1705     2.0952    -0.0952 C.ar    
   7 O7            -1.1769    -0.6815     0.0396 O.3     
   8 N8             3.5843     2.1280    -0.0193 N.pl3   
   9 C9             3.6716     3.3381    -0.7066 C.2     
  10 N10            4.7103     4.1385    -0.7074 N.2     
  11 N11            2.7108     3.8648    -1.4751 N.2     
  12 C12            3.1199     5.0115    -1.9737 C.2     
  13 N13            4.3823     5.2360    -1.5198 N.pl3   
  14 C14            5.1879     6.3343    -1.8035 C.ar    
  15 N15            2.3975     5.8384    -2.8119 N.pl3   
  16 C16            6.4906     6.4319    -1.2546 C.ar    
  17 C17           -1.0898    -2.1036     0.1497 C.3     
  18 C18           -2.4977    -2.7024     0.1500 C.3     
  19 N19           -3.1368    -2.4516    -1.1487 N.3     
  20 C20           -4.3936    -3.2122    -1.2749 C.3     
  21 C21           -5.5168    -2.1944    -1.5645 C.3     
  22 C22           -4.7468    -0.9810    -2.1490 C.3     
  23 C23           -3.4368    -1.0144    -1.3229 C.3     
  24 N24            4.7513     7.3016    -2.5947 N.ar    
  25 C25            5.5051     8.3508    -2.8737 C.ar    
  26 N26            6.7178     8.4901    -2.3862 N.ar    
  27 C27            7.2475     7.5622    -1.5808 C.ar    
  28 S28            8.8136     7.4716    -0.7884 S.3     
  29 C29            8.4251     5.9305    -0.0477 C.2     
  30 C30            7.2124     5.5301    -0.3768 C.2     
  31 Cl31           4.8732     9.5848    -3.9184 Cl      
  32 H32           -0.9580     1.9199    -0.1543 H       
  33 H33            1.2095    -1.7459     0.1968 H       
  34 H34            3.3296    -0.4966     0.1713 H       
  35 H35            1.1605     3.1720    -0.1772 H       
  36 H36            4.3589     1.7791     0.4489 H       
  37 H37            1.5003     5.5894    -3.0836 H       
  38 H38            2.7875     6.6681    -3.1289 H       
  39 H39           -0.5267    -2.4996    -0.6954 H       
  40 H40           -0.5833    -2.3657     1.0786 H       
  41 H41           -2.4356    -3.7768     0.3229 H       
  42 H42           -3.0888    -2.2406     0.9409 H       
  43 H43           -4.3159    -3.9229    -2.0976 H       
  44 H44           -4.6024    -3.7402    -0.3444 H       
  45 H45           -6.2194    -2.5937    -2.2960 H       
  46 H46           -6.0322    -1.9172    -0.6450 H       
  47 H47           -4.5428    -1.1225    -3.2104 H       
  48 H48           -5.2926    -0.0531    -1.9781 H       
  49 H49           -3.5868    -0.5380    -0.3541 H       
  50 H50           -2.6316    -0.5221    -1.8683 H       
  51 H51            9.0937     5.3796     0.5972 H       
  52 H52            6.7891     4.6028    -0.0198 H       
@<TRIPOS>BOND
   1    1    2 ar
   2    1    6 ar
   3    1   32 1
   4    2    3 ar
   5    2    7 1
   6    3    4 ar
   7    3   33 1
   8    4    5 ar
   9    4   34 1
  10    5    6 ar
  11    5    8 1
  12    6   35 1
  13    7   17 1
  14    8    9 1
  15    8   36 1
  16    9   10 2
  17    9   11 1
  18   10   13 1
  19   11   12 2
  20   12   13 1
  21   12   15 1
  22   13   14 1
  23   14   16 ar
  24   14   24 ar
  25   15   37 1
  26   15   38 1
  27   16   27 ar
  28   16   30 1
  29   17   18 1
  30   17   39 1
  31   17   40 1
  32   18   19 1
  33   18   41 1
  34   18   42 1
  35   19   20 1
  36   19   23 1
  37   20   21 1
  38   20   43 1
  39   20   44 1
  40   21   22 1
  41   21   45 1
  42   21   46 1
  43   22   23 1
  44   22   47 1
  45   22   48 1
  46   23   49 1
  47   23   50 1
  48   24   25 ar
  49   25   26 ar
  50   25   31 1
  51   26   27 ar
  52   27   28 1
  53   28   29 1
  54   29   30 2
  55   29   51 1
  56   30   52 1

#	End of record

