#	Name: ASD10160233
#	Creating user name:	WinNT
#	Creation time:	15. 06. 2019 21:25

#	Modifying user name:	WinNT
#	Modification time:	15. 06. 2019 21:25

#	Program:	/corina/corina34_cracker 3.40 0067  02.08.2006

@<TRIPOS>MOLECULE
ASD10160233
  49   51    0    0    0
SMALL
NO_CHARGES


@<TRIPOS>ATOM
   1 C1            -0.0242     1.4696    -0.1063 C.2     
   2 C2            -0.0024    -0.0045    -0.0843 C.ar    
   3 C3             0.0519    -0.6877     1.1364 C.ar    
   4 C4             0.0722    -2.0678     1.1518 C.ar    
   5 C5             0.0387    -2.7779    -0.0409 C.ar    
   6 C6            -0.0154    -2.1019    -1.2574 C.ar    
   7 C7            -0.0418    -0.7245    -1.2823 C.ar    
   8 O8             0.0050     2.0938     0.9369 O.2     
   9 N9            -0.0710     2.1253    -1.2829 N.am    
  10 S10           -0.0955     3.7809    -1.3077 S.o2    
  11 O11           -0.1698     4.1097    -2.6881 O.2     
  12 O12           -1.1440     4.1293    -0.4141 O.2     
  13 C13            1.5123     4.2677    -0.6230 C.3     
  14 O14            0.0593    -4.1349    -0.0213 O.3     
  15 C15            3.6330    -5.9826    -0.3783 C.ar    
  16 N16            2.5468    -6.7126    -0.1743 N.ar    
  17 C17            1.3600    -6.1415    -0.0524 C.ar    
  18 C18            1.2627    -4.7570    -0.1412 C.ar    
  19 C19            2.4243    -4.0239    -0.3559 C.ar    
  20 N20            3.5774    -4.6626    -0.4682 N.ar    
  21 N21            4.8604    -6.6163    -0.4952 N.3     
  22 C22            5.9366    -5.6422    -0.7170 C.3     
  23 C23            7.2882    -6.3596    -0.6956 C.3     
  24 C24            7.3097    -7.4300    -1.7903 C.3     
  25 C25            6.1501    -8.4039    -1.5638 C.3     
  26 C26            4.8314    -7.6272    -1.5600 C.3     
  27 C27            0.1294    -6.9800     0.1791 C.3     
  28 F28           -0.0477    -2.7981    -2.4147 F       
  29 F29            0.0849     0.0025     2.2973 F       
  30 H30            0.1145    -2.5961     2.0928 H       
  31 H31           -0.0882    -0.2015    -2.2261 H       
  32 H32           -0.0903     1.6274    -2.1152 H       
  33 H33            2.3100     3.8631    -1.2460 H       
  34 H34            1.5839     5.3551    -0.6017 H       
  35 H35            1.6091     3.8773     0.3900 H       
  36 H36            2.3857    -2.9471    -0.4305 H       
  37 H37            5.7965    -5.1602    -1.6845 H       
  38 H38            5.9127    -4.8890     0.0706 H       
  39 H39            8.0857    -5.6387    -0.8758 H       
  40 H40            7.4351    -6.8302     0.2765 H       
  41 H41            7.2019    -6.9557    -2.7657 H       
  42 H42            8.2542    -7.9727    -1.7506 H       
  43 H43            6.1344    -9.1435    -2.3643 H       
  44 H44            6.2790    -8.9067    -0.6053 H       
  45 H45            4.0049    -8.3157    -1.3847 H       
  46 H46            4.6965    -7.1359    -2.5236 H       
  47 H47           -0.0271    -7.1075     1.2503 H       
  48 H48           -0.7365    -6.4828    -0.2580 H       
  49 H49            0.2618    -7.9561    -0.2874 H       
@<TRIPOS>BOND
   1    1    2 1
   2    1    8 2
   3    1    9 am
   4    2    3 ar
   5    2    7 ar
   6    3    4 ar
   7    3   29 1
   8    4    5 ar
   9    4   30 1
  10    5    6 ar
  11    5   14 1
  12    6    7 ar
  13    6   28 1
  14    7   31 1
  15    9   10 am
  16    9   32 1
  17   10   11 2
  18   10   12 2
  19   10   13 1
  20   13   33 1
  21   13   34 1
  22   13   35 1
  23   14   18 1
  24   15   16 ar
  25   15   20 ar
  26   15   21 1
  27   16   17 ar
  28   17   18 ar
  29   17   27 1
  30   18   19 ar
  31   19   20 ar
  32   19   36 1
  33   21   22 1
  34   21   26 1
  35   22   23 1
  36   22   37 1
  37   22   38 1
  38   23   24 1
  39   23   39 1
  40   23   40 1
  41   24   25 1
  42   24   41 1
  43   24   42 1
  44   25   26 1
  45   25   43 1
  46   25   44 1
  47   26   45 1
  48   26   46 1
  49   27   47 1
  50   27   48 1
  51   27   49 1

#	End of record

