#	Name: ASD10160362
#	Creating user name:	WinNT
#	Creation time:	15. 06. 2019 21:25

#	Modifying user name:	WinNT
#	Modification time:	15. 06. 2019 21:25

#	Program:	/corina/corina34_cracker 3.40 0067  02.08.2006

@<TRIPOS>MOLECULE
ASD10160362
  24   24    0    0    0
SMALL
NO_CHARGES


@<TRIPOS>ATOM
   1 C1            -0.0167     1.3834     0.0096 C.ar    
   2 C2             0.0021    -0.0041     0.0020 C.ar    
   3 C3             1.2267    -0.6631    -0.0133 C.ar    
   4 C4             2.3851     0.0993    -0.0203 C.ar    
   5 C5             2.2850     1.4791    -0.0119 C.ar    
   6 N6             1.1072     2.0719     0.0026 N.ar    
   7 O7            -1.1599    -0.7091     0.0098 O.3     
   8 Cl8            3.9420    -0.6684    -0.0388 Cl      
   9 C9             3.5385     2.3156    -0.0194 C.3     
  10 C10            4.3510     2.0055    -1.2782 C.3     
  11 C11            3.1621     3.7985    -0.0079 C.3     
  12 C12            4.3750     1.9921     1.2201 C.3     
  13 H13           -0.9625     1.9047     0.0170 H       
  14 H14            1.2743    -1.7420    -0.0192 H       
  15 H15           -1.5049    -0.9084    -0.8713 H       
  16 H16            3.7551     2.2360    -2.1613 H       
  17 H17            5.2577     2.6106    -1.2836 H       
  18 H18            4.6192     0.9490    -1.2864 H       
  19 H19            2.5832     4.0194     0.8889 H       
  20 H20            4.0687     4.4036    -0.0133 H       
  21 H21            2.5661     4.0290    -0.8909 H       
  22 H22            4.6432     0.9356     1.2119 H       
  23 H23            5.2816     2.5971     1.2147 H       
  24 H24            3.7961     2.2130     2.1169 H       
@<TRIPOS>BOND
   1    1    2 ar
   2    1    6 ar
   3    1   13 1
   4    2    3 ar
   5    2    7 1
   6    3    4 ar
   7    3   14 1
   8    4    5 ar
   9    4    8 1
  10    5    6 ar
  11    5    9 1
  12    7   15 1
  13    9   10 1
  14    9   12 1
  15    9   11 1
  16   10   16 1
  17   10   17 1
  18   10   18 1
  19   11   19 1
  20   11   20 1
  21   11   21 1
  22   12   22 1
  23   12   23 1
  24   12   24 1

#	End of record

