#	Name: ASD11400010
#	Creating user name:	WinNT
#	Creation time:	15. 06. 2019 21:29

#	Modifying user name:	WinNT
#	Modification time:	15. 06. 2019 21:29

#	Program:	/corina/corina34_cracker 3.40 0067  02.08.2006

@<TRIPOS>MOLECULE
ASD11400010
  40   43    0    0    0
SMALL
NO_CHARGES


@<TRIPOS>ATOM
   1 O1             0.8974     1.8669    -0.2527 O.2     
   2 C2            -0.0897     1.2190     0.0426 C.2     
   3 C3             0.0448    -0.1946     0.4171 C.2     
   4 C4             1.1923    -0.9237     0.3488 C.2     
   5 C5             0.8990    -2.2327     0.7975 C.ar    
   6 C6            -0.4682    -2.2559     1.1360 C.ar    
   7 N7            -0.9717    -0.9957     0.9007 N.pl3   
   8 C8            -1.0388    -3.4318     1.6136 C.ar    
   9 C9            -0.2681    -4.5647     1.7537 C.ar    
  10 C10            1.0858    -4.5480     1.4207 C.ar    
  11 C11            1.6717    -3.3943     0.9444 C.ar    
  12 Br12           3.5082    -3.3772     0.4939 Br      
  13 O13            1.8322    -5.6758     1.5657 O.3     
  14 Br14          -1.0532    -6.1573     2.4042 Br      
  15 C15           -1.4213     1.8556     0.0301 C.ar    
  16 C16           -2.5660     1.0821    -0.1845 C.ar    
  17 C17           -3.8061     1.6797    -0.1950 C.ar    
  18 C18           -3.9212     3.0507     0.0071 C.ar    
  19 C19           -2.7851     3.8235     0.2209 C.ar    
  20 C20           -1.5417     3.2327     0.2386 C.ar    
  21 O21           -5.1453     3.6360    -0.0048 O.3     
  22 C22           -5.9931     3.3627     1.0214 C.ar    
  23 C23           -5.5620     2.5941     2.0932 C.ar    
  24 C24           -6.4257     2.3182     3.1353 C.ar    
  25 C25           -7.7190     2.8068     3.1108 C.ar    
  26 C26           -8.1511     3.5729     2.0439 C.ar    
  27 C27           -7.2897     3.8566     1.0020 C.ar    
  28 H28            2.1544    -0.5667     0.0120 H       
  29 H29           -1.8898    -0.7180     1.0452 H       
  30 H30           -2.0864    -3.4560     1.8749 H       
  31 H31            1.8477    -6.2408     0.7811 H       
  32 H32           -2.4774     0.0174    -0.3423 H       
  33 H33           -4.6909     1.0830    -0.3607 H       
  34 H34           -2.8787     4.8880     0.3771 H       
  35 H35           -0.6599     3.8337     0.4047 H       
  36 H36           -4.5521     2.2117     2.1125 H       
  37 H37           -6.0906     1.7201     3.9698 H       
  38 H38           -8.3929     2.5893     3.9262 H       
  39 H39           -9.1618     3.9531     2.0271 H       
  40 H40           -7.6277     4.4550     0.1689 H       
@<TRIPOS>BOND
   1    1    2 2
   2    2    3 1
   3    2   15 1
   4    3    4 2
   5    3    7 1
   6    4    5 1
   7    4   28 1
   8    5    6 ar
   9    5   11 ar
  10    6    7 1
  11    6    8 ar
  12    7   29 1
  13    8    9 ar
  14    8   30 1
  15    9   10 ar
  16    9   14 1
  17   10   11 ar
  18   10   13 1
  19   11   12 1
  20   13   31 1
  21   15   16 ar
  22   15   20 ar
  23   16   17 ar
  24   16   32 1
  25   17   18 ar
  26   17   33 1
  27   18   19 ar
  28   18   21 1
  29   19   20 ar
  30   19   34 1
  31   20   35 1
  32   21   22 1
  33   22   23 ar
  34   22   27 ar
  35   23   24 ar
  36   23   36 1
  37   24   25 ar
  38   24   37 1
  39   25   26 ar
  40   25   38 1
  41   26   27 ar
  42   26   39 1
  43   27   40 1

#	End of record

