#	Name: ASD10160112
#	Creating user name:	WinNT
#	Creation time:	15. 06. 2019 21:25

#	Modifying user name:	WinNT
#	Modification time:	15. 06. 2019 21:25

#	Program:	/corina/corina34_cracker 3.40 0067  02.08.2006

@<TRIPOS>MOLECULE
ASD10160112
  43   45    0    0    0
SMALL
NO_CHARGES


@<TRIPOS>ATOM
   1 C1             0.1180     0.7858    -1.4919 C.ar    
   2 C2             0.1166    -0.4115    -0.7694 C.ar    
   3 C3             1.3200     1.4733    -1.6964 C.ar    
   4 C4             2.4976     0.9663    -1.1843 C.ar    
   5 C5             2.4899    -0.2231    -0.4683 C.ar    
   6 C6             1.2960    -0.9092    -0.2626 C.ar    
   7 C7            -1.1418     1.3193    -2.0416 C.2     
   8 N8            -2.2972     0.6528    -1.8482 N.am    
   9 O9            -1.1385     2.3607    -2.6696 O.2     
  10 S10           -3.7121     1.2519    -2.4656 S.o2    
  11 O11           -4.6991     0.3180    -2.0499 O.2     
  12 O12           -3.7458     2.6007    -2.0196 O.2     
  13 O13            3.6496    -0.7184     0.0331 O.3     
  14 C14            4.7743     0.0346    -0.0968 C.ar    
  15 Cl15           1.2946    -2.3959     0.6338 Cl      
  16 C16            5.1109     0.9719     0.8760 C.ar    
  17 C17            5.6026    -0.1256    -1.1962 C.ar    
  18 N18            6.6961     0.6005    -1.3292 N.ar    
  19 C19            7.0448     1.5034    -0.4283 C.ar    
  20 C20            6.2656     1.7162     0.7027 C.ar    
  21 Cl21           6.7311     2.9038     1.8802 Cl      
  22 O22            8.1796     2.2269    -0.6075 O.3     
  23 F23            1.3279     2.6303    -2.3939 F       
  24 C24            8.9494     1.9481    -1.6920 C.ar    
  25 C25            8.5639     2.3891    -2.9499 C.ar    
  26 C26            9.3483     2.1042    -4.0507 C.ar    
  27 C27           10.5164     1.3799    -3.9000 C.ar    
  28 C28           10.9026     0.9388    -2.6477 C.ar    
  29 C29           10.1252     1.2267    -1.5427 C.ar    
  30 C30           -3.4868     1.1817    -4.2642 C.3     
  31 H31           -0.8086    -0.9450    -0.6089 H       
  32 H32            3.4260     1.4954    -1.3411 H       
  33 H33           -2.2999    -0.1779    -1.3473 H       
  34 H34            4.4860     1.1155     1.7451 H       
  35 H35            5.3502    -0.8537    -1.9529 H       
  36 H36            7.6512     2.9543    -3.0682 H       
  37 H37            9.0487     2.4472    -5.0300 H       
  38 H38           11.1280     1.1579    -4.7620 H       
  39 H39           11.8152     0.3729    -2.5328 H       
  40 H40           10.4275     0.8823    -0.5647 H       
  41 H41           -3.3148     0.1494    -4.5688 H       
  42 H42           -4.3813     1.5619    -4.7576 H       
  43 H43           -2.6288     1.7917    -4.5470 H       
@<TRIPOS>BOND
   1    1    2 ar
   2    1    3 ar
   3    1    7 1
   4    2    6 ar
   5    2   31 1
   6    3    4 ar
   7    3   23 1
   8    4    5 ar
   9    4   32 1
  10    5    6 ar
  11    5   13 1
  12    6   15 1
  13    7    8 am
  14    7    9 2
  15    8   10 am
  16    8   33 1
  17   10   11 2
  18   10   12 2
  19   10   30 1
  20   13   14 1
  21   14   16 ar
  22   14   17 ar
  23   16   20 ar
  24   16   34 1
  25   17   18 ar
  26   17   35 1
  27   18   19 ar
  28   19   20 ar
  29   19   22 1
  30   20   21 1
  31   22   24 1
  32   24   25 ar
  33   24   29 ar
  34   25   26 ar
  35   25   36 1
  36   26   27 ar
  37   26   37 1
  38   27   28 ar
  39   27   38 1
  40   28   29 ar
  41   28   39 1
  42   29   40 1
  43   30   41 1
  44   30   42 1
  45   30   43 1

#	End of record

