#	Name: ASD13680009
#	Creating user name:	WinNT
#	Creation time:	15. 06. 2019 21:30

#	Modifying user name:	WinNT
#	Modification time:	15. 06. 2019 21:30

#	Program:	/corina/corina34_cracker 3.40 0067  02.08.2006

@<TRIPOS>MOLECULE
ASD13680009
  49   52    0    0    0
SMALL
NO_CHARGES


@<TRIPOS>ATOM
   1 C1            -0.0190     1.5123     0.0242 C.3     
   2 C2             0.0025    -0.0020     0.0099 C.2     
   3 C3             0.7563    -0.7677     0.8043 C.2     
   4 C4             1.7305    -0.2380     1.8424 C.3     
   5 C5             1.8877     2.2211     1.4594 C.3     
   6 C6             1.4089     2.0561     0.0198 C.3     
   7 C7             1.2763     1.1317     2.3377 C.3     
   8 C8             0.5464    -2.1871     0.5650 C.2     
   9 C9            -0.3617    -2.4431    -0.4226 C.2     
  10 S10           -0.9725    -0.9921    -1.0681 S.3     
  11 N11           -0.7343    -3.7101    -0.8412 N.am    
  12 C12            1.2419    -3.2399     1.3106 C.2     
  13 O13            0.7558    -3.6829     2.3348 O.2     
  14 N14            2.4197    -3.7175     0.8622 N.am    
  15 C15            3.1332    -4.6396     1.6248 C.ar    
  16 N16            2.6985    -4.9693     2.8311 N.ar    
  17 C17            3.3437    -5.8381     3.5854 C.ar    
  18 C18            4.5047    -6.4385     3.1394 C.ar    
  19 C19            4.9940    -6.1200     1.8801 C.ar    
  20 C20            4.2921    -5.2094     1.1099 C.ar    
  21 C21           -1.6420    -3.8543    -1.8270 C.2     
  22 C22           -2.0391    -5.2046    -2.2732 C.ar    
  23 O23           -2.1338    -2.8725    -2.3489 O.2     
  24 C24           -1.4760    -6.3347    -1.6757 C.ar    
  25 C25           -1.8511    -7.5926    -2.0961 C.ar    
  26 C26           -2.7849    -7.7385    -3.1096 C.ar    
  27 C27           -3.3471    -6.6235    -3.7070 C.ar    
  28 C28           -2.9844    -5.3577    -3.2912 C.ar    
  29 Cl29          -3.6957    -3.9600    -4.0357 Cl      
  30 Cl30          -3.2513    -9.3268    -3.6328 Cl      
  31 H31           -0.5467     1.8749    -0.8579 H       
  32 H32           -0.5349     1.8583     0.9199 H       
  33 H33            1.7742    -0.9301     2.6833 H       
  34 H34            2.7214    -0.1508     1.3968 H       
  35 H35            2.9745     2.1438     1.4907 H       
  36 H36            1.5845     3.1996     1.8320 H       
  37 H37            2.0626     1.3584    -0.5036 H       
  38 H38            1.4289     3.0227    -0.4836 H       
  39 H39            0.1892     1.1933     2.2889 H       
  40 H40            1.6018     1.2713     3.3686 H       
  41 H41           -0.3420    -4.4934    -0.4248 H       
  42 H42            2.7706    -3.4193     0.0085 H       
  43 H43            2.9592    -6.0829     4.5645 H       
  44 H44            5.0267    -7.1482     3.7641 H       
  45 H45            5.9000    -6.5753     1.5083 H       
  46 H46            4.6420    -4.9420     0.1238 H       
  47 H47           -0.7478    -6.2230    -0.8859 H       
  48 H48           -1.4158    -8.4667    -1.6348 H       
  49 H49           -4.0740    -6.7439    -4.4966 H       
@<TRIPOS>BOND
   1    1    2 1
   2    1    6 1
   3    1   31 1
   4    1   32 1
   5    2   10 1
   6    2    3 2
   7    3    4 1
   8    3    8 1
   9    4    7 1
  10    4   33 1
  11    4   34 1
  12    5    6 1
  13    5    7 1
  14    5   35 1
  15    5   36 1
  16    6   37 1
  17    6   38 1
  18    7   39 1
  19    7   40 1
  20    8    9 2
  21    8   12 1
  22    9   10 1
  23    9   11 1
  24   11   21 am
  25   11   41 1
  26   12   13 2
  27   12   14 am
  28   14   15 1
  29   14   42 1
  30   15   16 ar
  31   15   20 ar
  32   16   17 ar
  33   17   18 ar
  34   17   43 1
  35   18   19 ar
  36   18   44 1
  37   19   20 ar
  38   19   45 1
  39   20   46 1
  40   21   22 1
  41   21   23 2
  42   22   24 ar
  43   22   28 ar
  44   24   25 ar
  45   24   47 1
  46   25   26 ar
  47   25   48 1
  48   26   27 ar
  49   26   30 1
  50   27   28 ar
  51   27   49 1
  52   28   29 1

#	End of record

