#	Name: ASD14790001
#	Creating user name:	WinNT
#	Creation time:	15. 06. 2019 21:31

#	Modifying user name:	WinNT
#	Modification time:	15. 06. 2019 21:31

#	Program:	/corina/corina34_cracker 3.40 0067  02.08.2006

@<TRIPOS>MOLECULE
ASD14790001
  38   40    0    0    0
SMALL
NO_CHARGES


@<TRIPOS>ATOM
   1 I1            -1.0318    -9.7745     0.1639 I       
   2 I2             3.1899    -7.4974     3.7999 I       
   3 Cl3           -3.1954    -0.1095    -0.0759 Cl      
   4 Cl4            3.1602     5.9747    -0.5365 Cl      
   5 O5            -0.9661     1.8254    -0.1911 O.3     
   6 O6            -1.3520    -6.6571    -0.3795 O.3     
   7 O7            -0.9246    -4.1980    -0.1904 O.2     
   8 N8             0.6152    -3.3039     1.1377 N.am    
   9 C9             0.2143    -2.0052     0.8008 C.ar    
  10 C10            0.3149    -5.7297     1.0610 C.ar    
  11 C11           -0.5775     0.5640     0.1355 C.ar    
  12 C12           -1.1255    -1.7329     0.5585 C.ar    
  13 C13            1.1559    -0.9880     0.7145 C.ar    
  14 C14           -0.0403    -4.3652     0.6274 C.2     
  15 C15           -1.5204    -0.4510     0.2266 C.ar    
  16 C16            0.7604     0.2927     0.3828 C.ar    
  17 C17           -0.3641    -6.8359     0.5331 C.ar    
  18 C18            1.3342    -5.9267     1.9963 C.ar    
  19 C19           -0.0093     2.7872    -0.2710 C.ar    
  20 C20           -0.0219    -8.1150     0.9481 C.ar    
  21 C21            1.6614    -7.2041     2.3975 C.ar    
  22 C22            0.9833    -8.2954     1.8777 C.ar    
  23 C23            0.8155     2.8557    -1.3847 C.ar    
  24 C24            0.1402     3.7056     0.7582 C.ar    
  25 C25            1.7871     3.8344    -1.4642 C.ar    
  26 C26            1.1130     4.6828     0.6748 C.ar    
  27 C27            1.9381     4.7461    -0.4343 C.ar    
  28 H28            1.3647    -3.4397     1.7383 H       
  29 H29           -1.8587    -2.5228     0.6292 H       
  30 H30            2.1975    -1.1986     0.9069 H       
  31 H31            1.4934     1.0827     0.3117 H       
  32 H32            1.8651    -5.0792     2.4040 H       
  33 H33            1.2459    -9.2929     2.1978 H       
  34 H34            0.6983     2.1441    -2.1886 H       
  35 H35           -0.5038     3.6568     1.6239 H       
  36 H36            2.4296     3.8878    -2.3307 H       
  37 H37            1.2298     5.3978     1.4757 H       
  38 H38           -1.0452    -6.6580    -1.2965 H       
@<TRIPOS>BOND
   1    1   20 1
   2    2   21 1
   3    3   15 1
   4    4   27 1
   5    5   11 1
   6    5   19 1
   7    6   17 1
   8    6   38 1
   9    7   14 2
  10    8    9 1
  11    8   14 am
  12    8   28 1
  13    9   12 ar
  14    9   13 ar
  15   10   14 1
  16   10   17 ar
  17   10   18 ar
  18   11   15 ar
  19   11   16 ar
  20   12   15 ar
  21   12   29 1
  22   13   16 ar
  23   13   30 1
  24   16   31 1
  25   17   20 ar
  26   18   21 ar
  27   18   32 1
  28   19   23 ar
  29   19   24 ar
  30   20   22 ar
  31   21   22 ar
  32   22   33 1
  33   23   25 ar
  34   23   34 1
  35   24   26 ar
  36   24   35 1
  37   25   27 ar
  38   25   36 1
  39   26   27 ar
  40   26   37 1

#	End of record

