#	Name: ASD11030032
#	Creating user name:	WinNT
#	Creation time:	15. 06. 2019 21:29

#	Modifying user name:	WinNT
#	Modification time:	15. 06. 2019 21:29

#	Program:	/corina/corina34_cracker 3.40 0067  02.08.2006

@<TRIPOS>MOLECULE
ASD11030032
 102  106    0    0    0
SMALL
NO_CHARGES


@<TRIPOS>ATOM
   1 C1            -1.0860    -0.1641    -0.4314 C.3     
   2 C2            -0.4819    -1.5367    -0.1280 C.3     
   3 C3             0.3844    -1.9845    -1.3069 C.3     
   4 C4             0.9885    -3.3571    -1.0034 C.3     
   5 C5             1.7408    -3.8530    -2.2114 C.2     
   6 O6             2.9484    -3.8326    -2.2210 O.2     
   7 C7             0.9945    -4.3688    -3.3945 C.2     
   8 O8            -0.2189    -4.3893    -3.3848 O.2     
   9 N9             1.6674    -4.8123    -4.4748 N.am    
  10 C10            0.9341    -5.3191    -5.6373 C.3     
  11 C11            1.6342    -5.2571    -6.9963 C.3     
  12 C12            1.4482    -6.6027    -6.2923 C.3     
  13 N13            1.9071    -3.2461     0.1324 N.am    
  14 C14            1.4333    -3.3196     1.3919 C.2     
  15 O15            0.2464    -3.4777     1.5851 O.2     
  16 C16            2.3782    -3.2054     2.5603 C.3     
  17 C17            3.0856    -4.5513     2.7953 C.3     
  18 C18            4.6007    -4.3168     2.9052 C.3     
  19 C19            5.0025    -4.6747     4.3503 C.3     
  20 C20            3.6978    -4.4917     5.1631 C.3     
  21 C21            2.6089    -5.0181     4.1987 C.3     
  22 C22            1.3189    -4.1931     4.4209 C.3     
  23 N23            1.6236    -2.8907     3.7872 N.am    
  24 C24            1.2817    -1.6679     4.2392 C.2     
  25 O25            1.6739    -0.6763     3.6614 O.2     
  26 C26            0.4122    -1.5327     5.4626 C.3     
  27 C27           -1.0567    -1.4660     5.0395 C.3     
  28 C28           -1.4077    -2.7081     4.2181 C.3     
  29 C29           -1.9441    -1.4103     6.2846 C.3     
  30 C30           -1.2870    -0.2127     4.1926 C.3     
  31 N31            0.7691    -0.3077     6.1825 N.am    
  32 C32            0.5269    -0.2082     7.5045 C.2     
  33 O33            0.0134    -1.1327     8.0983 O.2     
  34 C34            0.8940     1.0519     8.2451 C.3     
  35 C35            2.4003     1.2929     8.1261 C.3     
  36 C36            2.7730     2.5722     8.8780 C.3     
  37 C37            4.2793     2.8131     8.7590 C.3     
  38 C38            5.0346     1.6279     9.3635 C.3     
  39 C39            4.6619     0.3485     8.6117 C.3     
  40 C40            3.1556     0.1076     8.7306 C.3     
  41 N41            0.5320     0.9113     9.6577 N.am    
  42 C42            0.2848     2.0071    10.4023 C.2     
  43 O43            0.3622     3.1118     9.9020 O.2     
  44 C44           -0.0813     1.8649    11.8308 C.ar    
  45 N45           -0.1665     0.6567    12.3804 N.ar    
  46 C46           -0.4920     0.5341    13.6516 C.ar    
  47 C47           -0.7462     1.6627    14.4173 C.ar    
  48 N48           -0.6630     2.8654    13.8763 N.ar    
  49 C49           -0.3318     2.9976    12.6046 C.ar    
  50 H50           -0.2852     0.5585    -0.5891 H       
  51 H51           -1.6999    -0.2279    -1.3298 H       
  52 H52           -1.7031     0.1550     0.4085 H       
  53 H53            0.1320    -1.4729     0.7704 H       
  54 H54           -1.2826    -2.2592     0.0297 H       
  55 H55           -0.2295    -2.0483    -2.2053 H       
  56 H56            1.1851    -1.2620    -1.4645 H       
  57 H57            0.1912    -4.0589    -0.7587 H       
  58 H58            2.6372    -4.7959    -4.4825 H       
  59 H59           -0.1441    -5.1601    -5.6190 H       
  60 H60            1.0167    -5.0576    -7.8720 H       
  61 H61            2.6405    -4.8391    -7.0254 H       
  62 H62            2.3321    -7.0700    -5.8582 H       
  63 H63            0.7082    -7.2885    -6.7049 H       
  64 H64            2.8563    -3.1196    -0.0221 H       
  65 H65            3.1163    -2.4273     2.3657 H       
  66 H66            2.8465    -5.2730     2.0142 H       
  67 H67            5.1295    -4.9593     2.2012 H       
  68 H68            4.8318    -3.2711     2.7021 H       
  69 H69            5.3451    -5.7079     4.4062 H       
  70 H70            5.7750    -3.9955     4.7108 H       
  71 H71            3.7253    -5.0877     6.0753 H       
  72 H72            3.5320    -3.4394     5.3939 H       
  73 H73            2.4596    -6.0956     4.2683 H       
  74 H74            0.4701    -4.6691     3.9298 H       
  75 H75            1.1244    -4.0651     5.4858 H       
  76 H76            0.5641    -2.3939     6.1133 H       
  77 H77           -1.3148    -3.5957     4.8439 H       
  78 H78           -2.4319    -2.6257     3.8543 H       
  79 H79           -0.7265    -2.7880     3.3709 H       
  80 H80           -1.6940    -0.5254     6.8697 H       
  81 H81           -2.9905    -1.3628     5.9831 H       
  82 H82           -1.7800    -2.3032     6.8879 H       
  83 H83           -0.6548    -0.2524     3.3055 H       
  84 H84           -2.3334    -0.1652     3.8911 H       
  85 H85           -1.0369     0.6722     4.7777 H       
  86 H86            1.1798     0.4317     5.7076 H       
  87 H87            0.3559     1.8964     7.8144 H       
  88 H88            2.6696     1.3975     7.0751 H       
  89 H89            2.2349     3.4166     8.4473 H       
  90 H90            2.5037     2.4676     9.9290 H       
  91 H91            4.5486     2.9178     7.7080 H       
  92 H92            4.5448     3.7246     9.2946 H       
  93 H93            6.1077     1.7995     9.2787 H       
  94 H94            4.7653     1.5232    10.4145 H       
  95 H95            4.9312     0.4532     7.5606 H       
  96 H96            5.2000    -0.4959     9.0423 H       
  97 H97            2.8863     0.0030     9.7816 H       
  98 H98            2.8901    -0.8038     8.1950 H       
  99 H99            0.4703     0.0295    10.0570 H       
 100 H100          -0.5612    -0.4469    14.0981 H       
 101 H101          -1.0134     1.5580    15.4585 H       
 102 H102          -0.2635     3.9806    12.1626 H       
@<TRIPOS>BOND
   1    1    2 1
   2    1   50 1
   3    1   51 1
   4    1   52 1
   5    2    3 1
   6    2   53 1
   7    2   54 1
   8    3    4 1
   9    3   55 1
  10    3   56 1
  11    4    5 1
  12    4   13 1
  13    4   57 1
  14    5    6 2
  15    5    7 1
  16    7    8 2
  17    7    9 am
  18    9   10 1
  19    9   58 1
  20   10   11 1
  21   10   12 1
  22   10   59 1
  23   11   12 1
  24   11   60 1
  25   11   61 1
  26   12   62 1
  27   12   63 1
  28   13   14 am
  29   13   64 1
  30   14   15 2
  31   14   16 1
  32   16   17 1
  33   16   23 1
  34   16   65 1
  35   17   18 1
  36   17   21 1
  37   17   66 1
  38   18   19 1
  39   18   67 1
  40   18   68 1
  41   19   20 1
  42   19   69 1
  43   19   70 1
  44   20   21 1
  45   20   71 1
  46   20   72 1
  47   21   22 1
  48   21   73 1
  49   22   23 1
  50   22   74 1
  51   22   75 1
  52   23   24 am
  53   24   25 2
  54   24   26 1
  55   26   27 1
  56   26   31 1
  57   26   76 1
  58   27   28 1
  59   27   29 1
  60   27   30 1
  61   28   77 1
  62   28   78 1
  63   28   79 1
  64   29   80 1
  65   29   81 1
  66   29   82 1
  67   30   83 1
  68   30   84 1
  69   30   85 1
  70   31   32 am
  71   31   86 1
  72   32   33 2
  73   32   34 1
  74   34   35 1
  75   34   41 1
  76   34   87 1
  77   35   36 1
  78   35   40 1
  79   35   88 1
  80   36   37 1
  81   36   89 1
  82   36   90 1
  83   37   38 1
  84   37   91 1
  85   37   92 1
  86   38   39 1
  87   38   93 1
  88   38   94 1
  89   39   40 1
  90   39   95 1
  91   39   96 1
  92   40   97 1
  93   40   98 1
  94   41   42 am
  95   41   99 1
  96   42   43 2
  97   42   44 1
  98   44   45 ar
  99   44   49 ar
 100   45   46 ar
 101   46   47 ar
 102   46  100 1
 103   47   48 ar
 104   47  101 1
 105   48   49 ar
 106   49  102 1

#	End of record

