#	Name: ASD10160238
#	Creating user name:	WinNT
#	Creation time:	15. 06. 2019 21:25

#	Modifying user name:	WinNT
#	Modification time:	15. 06. 2019 21:25

#	Program:	/corina/corina34_cracker 3.40 0067  02.08.2006

@<TRIPOS>MOLECULE
ASD10160238
  42   43    0    0    0
SMALL
NO_CHARGES


@<TRIPOS>ATOM
   1 C1            -0.0242     1.4696    -0.1045 C.2     
   2 C2            -0.0024    -0.0045    -0.0829 C.ar    
   3 C3             0.0517    -0.6881     1.1375 C.ar    
   4 C4             0.0720    -2.0682     1.1525 C.ar    
   5 C5             0.0388    -2.7778    -0.0405 C.ar    
   6 C6            -0.0151    -2.1015    -1.2567 C.ar    
   7 C7            -0.0415    -0.7240    -1.2812 C.ar    
   8 O8             0.0049     2.0934     0.9390 O.2     
   9 N9            -0.0707     2.1257    -1.2808 N.am    
  10 S10           -0.0952     3.7813    -1.3050 S.o2    
  11 O11           -0.1693     4.1106    -2.6854 O.2     
  12 O12           -1.1439     4.1294    -0.4116 O.2     
  13 C13            1.5125     4.2679    -0.6200 C.3     
  14 F14           -0.0468    -2.7973    -2.4143 F       
  15 F15            0.0846     0.0018     2.2987 F       
  16 O16            0.0593    -4.1349    -0.0213 O.3     
  17 C17            3.6331    -5.9825    -0.3783 C.ar    
  18 N18            2.5468    -6.7126    -0.1747 N.ar    
  19 C19            1.3600    -6.1415    -0.0529 C.ar    
  20 C20            1.2627    -4.7570    -0.1412 C.ar    
  21 C21            2.4243    -4.0238    -0.3555 C.ar    
  22 N22            3.5775    -4.6624    -0.4677 N.ar    
  23 C23            0.1294    -6.9800     0.1782 C.3     
  24 N24            4.8604    -6.6162    -0.4952 N.pl3   
  25 C25            4.9442    -8.0752    -0.3933 C.3     
  26 C26            6.0738    -5.8268    -0.7207 C.3     
  27 H27            0.1141    -2.5968     2.0934 H       
  28 H28           -0.0882    -0.2008    -2.2248 H       
  29 H29           -0.0899     1.6281    -2.1133 H       
  30 H30            2.3103     3.8636    -1.2429 H       
  31 H31            1.5841     5.3553    -0.5983 H       
  32 H32            1.6090     3.8771     0.3930 H       
  33 H33            2.3859    -2.9470    -0.4290 H       
  34 H34           -0.0273    -7.1079     1.2492 H       
  35 H35           -0.7365    -6.4827    -0.2589 H       
  36 H36            0.2619    -7.9560    -0.2887 H       
  37 H37            4.8276    -8.5159    -1.3834 H       
  38 H38            5.9142    -8.3557     0.0173 H       
  39 H39            4.1531    -8.4397     0.2621 H       
  40 H40            5.8155    -4.7689    -0.7678 H       
  41 H41            6.7734    -5.9938     0.0984 H       
  42 H42            6.5354    -6.1303    -1.6603 H       
@<TRIPOS>BOND
   1    1    2 1
   2    1    8 2
   3    1    9 am
   4    2    3 ar
   5    2    7 ar
   6    3    4 ar
   7    3   15 1
   8    4    5 ar
   9    4   27 1
  10    5    6 ar
  11    5   16 1
  12    6    7 ar
  13    6   14 1
  14    7   28 1
  15    9   10 am
  16    9   29 1
  17   10   11 2
  18   10   12 2
  19   10   13 1
  20   13   30 1
  21   13   31 1
  22   13   32 1
  23   16   20 1
  24   17   18 ar
  25   17   22 ar
  26   17   24 1
  27   18   19 ar
  28   19   20 ar
  29   19   23 1
  30   20   21 ar
  31   21   22 ar
  32   21   33 1
  33   23   34 1
  34   23   35 1
  35   23   36 1
  36   24   25 1
  37   24   26 1
  38   25   37 1
  39   25   38 1
  40   25   39 1
  41   26   40 1
  42   26   41 1
  43   26   42 1

#	End of record

