#	Name: ASD13010058
#	Creating user name:	WinNT
#	Creation time:	15. 06. 2019 21:30

#	Modifying user name:	WinNT
#	Modification time:	15. 06. 2019 21:30

#	Program:	/corina/corina34_cracker 3.40 0067  02.08.2006

@<TRIPOS>MOLECULE
ASD13010058
  40   43    0    0    0
SMALL
NO_CHARGES


@<TRIPOS>ATOM
   1 C1            -0.0164     1.3751     0.1112 C.ar    
   2 C2            -0.0037     0.0104     0.0474 C.ar    
   3 C3             1.1975    -0.6816    -0.0287 C.ar    
   4 C4             2.3970    -0.0045    -0.0412 C.ar    
   5 C5             1.1873     2.0814     0.0995 C.ar    
   6 C6             1.5308     3.5089     0.1526 C.2     
   7 C7             2.4057     1.3851     0.0226 C.ar    
   8 N8             3.4080     2.3308     0.0297 N.am    
   9 C9             0.5740     4.6353     0.2406 C.ar    
  10 C10            0.9042     5.7754     0.9758 C.ar    
  11 C11            0.0155     6.8228     1.0581 C.ar    
  12 C12           -1.2180     6.7453     0.4049 C.ar    
  13 C13           -1.5475     5.6036    -0.3314 C.ar    
  14 C14           -0.6556     4.5592    -0.4166 C.ar    
  15 N15            2.8371     3.6051     0.1086 N.2     
  16 C16            4.7288     2.0693    -0.0300 C.2     
  17 C17            5.6968     3.1788    -0.1446 C.ar    
  18 C18            5.2457     4.4861    -0.3389 C.ar    
  19 C19            7.0673     2.9262    -0.0535 C.ar    
  20 C20            7.9658     3.9673    -0.1609 C.ar    
  21 C21            7.5120     5.2595    -0.3582 C.ar    
  22 C22            6.1553     5.5176    -0.4446 C.ar    
  23 C23           -2.1718     7.8678     0.4930 C.2     
  24 O24           -1.8852     8.8597     1.1333 O.2     
  25 O25           -3.3606     7.7927    -0.1368 O.3     
  26 O26            5.1231     0.9207     0.0105 O.2     
  27 H27           -0.9554     1.9059     0.1661 H       
  28 H28           -0.9360    -0.5348     0.0565 H       
  29 H29            1.1914    -1.7604    -0.0782 H       
  30 H30            3.3270    -0.5504    -0.0998 H       
  31 H31            1.8572     5.8351     1.4804 H       
  32 H32            0.2708     7.7043     1.6275 H       
  33 H33           -2.5004     5.5428    -0.8361 H       
  34 H34           -0.9083     3.6788    -0.9887 H       
  35 H35            4.1871     4.6889    -0.4066 H       
  36 H36            7.4228     1.9182     0.1012 H       
  37 H37            9.0260     3.7734    -0.0906 H       
  38 H38            8.2199     6.0709    -0.4413 H       
  39 H39            5.8078     6.5290    -0.5952 H       
  40 H40           -3.9522     8.5528    -0.0501 H       
@<TRIPOS>BOND
   1    1    2 ar
   2    1    5 ar
   3    1   27 1
   4    2    3 ar
   5    2   28 1
   6    3    4 ar
   7    3   29 1
   8    4    7 ar
   9    4   30 1
  10    5    7 ar
  11    5    6 1
  12    6   15 2
  13    6    9 1
  14    7    8 1
  15    8   16 am
  16    8   15 1
  17    9   10 ar
  18    9   14 ar
  19   10   11 ar
  20   10   31 1
  21   11   12 ar
  22   11   32 1
  23   12   13 ar
  24   12   23 1
  25   13   14 ar
  26   13   33 1
  27   14   34 1
  28   16   17 1
  29   16   26 2
  30   17   19 ar
  31   17   18 ar
  32   18   22 ar
  33   18   35 1
  34   19   20 ar
  35   19   36 1
  36   20   21 ar
  37   20   37 1
  38   21   22 ar
  39   21   38 1
  40   22   39 1
  41   23   24 2
  42   23   25 1
  43   25   40 1

#	End of record

