#	Name: ASD11030058
#	Creating user name:	WinNT
#	Creation time:	15. 06. 2019 21:29

#	Modifying user name:	WinNT
#	Modification time:	15. 06. 2019 21:29

#	Program:	/corina/corina34_cracker 3.40 0067  02.08.2006

@<TRIPOS>MOLECULE
ASD11030058
  82   87    0    0    0
SMALL
NO_CHARGES


@<TRIPOS>ATOM
   1 N1             3.0251     4.5755    -6.5091 N.ar    
   2 C2             2.0384     3.7240    -6.2863 C.ar    
   3 C3             1.9731     3.0291    -5.0902 C.ar    
   4 N4             2.8964     3.2132    -4.1654 N.ar    
   5 C5             3.8927     4.0688    -4.3838 C.ar    
   6 C6             3.9541     4.7672    -5.5917 C.ar    
   7 C7             4.9294     4.2795    -3.3514 C.2     
   8 C8             5.3361     3.3532    -2.4467 C.2     
   9 C9             6.3390     3.9454    -1.6418 C.ar    
  10 C10            6.5103     5.2646    -2.1082 C.ar    
  11 N11            5.6375     5.4430    -3.1608 N.pl3   
  12 C12            7.1087     3.4777    -0.5668 C.ar    
  13 C13            8.0202     4.2968     0.0254 C.ar    
  14 C14            8.1972     5.6110    -0.4315 C.ar    
  15 C15            7.4418     6.0916    -1.4986 C.ar    
  16 C16            5.4838     6.6727    -3.9423 C.3     
  17 C17            4.8129     1.9456    -2.3208 C.3     
  18 C18            9.1886     6.4884     0.2208 C.2     
  19 N19            9.9214     6.0263     1.2533 N.am    
  20 O20            9.3443     7.6281    -0.1731 O.2     
  21 C21           10.9821     6.8572     1.8286 C.3     
  22 C22           10.4547     8.1048     2.4892 C.2     
  23 N23            9.2561     8.0860     3.1052 N.am    
  24 O24           11.1090     9.1257     2.4666 O.2     
  25 C25            8.7975     9.2211     3.7732 C.ar    
  26 C26            9.0267    10.4840     3.2321 C.ar    
  27 C27            8.5825    11.6024     3.8770 C.ar    
  28 C28            7.8918    11.4856     5.0898 C.ar    
  29 C29            7.6586    10.2122     5.6391 C.ar    
  30 C30            8.1091     9.0870     4.9726 C.ar    
  31 C31           11.9756     6.0713     2.7005 C.3     
  32 C32           13.0850     6.9331     2.0749 C.3     
  33 C33           12.1516     7.1178     0.8646 C.3     
  34 C34            7.4144    12.6861     5.7841 C.2     
  35 C35            7.6408    13.9097     5.2531 C.2     
  36 C36            5.9573     0.9375    -2.5253 C.3     
  37 C37            6.0672     0.1246    -1.2188 C.3     
  38 C38            4.6636     0.2476    -0.5756 C.3     
  39 C39            4.2673     1.7100    -0.8972 C.3     
  40 O40            6.9905    10.0878     6.8135 O.3     
  41 C41            6.0256     8.8227     8.6326 C.3     
  42 C42            6.7914     8.7625     7.3094 C.3     
  43 C43            7.1800    15.0684     5.9233 C.2     
  44 O44            6.5803    14.9639     6.9767 O.2     
  45 O45            7.4059    16.2890     5.3936 O.3     
  46 H46            1.2802     3.5702    -7.0399 H       
  47 H47            1.1646     2.3352    -4.9137 H       
  48 H48            4.7601     5.4623    -5.7746 H       
  49 H49            6.9779     2.4673    -0.2086 H       
  50 H50            8.6108     3.9325     0.8530 H       
  51 H51            7.5799     7.1039    -1.8486 H       
  52 H52            6.0904     6.6073    -4.8456 H       
  53 H53            4.4366     6.8005    -4.2163 H       
  54 H54            5.8102     7.5250    -3.3464 H       
  55 H55            4.0270     1.7725    -3.0560 H       
  56 H56            9.7465     5.1436     1.6155 H       
  57 H57            8.7124     7.2830     3.0839 H       
  58 H58            9.5591    10.5791     2.2973 H       
  59 H59            8.7642    12.5783     3.4516 H       
  60 H60            7.9333     8.1058     5.3882 H       
  61 H61           11.8444     6.2373     3.7697 H       
  62 H62           12.0442     5.0150     2.4404 H       
  63 H63           13.2797     7.8570     2.6195 H       
  64 H64           13.9936     6.3762     1.8457 H       
  65 H65           12.2679     6.3477     0.1020 H       
  66 H66           12.1640     8.1273     0.4536 H       
  67 H67            6.8821    12.5933     6.7192 H       
  68 H68            8.1732    14.0025     4.3180 H       
  69 H69            5.7264     0.2747    -3.3592 H       
  70 H70            6.8912     1.4664    -2.7156 H       
  71 H71            6.2969    -0.9184    -1.4367 H       
  72 H72            6.8256     0.5546    -0.5646 H       
  73 H73            3.9653    -0.4518    -1.0354 H       
  74 H74            4.7171     0.0898     0.5015 H       
  75 H75            4.7350     2.3961    -0.1910 H       
  76 H76            3.1834     1.8240    -0.8803 H       
  77 H77            6.5988     9.3998     9.3582 H       
  78 H78            5.0587     9.2994     8.4714 H       
  79 H79            5.8738     7.8118     9.0108 H       
  80 H80            6.2182     8.1854     6.5838 H       
  81 H81            7.7583     8.2858     7.4705 H       
  82 H82            7.0543    17.0184     5.9223 H       
@<TRIPOS>BOND
   1    1    2 ar
   2    1    6 ar
   3    2    3 ar
   4    2   46 1
   5    3    4 ar
   6    3   47 1
   7    4    5 ar
   8    5    6 ar
   9    5    7 1
  10    6   48 1
  11    7    8 2
  12    7   11 1
  13    8    9 1
  14    8   17 1
  15    9   10 ar
  16    9   12 ar
  17   10   11 1
  18   10   15 ar
  19   11   16 1
  20   12   13 ar
  21   12   49 1
  22   13   14 ar
  23   13   50 1
  24   14   15 ar
  25   14   18 1
  26   15   51 1
  27   16   52 1
  28   16   53 1
  29   16   54 1
  30   17   36 1
  31   17   39 1
  32   17   55 1
  33   18   19 am
  34   18   20 2
  35   19   21 1
  36   19   56 1
  37   21   22 1
  38   21   31 1
  39   21   33 1
  40   22   23 am
  41   22   24 2
  42   23   25 1
  43   23   57 1
  44   25   26 ar
  45   25   30 ar
  46   26   27 ar
  47   26   58 1
  48   27   28 ar
  49   27   59 1
  50   28   29 ar
  51   28   34 1
  52   29   30 ar
  53   29   40 1
  54   30   60 1
  55   31   32 1
  56   31   61 1
  57   31   62 1
  58   32   33 1
  59   32   63 1
  60   32   64 1
  61   33   65 1
  62   33   66 1
  63   34   35 2
  64   34   67 1
  65   35   43 1
  66   35   68 1
  67   36   37 1
  68   36   69 1
  69   36   70 1
  70   37   38 1
  71   37   71 1
  72   37   72 1
  73   38   39 1
  74   38   73 1
  75   38   74 1
  76   39   75 1
  77   39   76 1
  78   40   42 1
  79   41   42 1
  80   41   77 1
  81   41   78 1
  82   41   79 1
  83   42   80 1
  84   42   81 1
  85   43   44 2
  86   43   45 1
  87   45   82 1

#	End of record

