#	Name: ASD11920064
#	Creating user name:	WinNT
#	Creation time:	15. 06. 2019 21:29

#	Modifying user name:	WinNT
#	Modification time:	15. 06. 2019 21:29

#	Program:	/corina/corina34_cracker 3.40 0067  02.08.2006

@<TRIPOS>MOLECULE
ASD11920064
  41   42    0    0    0
SMALL
NO_CHARGES


@<TRIPOS>ATOM
   1 C1             0.5206     2.6632     1.6710 C.ar    
   2 N2             0.7616     1.3749     1.8625 N.ar    
   3 C3             1.9783     0.8787     1.6735 C.ar    
   4 C4             3.0030     1.7332     1.2696 C.ar    
   5 C5             2.7104     3.0711     1.0807 C.ar    
   6 N6             1.4743     3.4989     1.2873 N.ar    
   7 O7             2.2208    -0.4398     1.8709 O.3     
   8 C8             1.1171    -1.2477     2.2847 C.3     
   9 N9            -0.7619     3.1478     1.8716 N.pl3   
  10 C10           -1.5003     7.2430     1.6137 C.ar    
  11 C11           -2.4878     6.3251     1.2241 C.ar    
  12 C12           -2.2372     4.9673     1.3124 C.ar    
  13 C13           -1.0114     4.5162     1.7844 C.ar    
  14 C14           -0.0304     5.4265     2.1713 C.ar    
  15 C15           -0.2692     6.7786     2.0882 C.ar    
  16 O16           -3.6850     6.7679     0.7632 O.3     
  17 N17           -1.9477     9.7661     1.4454 N.1     
  18 C18           -1.7498     8.6499     1.5199 C.1     
  19 C19           -4.6417     5.7760     0.3850 C.3     
  20 C20           -5.9000     6.4502    -0.0979 C.2     
  21 C21           -7.0700     6.0161     0.3007 C.2     
  22 C22           -7.1653     4.7640     1.1339 C.3     
  23 C23           -8.3206     6.7689    -0.0740 C.3     
  24 H24            4.0030     1.3585     1.1082 H       
  25 H25            3.4815     3.7598     0.7683 H       
  26 H26            0.7303    -0.8758     3.2335 H       
  27 H27            0.3318    -1.2041     1.5301 H       
  28 H28            1.4474    -2.2793     2.4063 H       
  29 H29           -1.4861     2.5346     2.0726 H       
  30 H30           -2.9948     4.2580     1.0134 H       
  31 H31            0.9205     5.0695     2.5382 H       
  32 H32            0.4937     7.4813     2.3891 H       
  33 H33           -4.2298     5.1600    -0.4143 H       
  34 H34           -4.8732     5.1479     1.2452 H       
  35 H35           -5.8373     7.2911    -0.7726 H       
  36 H36           -7.0080     5.0131     2.1834 H       
  37 H37           -8.1527     4.3194     1.0100 H       
  38 H38           -6.4040     4.0539     0.8110 H       
  39 H39           -8.0547     7.6399    -0.6729 H       
  40 H40           -8.9773     6.1179    -0.6510 H       
  41 H41           -8.8343     7.0932     0.8310 H       
@<TRIPOS>BOND
   1    1    2 ar
   2    1    6 ar
   3    1    9 1
   4    2    3 ar
   5    3    4 ar
   6    3    7 1
   7    4    5 ar
   8    4   24 1
   9    5    6 ar
  10    5   25 1
  11    7    8 1
  12    8   26 1
  13    8   27 1
  14    8   28 1
  15    9   13 1
  16    9   29 1
  17   10   11 ar
  18   10   15 ar
  19   10   18 1
  20   11   12 ar
  21   11   16 1
  22   12   13 ar
  23   12   30 1
  24   13   14 ar
  25   14   15 ar
  26   14   31 1
  27   15   32 1
  28   16   19 1
  29   17   18 3
  30   19   20 1
  31   19   33 1
  32   19   34 1
  33   20   21 2
  34   20   35 1
  35   21   22 1
  36   21   23 1
  37   22   36 1
  38   22   37 1
  39   22   38 1
  40   23   39 1
  41   23   40 1
  42   23   41 1

#	End of record

