#	Name: ASD11710019
#	Creating user name:	WinNT
#	Creation time:	15. 06. 2019 21:29

#	Modifying user name:	WinNT
#	Modification time:	15. 06. 2019 21:29

#	Program:	/corina/corina34_cracker 3.40 0067  02.08.2006

@<TRIPOS>MOLECULE
ASD11710019
  55   57    0    0    0
SMALL
NO_CHARGES


@<TRIPOS>ATOM
   1 C1            -0.7030     1.0003     0.5924 C.ar    
   2 C2            -1.1763    -0.2983     0.6176 C.ar    
   3 C3             0.6554     1.2391     0.4994 C.ar    
   4 C4            -0.2913    -1.3580     0.5497 C.ar    
   5 C5             1.5404     0.1794     0.4316 C.ar    
   6 C6             1.0671    -1.1191     0.4563 C.ar    
   7 C7             2.0320    -2.2744     0.3833 C.3     
   8 C8             2.4514    -2.4975    -1.0710 C.3     
   9 O9             3.2735    -3.6632    -1.1562 O.3     
  10 O10            3.1867    -1.9811     1.1725 O.3     
  11 C11           -1.6683     2.1556     0.6600 C.3     
  12 N12           -1.8916     2.5240     2.0602 N.am    
  13 C13           -1.1012     3.4430     2.6495 C.2     
  14 C14           -2.9741     1.8936     2.8199 C.3     
  15 C15           -1.3909     3.8924     4.0279 C.ar    
  16 O16           -0.1502     3.9023     2.0477 O.2     
  17 C17           -2.1778     3.4214     6.2476 C.ar    
  18 C18           -1.9325     4.7339     6.6099 C.ar    
  19 C19           -1.9102     2.9957     4.9629 C.ar    
  20 C20           -1.4128     5.6266     5.6894 C.ar    
  21 C21           -1.1407     5.2138     4.4014 C.ar    
  22 S22           -2.2772     5.2694     8.2528 S.o2    
  23 N23           -0.8645     5.1613     9.1102 N.am    
  24 O24           -2.5894     6.6530     8.1667 O.2     
  25 O25           -3.1604     4.3066     8.8117 O.2     
  26 C26           -0.2480     3.9205     9.2867 C.ar    
  27 C27            0.9734     1.4623     9.6364 C.ar    
  28 C28            1.7269     2.5602     9.2633 C.ar    
  29 C29           -0.3882     1.5914     9.8407 C.ar    
  30 C30            1.1205     3.7885     9.0879 C.ar    
  31 C31           -1.0010     2.8168     9.6670 C.ar    
  32 H32           -2.2376    -0.4849     0.6906 H       
  33 H33            1.0251     2.2536     0.4794 H       
  34 H34           -0.6610    -2.3725     0.5701 H       
  35 H35            2.6016     0.3660     0.3583 H       
  36 H36            1.5503    -3.1747     0.7648 H       
  37 H37            1.5635    -2.6332    -1.6885 H       
  38 H38            3.0111    -1.6316    -1.4247 H       
  39 H39            3.5770    -3.8659    -2.0517 H       
  40 H40            3.6662    -1.1905     0.8893 H       
  41 H41           -1.2533     3.0077     0.1218 H       
  42 H42           -2.6153     1.8648     0.2053 H       
  43 H43           -2.5929     1.0085     3.3291 H       
  44 H44           -3.3596     2.5987     3.5563 H       
  45 H45           -3.7750     1.6047     2.1394 H       
  46 H46           -2.5836     2.7296     6.9709 H       
  47 H47           -2.1025     1.9709     4.6812 H       
  48 H48           -1.2235     6.6498     5.9785 H       
  49 H49           -0.7347     5.9114     3.6839 H       
  50 H50           -0.4652     5.9596     9.4897 H       
  51 H51            1.4501     0.5029     9.7729 H       
  52 H52            2.7901     2.4561     9.1049 H       
  53 H53           -0.9738     0.7320    10.1320 H       
  54 H54            1.7095     4.6455     8.7962 H       
  55 H55           -2.0643     2.9170     9.8271 H       
@<TRIPOS>BOND
   1    1    2 ar
   2    1    3 ar
   3    1   11 1
   4    2    4 ar
   5    2   32 1
   6    3    5 ar
   7    3   33 1
   8    4    6 ar
   9    4   34 1
  10    5    6 ar
  11    5   35 1
  12    6    7 1
  13    7    8 1
  14    7   10 1
  15    7   36 1
  16    8    9 1
  17    8   37 1
  18    8   38 1
  19    9   39 1
  20   10   40 1
  21   11   12 1
  22   11   41 1
  23   11   42 1
  24   12   13 am
  25   12   14 1
  26   13   15 1
  27   13   16 2
  28   14   43 1
  29   14   44 1
  30   14   45 1
  31   15   19 ar
  32   15   21 ar
  33   17   18 ar
  34   17   19 ar
  35   17   46 1
  36   18   20 ar
  37   18   22 1
  38   19   47 1
  39   20   21 ar
  40   20   48 1
  41   21   49 1
  42   22   23 am
  43   22   24 2
  44   22   25 2
  45   23   26 1
  46   23   50 1
  47   26   30 ar
  48   26   31 ar
  49   27   28 ar
  50   27   29 ar
  51   27   51 1
  52   28   30 ar
  53   28   52 1
  54   29   31 ar
  55   29   53 1
  56   30   54 1
  57   31   55 1

#	End of record

