#	Name: ASD10610048
#	Creating user name:	WinNT
#	Creation time:	15. 06. 2019 21:27

#	Modifying user name:	WinNT
#	Modification time:	15. 06. 2019 21:27

#	Program:	/corina/corina34_cracker 3.40 0067  02.08.2006

@<TRIPOS>MOLECULE
ASD10610048
  65   69    0    0    0
SMALL
NO_CHARGES


@<TRIPOS>ATOM
   1 C1            -0.5788    -0.7467     1.5611 C.2     
   2 N2            -0.0421    -0.2637     0.4231 N.am    
   3 O3             0.0324    -1.5624     2.2227 O.2     
   4 O4            -1.7897    -0.3214     1.9678 O.3     
   5 C5             1.3234    -0.6336     0.0426 C.3     
   6 C6             1.6101    -2.1155    -0.2079 C.3     
   7 C7             1.5468    -1.1391    -1.3841 C.3     
   8 C8             2.4185     0.1909     0.6686 C.2     
   9 N9             2.2308     1.5079     0.8846 N.am    
  10 O10            3.4688    -0.3307     0.9780 O.2     
  11 C11            3.3306     2.3307     1.3943 C.3     
  12 C12            3.1296     3.8055     0.9865 C.3     
  13 C13            2.3708     4.3843     2.1994 C.3     
  14 C14            2.7744     3.5147     3.3711 C.ar    
  15 C15            2.6659     3.7409     4.7311 C.ar    
  16 C16            3.1115     2.7823     5.6378 C.ar    
  17 C17            3.6672     1.5934     5.1682 C.ar    
  18 C18            3.7716     1.3752     3.8087 C.ar    
  19 C19            3.3263     2.3339     2.9084 C.ar    
  20 F20            4.3100     0.2233     3.3523 F       
  21 C21            2.9958     3.0255     7.0956 C.ar    
  22 C22            2.4221     2.0526     7.9299 C.ar    
  23 C23            2.3193     2.2929     9.2995 C.ar    
  24 C24            2.7814     3.4844     9.8282 C.ar    
  25 C25            3.3469     4.4425     9.0038 C.ar    
  26 C26            3.4605     4.2165     7.6448 C.ar    
  27 O27            1.4802    -0.6776     5.9600 O.3     
  28 N28            1.9631     0.4264     6.0979 N.2     
  29 C29            1.9281     0.7779     7.3579 C.2     
  30 N30            1.3569    -0.2409     8.0404 N.2     
  31 C31            1.0793    -1.1534     7.1431 C.2     
  32 C32            0.4298    -2.4894     7.3967 C.3     
  33 F33            1.7683     1.3626    10.1096 F       
  34 Cl34           3.9226     5.9334     9.6818 Cl      
  35 C35           -2.3057    -0.8845     3.2027 C.3     
  36 C36           -1.3485    -0.5586     4.3509 C.3     
  37 C37           -3.6819    -0.2858     3.5004 C.3     
  38 C38           -2.4304    -2.4025     3.0580 C.3     
  39 H39           -0.5600     0.3289    -0.1440 H       
  40 H40            2.5910    -2.4939     0.0798 H       
  41 H41            0.7827    -2.8152    -0.0895 H       
  42 H42            0.6778    -1.1964    -2.0396 H       
  43 H43            2.4860    -0.8752    -1.8703 H       
  44 H44            1.3675     1.9111     0.7026 H       
  45 H45            4.2845     1.9609     1.0182 H       
  46 H46            4.0893     4.3055     0.8553 H       
  47 H47            2.5266     3.8785     0.0814 H       
  48 H48            2.6699     5.4177     2.3746 H       
  49 H49            1.2948     4.3237     2.0363 H       
  50 H50            2.2347     4.6634     5.0910 H       
  51 H51            4.0153     0.8455     5.8653 H       
  52 H52            2.7005     3.6686    10.8892 H       
  53 H53            3.9067     4.9664     7.0084 H       
  54 H54            0.3297    -3.0294     6.4551 H       
  55 H55            1.0465    -3.0686     8.0840 H       
  56 H56           -0.5567    -2.3365     7.8345 H       
  57 H57           -1.2597     0.5229     4.4540 H       
  58 H58           -1.7358    -0.9813     5.2780 H       
  59 H59           -0.3681    -0.9851     4.1389 H       
  60 H60           -4.3638    -0.5180     2.6824 H       
  61 H61           -4.0692    -0.7085     4.4274 H       
  62 H62           -3.5930     0.7957     3.6035 H       
  63 H63           -1.4500    -2.8291     2.8459 H       
  64 H64           -2.8177    -2.8253     3.9850 H       
  65 H65           -3.1123    -2.6347     2.2400 H       
@<TRIPOS>BOND
   1    1    2 am
   2    1    3 2
   3    1    4 1
   4    2    5 1
   5    2   39 1
   6    4   35 1
   7    5    6 1
   8    5    7 1
   9    5    8 1
  10    6    7 1
  11    6   40 1
  12    6   41 1
  13    7   42 1
  14    7   43 1
  15    8    9 am
  16    8   10 2
  17    9   11 1
  18    9   44 1
  19   11   12 1
  20   11   19 1
  21   11   45 1
  22   12   13 1
  23   12   46 1
  24   12   47 1
  25   13   14 1
  26   13   48 1
  27   13   49 1
  28   14   15 ar
  29   14   19 ar
  30   15   16 ar
  31   15   50 1
  32   16   17 ar
  33   16   21 1
  34   17   18 ar
  35   17   51 1
  36   18   19 ar
  37   18   20 1
  38   21   22 ar
  39   21   26 ar
  40   22   23 ar
  41   22   29 1
  42   23   24 ar
  43   23   33 1
  44   24   25 ar
  45   24   52 1
  46   25   26 ar
  47   25   34 1
  48   26   53 1
  49   27   28 1
  50   27   31 1
  51   28   29 2
  52   29   30 1
  53   30   31 2
  54   31   32 1
  55   32   54 1
  56   32   55 1
  57   32   56 1
  58   35   36 1
  59   35   38 1
  60   35   37 1
  61   36   57 1
  62   36   58 1
  63   36   59 1
  64   37   60 1
  65   37   61 1
  66   37   62 1
  67   38   63 1
  68   38   64 1
  69   38   65 1

#	End of record

