#	Name: ASD10410247
#	Creating user name:	WinNT
#	Creation time:	15. 06. 2019 21:27

#	Modifying user name:	WinNT
#	Modification time:	15. 06. 2019 21:27

#	Program:	/corina/corina34_cracker 3.40 0067  02.08.2006

@<TRIPOS>MOLECULE
ASD10410247
  64   68    0    0    0
SMALL
NO_CHARGES


@<TRIPOS>ATOM
   1 C1             0.0242     1.3007     0.4996 C.ar    
   2 C2            -0.0079     0.0036     0.0093 C.ar    
   3 C3             1.1518    -0.5856    -0.4724 C.ar    
   4 C4             2.3395     0.1190    -0.4642 C.ar    
   5 C5             2.3726     1.4177     0.0265 C.ar    
   6 C6             1.2110     2.0068     0.5086 C.ar    
   7 O7            -1.1769    -0.6911     0.0012 O.3     
   8 N8             3.5761     2.1325     0.0356 N.pl3   
   9 C9             3.5634     3.5211    -0.0922 C.2     
  10 N10            4.6124     4.3027     0.0011 N.2     
  11 N11            2.4799     4.2678    -0.3354 N.2     
  12 C12            2.8201     5.5374    -0.3953 C.2     
  13 N13            4.1617     5.6191    -0.1888 N.pl3   
  14 C14            4.9346     6.7771    -0.1701 C.ar    
  15 N15            1.9667     6.5984    -0.6297 N.pl3   
  16 C16            5.8553     6.9967     0.8755 C.ar    
  17 C17           -1.1372    -2.0219    -0.5179 C.3     
  18 C18           -2.5352    -2.6394    -0.4458 C.3     
  19 N19           -3.4426    -1.9022    -1.3352 N.3     
  20 C20           -4.7308    -2.6055    -1.4766 C.3     
  21 C21           -5.8388    -1.6210    -1.0472 C.3     
  22 C22           -5.1648    -0.2355    -1.2287 C.3     
  23 C23           -3.7032    -0.5422    -0.8173 C.3     
  24 N24            4.8123     7.6701    -1.1331 N.ar    
  25 C25            5.5227     8.7893    -1.1657 C.ar    
  26 C26            6.4330     9.0934    -0.2003 C.ar    
  27 C27            6.6258     8.1877     0.8608 C.ar    
  28 C28            7.5451     8.4322     1.8901 C.ar    
  29 C29            6.0266     6.0757     1.9189 C.ar    
  30 C30            7.6905     7.5173     2.8943 C.ar    
  31 C31            6.9324     6.3371     2.9065 C.ar    
  32 O32            7.0979     5.4441     3.9183 O.3     
  33 C33            6.2979     4.2608     3.8765 C.3     
  34 O34            8.5817     7.7527     3.8927 O.3     
  35 C35            9.3255     8.9709     3.8245 C.3     
  36 H36           -0.8801     1.7602     0.8703 H       
  37 H37            1.1260    -1.5957    -0.8537 H       
  38 H38            3.2425    -0.3400    -0.8390 H       
  39 H39            1.2358     3.0168     0.8901 H       
  40 H40            4.4190     1.6619     0.1309 H       
  41 H41            1.0201     6.4380    -0.7682 H       
  42 H42            2.3141     7.5036    -0.6558 H       
  43 H43           -0.8039    -1.9974    -1.5554 H       
  44 H44           -0.4443    -2.6216     0.0723 H       
  45 H45           -2.4882    -3.6826    -0.7582 H       
  46 H46           -2.9049    -2.5831     0.5781 H       
  47 H47           -4.8797    -2.9014    -2.5151 H       
  48 H48           -4.7459    -3.4847    -0.8325 H       
  49 H49           -6.7096    -1.7139    -1.6961 H       
  50 H50           -6.1145    -1.7818    -0.0049 H       
  51 H51           -5.2176     0.0913    -2.2672 H       
  52 H52           -5.6101     0.5054    -0.5647 H       
  53 H53           -3.6026    -0.5237     0.2679 H       
  54 H54           -3.0217     0.1750    -1.2747 H       
  55 H55            5.3750     9.4800    -1.9828 H       
  56 H56            7.0001    10.0112    -0.2494 H       
  57 H57            8.1345     9.3372     1.8893 H       
  58 H58            5.4456     5.1656     1.9413 H       
  59 H59            6.5280     3.6360     4.7395 H       
  60 H60            5.2430     4.5344     3.8970 H       
  61 H61            6.5125     3.7093     2.9611 H       
  62 H62            9.9066     8.9906     2.9025 H       
  63 H63            8.6388     9.8173     3.8393 H       
  64 H64            9.9985     9.0341     4.6796 H       
@<TRIPOS>BOND
   1    1    2 ar
   2    1    6 ar
   3    1   36 1
   4    2    3 ar
   5    2    7 1
   6    3    4 ar
   7    3   37 1
   8    4    5 ar
   9    4   38 1
  10    5    6 ar
  11    5    8 1
  12    6   39 1
  13    7   17 1
  14    8    9 1
  15    8   40 1
  16    9   10 2
  17    9   11 1
  18   10   13 1
  19   11   12 2
  20   12   13 1
  21   12   15 1
  22   13   14 1
  23   14   16 ar
  24   14   24 ar
  25   15   41 1
  26   15   42 1
  27   16   29 ar
  28   16   27 ar
  29   17   18 1
  30   17   43 1
  31   17   44 1
  32   18   19 1
  33   18   45 1
  34   18   46 1
  35   19   20 1
  36   19   23 1
  37   20   21 1
  38   20   47 1
  39   20   48 1
  40   21   22 1
  41   21   49 1
  42   21   50 1
  43   22   23 1
  44   22   51 1
  45   22   52 1
  46   23   53 1
  47   23   54 1
  48   24   25 ar
  49   25   26 ar
  50   25   55 1
  51   26   27 ar
  52   26   56 1
  53   27   28 ar
  54   28   30 ar
  55   28   57 1
  56   29   31 ar
  57   29   58 1
  58   30   31 ar
  59   30   34 1
  60   31   32 1
  61   32   33 1
  62   33   59 1
  63   33   60 1
  64   33   61 1
  65   34   35 1
  66   35   62 1
  67   35   63 1
  68   35   64 1

#	End of record

