#	Name: ASD11000021
#	Creating user name:	WinNT
#	Creation time:	15. 06. 2019 21:28

#	Modifying user name:	WinNT
#	Modification time:	15. 06. 2019 21:28

#	Program:	/corina/corina34_cracker 3.40 0067  02.08.2006

@<TRIPOS>MOLECULE
ASD11000021
  59   62    0    0    0
SMALL
NO_CHARGES


@<TRIPOS>ATOM
   1 C1             0.0653     1.2800     0.1339 C.3     
   2 C2            -0.4766    -0.1172    -0.1744 C.3     
   3 N3            -0.0061    -0.5423    -1.4970 N.am    
   4 C4             0.0099    -1.0866     0.8739 C.ar    
   5 C5             0.5738    -2.3007     0.5492 C.ar    
   6 C6            -0.1280    -0.7200     2.2059 C.ar    
   7 C7             0.9888    -3.1582     1.5612 C.ar    
   8 C8             0.8499    -2.7997     2.8891 C.ar    
   9 C9             0.2897    -1.5682     3.2151 C.ar    
  10 C10           -0.1219    -1.9722    -1.8279 C.3     
  11 C11            0.7824    -2.7500    -0.8732 C.3     
  12 O12            0.1527    -1.2019     4.5176 O.3     
  13 C13           -0.4312     0.0769     4.7739 C.3     
  14 O14            1.2592    -3.6460     3.8718 O.3     
  15 C15            1.8250    -4.8921     3.4608 C.3     
  16 C16            0.5110     0.3406    -2.3742 C.2     
  17 O17            0.5015     1.5288    -2.1177 O.2     
  18 C18            1.0896    -0.1357    -3.6478 C.ar    
  19 C19            1.6825    -1.3974    -3.7200 C.ar    
  20 C20            1.0405     0.6723    -4.7865 C.ar    
  21 C21            1.5840     0.2196    -5.9741 C.ar    
  22 C22            2.1751    -1.0305    -6.0351 C.ar    
  23 C23            2.2210    -1.8367    -4.9115 C.ar    
  24 O24            1.4939     1.2505     0.1207 O.3     
  25 C25            2.1379     2.4203     0.3778 C.ar    
  26 C26            3.5242     2.4625     0.3808 C.ar    
  27 C27            1.4084     3.5723     0.6316 C.ar    
  28 C28            2.0626     4.7605     0.8928 C.ar    
  29 C29            3.4490     4.8014     0.9018 C.ar    
  30 C30            4.1784     3.6507     0.6421 C.ar    
  31 Cl31           1.5245     1.2202    -7.3914 Cl      
  32 O32            4.0930     5.9713     1.1581 O.3     
  33 C33            5.5217     5.9404     1.1514 C.3     
  34 Cl34           0.2987     2.2399    -4.7102 Cl      
  35 H35           -0.2906     1.9822    -0.6201 H       
  36 H36           -0.2826     1.5958     1.1174 H       
  37 H37           -1.5663    -0.0933    -0.1675 H       
  38 H38           -0.5648     0.2356     2.4559 H       
  39 H39            1.4235    -4.1138     1.3077 H       
  40 H40           -1.1550    -2.2969    -1.7040 H       
  41 H41            0.1971    -2.1397    -2.8566 H       
  42 H42            1.8233    -2.5859    -1.1519 H       
  43 H43            0.5549    -3.8132    -0.9503 H       
  44 H44            0.1794     0.8539     4.3139 H       
  45 H45           -1.4364     0.1083     4.3536 H       
  46 H46           -0.4819     0.2441     5.8498 H       
  47 H47            2.1086    -5.4701     4.3404 H       
  48 H48            1.0908    -5.4507     2.8803 H       
  49 H49            2.7072    -4.7062     2.8483 H       
  50 H50            1.7200    -2.0284    -2.8443 H       
  51 H51            2.5981    -1.3803    -6.9653 H       
  52 H52            2.6841    -2.8108    -4.9664 H       
  53 H53            4.0922     1.5663     0.1792 H       
  54 H54            0.3289     3.5404     0.6245 H       
  55 H55            1.4946     5.6577     1.0896 H       
  56 H56            5.2579     3.6825     0.6495 H       
  57 H57            5.8735     5.2403     1.9091 H       
  58 H58            5.8736     5.6212     0.1704 H       
  59 H59            5.9076     6.9362     1.3695 H       
@<TRIPOS>BOND
   1    1    2 1
   2    1   24 1
   3    1   35 1
   4    1   36 1
   5    2    3 1
   6    2    4 1
   7    2   37 1
   8    3   10 1
   9    3   16 am
  10    4    5 ar
  11    4    6 ar
  12    5    7 ar
  13    5   11 1
  14    6    9 ar
  15    6   38 1
  16    7    8 ar
  17    7   39 1
  18    8    9 ar
  19    8   14 1
  20    9   12 1
  21   10   11 1
  22   10   40 1
  23   10   41 1
  24   11   42 1
  25   11   43 1
  26   12   13 1
  27   13   44 1
  28   13   45 1
  29   13   46 1
  30   14   15 1
  31   15   47 1
  32   15   48 1
  33   15   49 1
  34   16   17 2
  35   16   18 1
  36   18   20 ar
  37   18   19 ar
  38   19   23 ar
  39   19   50 1
  40   20   21 ar
  41   20   34 1
  42   21   22 ar
  43   21   31 1
  44   22   23 ar
  45   22   51 1
  46   23   52 1
  47   24   25 1
  48   25   26 ar
  49   25   27 ar
  50   26   30 ar
  51   26   53 1
  52   27   28 ar
  53   27   54 1
  54   28   29 ar
  55   28   55 1
  56   29   30 ar
  57   29   32 1
  58   30   56 1
  59   32   33 1
  60   33   57 1
  61   33   58 1
  62   33   59 1

#	End of record

