#	Name: ASD10420090
#	Creating user name:	WinNT
#	Creation time:	15. 06. 2019 21:27

#	Modifying user name:	WinNT
#	Modification time:	15. 06. 2019 21:27

#	Program:	/corina/corina34_cracker 3.40 0067  02.08.2006

@<TRIPOS>MOLECULE
ASD10420090
  71   75    0    0    0
SMALL
NO_CHARGES


@<TRIPOS>ATOM
   1 N1             0.0573     0.6548     0.0929 N.pl3   
   2 C2            -0.0692    -0.6888    -0.1357 C.2     
   3 C3            -1.4163    -0.9548    -0.4408 C.2     
   4 C4            -2.0996     0.2596    -0.3908 C.2     
   5 C5            -1.1804     1.2445    -0.0661 C.2     
   6 C6             1.2745     1.1836     0.4118 C.2     
   7 C7             2.3670     0.3944     0.5064 C.2     
   8 C8             2.2651    -0.9855     0.2766 C.2     
   9 C9             1.0540    -1.5254    -0.0415 C.2     
  10 C10           -1.4652     2.6240     0.0862 C.2     
  11 O11           -1.6022     3.3298    -0.8971 O.2     
  12 C12           -3.5701     0.4647    -0.6487 C.3     
  13 C13           -4.3451     0.1854     0.6132 C.ar    
  14 C14           -4.8432     1.2333     1.3643 C.ar    
  15 C15           -4.5624    -1.1189     1.0161 C.ar    
  16 C16           -5.2733    -1.3767     2.1736 C.ar    
  17 C17           -5.7678    -0.3306     2.9288 C.ar    
  18 C18           -2.0003    -2.2786    -0.7568 C.ar    
  19 C19           -2.0270    -3.2817     0.2123 C.ar    
  20 C20           -2.5728    -4.5127    -0.0881 C.ar    
  21 C21           -3.0929    -4.7533    -1.3473 C.ar    
  22 C22           -3.0690    -3.7627    -2.3129 C.ar    
  23 C23           -2.5311    -2.5257    -2.0229 C.ar    
  24 C24           -4.6118     2.6550     0.9213 C.3     
  25 C25           -5.5551     0.9764     2.5235 C.ar    
  26 F26           -6.0377     2.0001     3.2613 F       
  27 N27           -1.5845     3.1554     1.3190 N.am    
  28 C28           -1.7783     4.6018     1.5021 C.3     
  29 C29           -0.7427     5.1077     2.5119 C.3     
  30 N30           -0.8313     4.3086     3.7414 N.3     
  31 C31           -0.4988     2.9006     3.4869 C.3     
  32 C32           -1.5306     2.3035     2.5167 C.3     
  33 C33           -1.0213     6.5767     2.8366 C.3     
  34 C34            0.0837     7.1163     3.7469 C.3     
  35 C35           -0.1908     8.5632     4.0667 C.2     
  36 N36            0.6558     9.2506     4.8587 N.am    
  37 O37           -1.1735     9.1090     3.6113 O.2     
  38 C38            0.3889    10.6572     5.1695 C.3     
  39 H39            1.3654     2.2448     0.5903 H       
  40 H40            3.3231     0.8280     0.7597 H       
  41 H41            3.1389    -1.6156     0.3518 H       
  42 H42            0.9602    -2.5862    -0.2209 H       
  43 H43           -3.7440     1.4943    -0.9615 H       
  44 H44           -3.8993    -0.2145    -1.4351 H       
  45 H45           -4.1770    -1.9372     0.4260 H       
  46 H46           -5.4425    -2.3962     2.4874 H       
  47 H47           -6.3236    -0.5322     3.8326 H       
  48 H48           -1.6209    -3.0951     1.1955 H       
  49 H49           -2.5937    -5.2902     0.6612 H       
  50 H50           -3.5191    -5.7186    -1.5777 H       
  51 H51           -3.4759    -3.9568    -3.2943 H       
  52 H52           -2.5130    -1.7532    -2.7775 H       
  53 H53           -5.4692     2.9996     0.3432 H       
  54 H54           -4.4840     3.2921     1.7965 H       
  55 H55           -3.7148     2.7017     0.3038 H       
  56 H56           -1.6408     5.1132     0.5493 H       
  57 H57           -2.7825     4.7917     1.8812 H       
  58 H58            0.2566     5.0119     2.0871 H       
  59 H59           -0.2441     4.6936     4.4660 H       
  60 H60            0.4970     2.8355     3.0485 H       
  61 H61           -0.5205     2.3464     4.4252 H       
  62 H62           -2.5114     2.2766     2.9915 H       
  63 H63           -1.2292     1.2945     2.2351 H       
  64 H64           -1.0456     7.1547     1.9128 H       
  65 H65           -1.9828     6.6608     3.3432 H       
  66 H66            0.1080     6.5383     4.6707 H       
  67 H67            1.0451     7.0322     3.2403 H       
  68 H68            1.4417     8.8141     5.2228 H       
  69 H69            1.1762    11.0416     5.8180 H       
  70 H70            0.3646    11.2352     4.2457 H       
  71 H71           -0.5725    10.7412     5.6761 H       
@<TRIPOS>BOND
   1    1    2 1
   2    1    6 1
   3    1    5 1
   4    2    3 2
   5    2    9 1
   6    3    4 1
   7    3   18 1
   8    4    5 2
   9    4   12 1
  10    5   10 1
  11    6    7 2
  12    6   39 1
  13    7    8 1
  14    7   40 1
  15    8    9 2
  16    8   41 1
  17    9   42 1
  18   10   11 2
  19   10   27 am
  20   12   13 1
  21   12   43 1
  22   12   44 1
  23   13   14 ar
  24   13   15 ar
  25   14   24 1
  26   14   25 ar
  27   15   16 ar
  28   15   45 1
  29   16   17 ar
  30   16   46 1
  31   17   25 ar
  32   17   47 1
  33   18   19 ar
  34   18   23 ar
  35   19   20 ar
  36   19   48 1
  37   20   21 ar
  38   20   49 1
  39   21   22 ar
  40   21   50 1
  41   22   23 ar
  42   22   51 1
  43   23   52 1
  44   24   53 1
  45   24   54 1
  46   24   55 1
  47   25   26 1
  48   27   28 1
  49   27   32 1
  50   28   29 1
  51   28   56 1
  52   28   57 1
  53   29   30 1
  54   29   33 1
  55   29   58 1
  56   30   31 1
  57   30   59 1
  58   31   32 1
  59   31   60 1
  60   31   61 1
  61   32   62 1
  62   32   63 1
  63   33   34 1
  64   33   64 1
  65   33   65 1
  66   34   35 1
  67   34   66 1
  68   34   67 1
  69   35   36 am
  70   35   37 2
  71   36   38 1
  72   36   68 1
  73   38   69 1
  74   38   70 1
  75   38   71 1

#	End of record

