#	Name: ASD10420125
#	Creating user name:	WinNT
#	Creation time:	15. 06. 2019 21:27

#	Modifying user name:	WinNT
#	Modification time:	15. 06. 2019 21:27

#	Program:	/corina/corina34_cracker 3.40 0067  02.08.2006

@<TRIPOS>MOLECULE
ASD10420125
  25   26    0    0    0
SMALL
NO_CHARGES


@<TRIPOS>ATOM
   1 C1            -0.0166     1.3719     0.0096 C.ar    
   2 C2             0.0021    -0.0041     0.0020 C.ar    
   3 C3             1.2197    -0.6860    -0.0128 C.ar    
   4 C4             2.4198     0.0265    -0.0204 C.ar    
   5 C5             2.4038     1.4025    -0.0134 C.ar    
   6 C6             1.1848     2.0867     0.0020 C.ar    
   7 C7             1.2384    -2.1675    -0.0200 C.ar    
   8 C8             1.7470    -2.8573    -1.1223 C.ar    
   9 C9             1.7612    -4.2397    -1.1220 C.ar    
  10 C10            1.2728    -4.9393    -0.0336 C.ar    
  11 C11            0.7672    -4.2628     1.0615 C.ar    
  12 C12            0.7528    -2.8805     1.0780 C.ar    
  13 C13            1.1662     3.5619     0.0096 C.2     
  14 O14            0.1065     4.1561     0.0225 O.2     
  15 O15            2.3245     4.2504     0.0022 O.3     
  16 F16            2.2236    -2.1755    -2.1868 F       
  17 F17            0.2640    -2.2211     2.1511 F       
  18 H18           -0.9590     1.8993     0.0169 H       
  19 H19           -0.9259    -0.5565     0.0079 H       
  20 H20            3.3614    -0.5023    -0.0316 H       
  21 H21            3.3325     1.9536    -0.0189 H       
  22 H22            2.1542    -4.7746    -1.9740 H       
  23 H23            1.2861    -6.0192    -0.0389 H       
  24 H24            0.3868    -4.8156     1.9078 H       
  25 H25            2.2617     5.2153     0.0077 H       
@<TRIPOS>BOND
   1    1    2 ar
   2    1    6 ar
   3    1   18 1
   4    2    3 ar
   5    2   19 1
   6    3    4 ar
   7    3    7 1
   8    4    5 ar
   9    4   20 1
  10    5    6 ar
  11    5   21 1
  12    6   13 1
  13    7    8 ar
  14    7   12 ar
  15    8    9 ar
  16    8   16 1
  17    9   10 ar
  18    9   22 1
  19   10   11 ar
  20   10   23 1
  21   11   12 ar
  22   11   24 1
  23   12   17 1
  24   13   14 2
  25   13   15 1
  26   15   25 1

#	End of record

