#	Name: ASD13490024
#	Creating user name:	WinNT
#	Creation time:	15. 06. 2019 21:30

#	Modifying user name:	WinNT
#	Modification time:	15. 06. 2019 21:30

#	Program:	/corina/corina34_cracker 3.40 0067  02.08.2006

@<TRIPOS>MOLECULE
ASD13490024
  50   54    0    0    0
SMALL
NO_CHARGES


@<TRIPOS>ATOM
   1 C1             0.2607     1.3505     0.6798 C.ar    
   2 C2             0.2824    -0.0325     0.6188 C.ar    
   3 C3             1.2275    -0.6782    -0.1755 C.ar    
   4 C4             2.1446     0.0646    -0.9036 C.ar    
   5 C5             2.1225     1.4443    -0.8419 C.ar    
   6 C6             1.1810     2.0911    -0.0511 C.ar    
   7 N7             1.2516    -2.0816    -0.2385 N.pl3   
   8 C8             1.2785    -2.8445    -1.3764 C.2     
   9 C9             1.2955    -4.1324    -0.9815 C.2     
  10 N10            1.2794    -4.1565     0.3593 N.2     
  11 C11            1.2586    -2.9323     0.8125 C.2     
  12 C12            1.3266    -5.3358    -1.8881 C.3     
  13 O13           -0.6170    -0.7594     1.3335 O.3     
  14 C14           -1.5564    -0.0308     2.1264 C.3     
  15 N15            1.1599     3.4875     0.0092 N.pl3   
  16 C16            2.3563     4.2002     0.1070 C.ar    
  17 C17            2.3536     5.6005     0.0153 C.ar    
  18 C18            3.5519     3.5305     0.3008 C.ar    
  19 C19            4.7412     4.2355     0.3992 C.ar    
  20 C20            4.7508     5.6121     0.3052 C.ar    
  21 C21            1.9216     7.7158    -0.1763 C.2     
  22 N22            1.3768     6.5258    -0.1641 N.2     
  23 C23            3.5632     6.3039     0.1157 C.ar    
  24 O24            3.2542     7.6140    -0.0079 O.3     
  25 C25            1.1836     8.9841    -0.3497 C.ar    
  26 C26            1.8698    10.2000    -0.3464 C.ar    
  27 C27            1.1761    11.3806    -0.5086 C.ar    
  28 C28           -0.1999    11.3617    -0.6743 C.ar    
  29 C29           -0.8861    10.1574    -0.6783 C.ar    
  30 C30           -0.2016     8.9705    -0.5232 C.ar    
  31 F31           -0.8748    12.5214    -0.8319 F       
  32 H32           -0.4739     1.8532     1.2914 H       
  33 H33            2.8771    -0.4362    -1.5193 H       
  34 H34            2.8380     2.0211    -1.4091 H       
  35 H35            1.2849    -2.4829    -2.3940 H       
  36 H36            1.2466    -2.6465     1.8540 H       
  37 H37            2.3615    -5.6087    -2.0944 H       
  38 H38            0.8209    -6.1701    -1.4020 H       
  39 H39            0.8198    -5.0991    -2.8237 H       
  40 H40           -2.2141    -0.7293     2.6438 H       
  41 H41           -1.0218     0.5748     2.8581 H       
  42 H42           -2.1499     0.6178     1.4820 H       
  43 H43            0.3139     3.9613    -0.0168 H       
  44 H44            3.5582     2.4531     0.3761 H       
  45 H45            5.6683     3.7028     0.5511 H       
  46 H46            5.6831     6.1518     0.3832 H       
  47 H47            2.9418    10.2159    -0.2167 H       
  48 H48            1.7059    12.3217    -0.5062 H       
  49 H49           -1.9583    10.1484    -0.8074 H       
  50 H50           -0.7367     8.0324    -0.5310 H       
@<TRIPOS>BOND
   1    1    2 ar
   2    1    6 ar
   3    1   32 1
   4    2    3 ar
   5    2   13 1
   6    3    4 ar
   7    3    7 1
   8    4    5 ar
   9    4   33 1
  10    5    6 ar
  11    5   34 1
  12    6   15 1
  13    7    8 1
  14    7   11 1
  15    8    9 2
  16    8   35 1
  17    9   10 1
  18    9   12 1
  19   10   11 2
  20   11   36 1
  21   12   37 1
  22   12   38 1
  23   12   39 1
  24   13   14 1
  25   14   40 1
  26   14   41 1
  27   14   42 1
  28   15   16 1
  29   15   43 1
  30   16   18 ar
  31   16   17 ar
  32   17   23 ar
  33   17   22 1
  34   18   19 ar
  35   18   44 1
  36   19   20 ar
  37   19   45 1
  38   20   23 ar
  39   20   46 1
  40   21   22 2
  41   21   24 1
  42   21   25 1
  43   23   24 1
  44   25   26 ar
  45   25   30 ar
  46   26   27 ar
  47   26   47 1
  48   27   28 ar
  49   27   48 1
  50   28   29 ar
  51   28   31 1
  52   29   30 ar
  53   29   49 1
  54   30   50 1

#	End of record

