#	Name: ASD10160213
#	Creating user name:	WinNT
#	Creation time:	15. 06. 2019 21:25

#	Modifying user name:	WinNT
#	Modification time:	15. 06. 2019 21:25

#	Program:	/corina/corina34_cracker 3.40 0067  02.08.2006

@<TRIPOS>MOLECULE
ASD10160213
  45   46    0    0    0
SMALL
NO_CHARGES


@<TRIPOS>ATOM
   1 C1            -2.2258    -2.6049     4.8651 C.2     
   2 C2            -1.6249    -3.0070     3.5801 C.ar    
   3 C3            -0.3004    -3.4578     3.5349 C.ar    
   4 C4             0.2574    -3.8336     2.3295 C.ar    
   5 C5            -0.4933    -3.7648     1.1635 C.ar    
   6 C6            -1.8112    -3.3169     1.2043 C.ar    
   7 C7            -2.3782    -2.9447     2.4037 C.ar    
   8 O8            -1.5706    -2.6646     5.8878 O.2     
   9 N9            -3.4994    -2.1659     4.9054 N.am    
  10 S10           -4.1742    -1.7142     6.3487 S.o2    
  11 O11           -5.5037    -1.3417     6.0126 O.2     
  12 O12           -3.9175    -2.8116     7.2142 O.2     
  13 C13           -3.2164    -0.2615     6.8613 C.3     
  14 O14            0.0593    -4.1349    -0.0197 O.3     
  15 C15            2.4219    -3.8529    -0.1444 C.ar    
  16 C16            1.3101    -4.6677    -0.0012 C.ar    
  17 C17            1.4899    -6.0385     0.1622 C.ar    
  18 C18            2.7809    -6.5369     0.1754 C.ar    
  19 C19            3.8467    -5.6595     0.0262 C.ar    
  20 N20            3.6387    -4.3626    -0.1266 N.ar    
  21 O21            5.1169    -6.1385     0.0377 O.3     
  22 C22            6.1708    -5.1865    -0.1203 C.3     
  23 C23            7.5196    -5.9077    -0.0817 C.3     
  24 C24            7.6334    -6.8414    -1.2883 C.3     
  25 C25            8.6501    -4.8776    -0.1255 C.3     
  26 F26           -2.5369    -3.2521     0.0665 F       
  27 F27            0.4307    -3.5246     4.6690 F       
  28 H28            1.2793    -4.1813     2.2933 H       
  29 H29           -3.4017    -2.6014     2.4346 H       
  30 H30           -4.0208    -2.1145     4.0891 H       
  31 H31           -3.3091     0.5195     6.1067 H       
  32 H32           -3.5969     0.1068     7.8140 H       
  33 H33           -2.1678    -0.5380     6.9712 H       
  34 H34            2.2907    -2.7890    -0.2761 H       
  35 H35            0.6419    -6.6974     0.2764 H       
  36 H36            2.9573    -7.5950     0.3005 H       
  37 H37            6.0589    -4.6761    -1.0769 H       
  38 H38            6.1256    -4.4569     0.6882 H       
  39 H39            7.5940    -6.4900     0.8367 H       
  40 H40            7.5589    -6.2591    -2.2067 H       
  41 H41            8.5943    -7.3552    -1.2608 H       
  42 H42            6.8280    -7.5753    -1.2571 H       
  43 H43            8.5690    -4.2124     0.7341 H       
  44 H44            9.6110    -5.3914    -0.0980 H       
  45 H45            8.5756    -4.2953    -1.0439 H       
@<TRIPOS>BOND
   1    1    2 1
   2    1    8 2
   3    1    9 am
   4    2    3 ar
   5    2    7 ar
   6    3    4 ar
   7    3   27 1
   8    4    5 ar
   9    4   28 1
  10    5    6 ar
  11    5   14 1
  12    6    7 ar
  13    6   26 1
  14    7   29 1
  15    9   10 am
  16    9   30 1
  17   10   11 2
  18   10   12 2
  19   10   13 1
  20   13   31 1
  21   13   32 1
  22   13   33 1
  23   14   16 1
  24   15   16 ar
  25   15   20 ar
  26   15   34 1
  27   16   17 ar
  28   17   18 ar
  29   17   35 1
  30   18   19 ar
  31   18   36 1
  32   19   20 ar
  33   19   21 1
  34   21   22 1
  35   22   23 1
  36   22   37 1
  37   22   38 1
  38   23   24 1
  39   23   25 1
  40   23   39 1
  41   24   40 1
  42   24   41 1
  43   24   42 1
  44   25   43 1
  45   25   44 1
  46   25   45 1

#	End of record

