#	Name: ASD10220013
#	Creating user name:	WinNT
#	Creation time:	15. 06. 2019 21:26

#	Modifying user name:	WinNT
#	Modification time:	15. 06. 2019 21:26

#	Program:	/corina/corina34_cracker 3.40 0067  02.08.2006

@<TRIPOS>MOLECULE
ASD10220013
  31   33    0    0    0
SMALL
NO_CHARGES


@<TRIPOS>ATOM
   1 C1            -0.0062     1.4599    -0.1713 C.2     
   2 C2             0.0236     0.0554    -0.3198 C.2     
   3 C3            -1.1139    -0.6730    -0.3771 C.2     
   4 C4            -2.4369    -0.0552    -0.2888 C.2     
   5 C5            -2.5501     1.3180    -0.1417 C.2     
   6 C6            -1.3368     2.1485    -0.0696 C.2     
   7 O7            -3.6795    -0.5731    -0.3215 O.3     
   8 C8            -4.6085     0.3776    -0.2046 C.2     
   9 C9            -3.9873     1.6040    -0.0860 C.2     
  10 O10           -1.4097     3.3524     0.0594 O.2     
  11 O11            1.0263     2.0988    -0.1217 O.2     
  12 C12           -4.6311     2.9209     0.0653 C.2     
  13 O13           -3.9527     3.9098     0.2690 O.2     
  14 C14           -6.0987     3.0400    -0.0303 C.ar    
  15 C15           -6.7666     4.0531     0.6644 C.ar    
  16 C16           -8.1360     4.1605     0.5725 C.ar    
  17 Cl17          -1.0009    -2.3955    -0.5617 Cl      
  18 C18           -8.8548     3.2635    -0.2097 C.ar    
  19 C19           -8.1946     2.2543    -0.9017 C.ar    
  20 C20           -6.8248     2.1435    -0.8203 C.ar    
  21 O21          -10.2045     3.3730    -0.2976 O.3     
  22 C22          -10.8807     2.4185    -1.1184 C.3     
  23 H23            0.9767    -0.4478    -0.3896 H       
  24 H24           -5.6759     0.2134    -0.2030 H       
  25 H25           -6.2091     4.7501     1.2724 H       
  26 H26           -8.6527     4.9426     1.1090 H       
  27 H27           -8.7567     1.5594    -1.5079 H       
  28 H28           -6.3128     1.3593    -1.3581 H       
  29 H29          -11.9520     2.6186    -1.1011 H       
  30 H30          -10.5134     2.4946    -2.1419 H       
  31 H31          -10.6924     1.4144    -0.7385 H       
@<TRIPOS>BOND
   1    1    2 1
   2    1   11 2
   3    1    6 1
   4    2    3 2
   5    2   23 1
   6    3    4 1
   7    3   17 1
   8    4    5 2
   9    4    7 1
  10    5    6 1
  11    5    9 1
  12    6   10 2
  13    7    8 1
  14    8    9 2
  15    8   24 1
  16    9   12 1
  17   12   13 2
  18   12   14 1
  19   14   15 ar
  20   14   20 ar
  21   15   16 ar
  22   15   25 1
  23   16   18 ar
  24   16   26 1
  25   18   19 ar
  26   18   21 1
  27   19   20 ar
  28   19   27 1
  29   20   28 1
  30   21   22 1
  31   22   29 1
  32   22   30 1
  33   22   31 1

#	End of record

