#	Name: ASD10360001
#	Creating user name:	WinNT
#	Creation time:	15. 06. 2019 21:26

#	Modifying user name:	WinNT
#	Modification time:	15. 06. 2019 21:26

#	Program:	/corina/corina34_cracker 3.40 0067  02.08.2006

@<TRIPOS>MOLECULE
ASD10360001
  64   67    0    0    0
SMALL
NO_CHARGES


@<TRIPOS>ATOM
   1 N1             4.4216     1.3179     2.7192 N.4     
   2 C2             3.9533    -0.0533     2.9631 C.3     
   3 C3             4.4613    -0.5284     4.3267 C.3     
   4 O4             4.0035     0.3712     5.3401 O.3     
   5 C5             4.4144     1.7255     5.1334 C.3     
   6 C6             3.9063     2.2048     3.7714 C.3     
   7 C7             3.9335    -1.9120     4.6062 C.ar    
   8 C8             4.6596    -3.0200     4.2079 C.ar    
   9 C9             4.1810    -4.2894     4.4613 C.ar    
  10 C10            2.9640    -4.4538     5.1196 C.ar    
  11 C11            2.2367    -3.3342     5.5185 C.ar    
  12 C12            2.7275    -2.0694     5.2650 C.ar    
  13 O13            5.8901    -0.5538     4.3212 O.3     
  14 C14            5.8903     1.3437     2.7326 C.3     
  15 C15            3.9356     1.7760     1.4108 C.3     
  16 C16            2.4440    -5.8162     5.3943 C.ar    
  17 C17            1.2270    -5.9806     6.0526 C.ar    
  18 C18            0.7482    -7.2501     6.3056 C.ar    
  19 C19            1.4743    -8.3580     5.9074 C.ar    
  20 C20            2.6832    -8.2006     5.2540 C.ar    
  21 C21            3.1683    -6.9358     4.9899 C.ar    
  22 C22            0.9465    -9.7416     6.1869 C.3     
  23 C23            0.0805   -10.2052     5.0130 C.3     
  24 N24           -0.3850   -11.5765     5.2621 N.4     
  25 C25            0.7744   -12.4687     5.3994 C.3     
  26 C26            1.6391   -12.0010     6.5727 C.3     
  27 O27            2.0420   -10.6466     6.3509 O.3     
  28 O28            0.1609    -9.7206     7.3804 O.3     
  29 C29           -1.1765   -11.6079     6.4992 C.3     
  30 C30           -1.2167   -12.0235     4.1368 C.3     
  31 H31            2.8635    -0.0723     2.9543 H       
  32 H32            4.3351    -0.7121     2.1832 H       
  33 H33            3.9988     2.3560     5.9194 H       
  34 H34            5.5027     1.7833     5.1569 H       
  35 H35            4.2533     3.2223     3.5914 H       
  36 H36            2.8166     2.1849     3.7623 H       
  37 H37            5.6026    -2.8914     3.6974 H       
  38 H38            4.7485    -5.1538     4.1496 H       
  39 H39            1.2928    -3.4560     6.0291 H       
  40 H40            2.1647    -1.2009     5.5738 H       
  41 H41            6.2815    -0.8462     5.1558 H       
  42 H42            6.2736     0.5344     2.1112 H       
  43 H43            6.2405     2.2990     2.3418 H       
  44 H44            6.2466     1.2167     3.7549 H       
  45 H45            2.8458     1.7572     1.4011 H       
  46 H46            4.2830     2.7932     1.2299 H       
  47 H47            4.3173     1.1176     0.6305 H       
  48 H48            0.6596    -5.1162     6.3646 H       
  49 H49           -0.1950    -7.3787     6.8158 H       
  50 H50            3.2463    -9.0691     4.9456 H       
  51 H51            4.1122    -6.8140     4.4794 H       
  52 H52           -0.7789    -9.5424     4.9111 H       
  53 H53            0.6688   -10.1819     4.0956 H       
  54 H54            0.4302   -13.4863     5.5844 H       
  55 H55            1.3624   -12.4446     4.4820 H       
  56 H56            1.0638   -12.0631     7.4964 H       
  57 H57            2.5221   -12.6354     6.6497 H       
  58 H58            0.6473    -9.4369     8.1665 H       
  59 H59           -1.9039   -10.7962     6.4859 H       
  60 H60           -1.6982   -12.5621     6.5726 H       
  61 H61           -0.5147   -11.4887     7.3571 H       
  62 H62           -0.6290   -12.0005     3.2191 H       
  63 H63           -1.5619   -13.0408     4.3217 H       
  64 H64           -2.0762   -11.3611     4.0346 H       
@<TRIPOS>BOND
   1    1    2 1
   2    1   14 1
   3    1   15 1
   4    1    6 1
   5    2    3 1
   6    2   31 1
   7    2   32 1
   8    3    4 1
   9    3    7 1
  10    3   13 1
  11    4    5 1
  12    5    6 1
  13    5   33 1
  14    5   34 1
  15    6   35 1
  16    6   36 1
  17    7    8 ar
  18    7   12 ar
  19    8    9 ar
  20    8   37 1
  21    9   10 ar
  22    9   38 1
  23   10   11 ar
  24   10   16 1
  25   11   12 ar
  26   11   39 1
  27   12   40 1
  28   13   41 1
  29   14   42 1
  30   14   43 1
  31   14   44 1
  32   15   45 1
  33   15   46 1
  34   15   47 1
  35   16   17 ar
  36   16   21 ar
  37   17   18 ar
  38   17   48 1
  39   18   19 ar
  40   18   49 1
  41   19   20 ar
  42   19   22 1
  43   20   21 ar
  44   20   50 1
  45   21   51 1
  46   22   23 1
  47   22   28 1
  48   22   27 1
  49   23   24 1
  50   23   52 1
  51   23   53 1
  52   24   25 1
  53   24   29 1
  54   24   30 1
  55   25   26 1
  56   25   54 1
  57   25   55 1
  58   26   27 1
  59   26   56 1
  60   26   57 1
  61   28   58 1
  62   29   59 1
  63   29   60 1
  64   29   61 1
  65   30   62 1
  66   30   63 1
  67   30   64 1

#	End of record

