#	Name: ASD10160106
#	Creating user name:	WinNT
#	Creation time:	15. 06. 2019 21:25

#	Modifying user name:	WinNT
#	Modification time:	15. 06. 2019 21:25

#	Program:	/corina/corina34_cracker 3.40 0067  02.08.2006

@<TRIPOS>MOLECULE
ASD10160106
  42   43    0    0    0
SMALL
NO_CHARGES


@<TRIPOS>ATOM
   1 C1            -0.0152     1.3158    -0.6417 C.ar    
   2 C2             0.0158    -0.0771    -0.5158 C.ar    
   3 C3             1.1778     2.0479    -0.5815 C.ar    
   4 C4             2.3773     1.3928    -0.3984 C.ar    
   5 C5             2.4028     0.0071    -0.2742 C.ar    
   6 C6             1.2166    -0.7236    -0.3334 C.ar    
   7 C7            -1.2987     2.0107    -0.8432 C.2     
   8 N8            -2.4448     1.3043    -0.9065 N.am    
   9 O9            -1.3240     3.2217    -0.9525 O.2     
  10 S10           -3.8873     2.0853    -1.1330 S.o2    
  11 O11           -4.8549     1.0446    -1.1213 O.2     
  12 O12           -3.8942     3.1032    -0.1415 O.2     
  13 S13            3.9377    -0.8263    -0.0416 S.3     
  14 C14            5.1203     0.4707    -0.1958 C.ar    
  15 Cl15           1.2551    -2.4522    -0.1772 Cl      
  16 C16            5.5801     1.1453     0.9347 C.ar    
  17 C17            5.6103     0.8301    -1.4429 C.ar    
  18 N18            6.4963     1.8002    -1.5657 N.ar    
  19 C19            6.9500     2.4645    -0.5169 C.ar    
  20 C20            6.5089     2.1571     0.7653 C.ar    
  21 Cl21           7.1112     3.0358     2.1360 Cl      
  22 O22            7.8621     3.4549    -0.6932 O.3     
  23 F23            1.1531     3.3932    -0.7030 F       
  24 C24            8.2812     3.7198    -2.0334 C.3     
  25 C25           -3.7536     2.8116    -2.7899 C.3     
  26 C26            7.3623     4.7726    -2.6564 C.3     
  27 C27            9.7201     4.2398    -2.0244 C.3     
  28 H28           -0.9020    -0.6445    -0.5614 H       
  29 H29            3.2979     1.9557    -0.3518 H       
  30 H30           -2.4246     0.3384    -0.8193 H       
  31 H31            5.2197     0.8846     1.9188 H       
  32 H32            5.2628     0.3098    -2.3233 H       
  33 H33            8.2304     2.8014    -2.6182 H       
  34 H34           -3.6004     2.0193    -3.5226 H       
  35 H35           -4.6708     3.3515    -3.0250 H       
  36 H36           -2.9092     3.5003    -2.8176 H       
  37 H37            7.4130     5.6910    -2.0715 H       
  38 H38            7.6820     4.9747    -3.6787 H       
  39 H39            6.3372     4.4021    -2.6628 H       
  40 H40           10.3747     3.4898    -1.5806 H       
  41 H41           10.0397     4.4419    -3.0467 H       
  42 H42            9.7708     5.1582    -1.4396 H       
@<TRIPOS>BOND
   1    1    2 ar
   2    1    3 ar
   3    1    7 1
   4    2    6 ar
   5    2   28 1
   6    3    4 ar
   7    3   23 1
   8    4    5 ar
   9    4   29 1
  10    5    6 ar
  11    5   13 1
  12    6   15 1
  13    7    8 am
  14    7    9 2
  15    8   10 am
  16    8   30 1
  17   10   11 2
  18   10   12 2
  19   10   25 1
  20   13   14 1
  21   14   16 ar
  22   14   17 ar
  23   16   20 ar
  24   16   31 1
  25   17   18 ar
  26   17   32 1
  27   18   19 ar
  28   19   20 ar
  29   19   22 1
  30   20   21 1
  31   22   24 1
  32   24   26 1
  33   24   27 1
  34   24   33 1
  35   25   34 1
  36   25   35 1
  37   25   36 1
  38   26   37 1
  39   26   38 1
  40   26   39 1
  41   27   40 1
  42   27   41 1
  43   27   42 1

#	End of record

