#	Name: ASD10610071
#	Creating user name:	WinNT
#	Creation time:	15. 06. 2019 21:27

#	Modifying user name:	WinNT
#	Modification time:	15. 06. 2019 21:27

#	Program:	/corina/corina34_cracker 3.40 0067  02.08.2006

@<TRIPOS>MOLECULE
ASD10610071
  64   68    0    0    0
SMALL
NO_CHARGES


@<TRIPOS>ATOM
   1 C1            -0.0891     1.4513    -0.0506 C.ar    
   2 C2            -0.0739     0.0577    -0.0409 C.ar    
   3 C3             1.1588    -0.6006    -0.0172 C.ar    
   4 C4             2.3144     0.1623    -0.0041 C.ar    
   5 C5             2.2193     1.5424    -0.0146 C.ar    
   6 N6             1.0355     2.1337    -0.0374 N.ar    
   7 C7             3.7682    -0.2543     0.0207 C.3     
   8 C8             4.5543     1.0007    -0.4148 C.3     
   9 C9             3.6089     2.1462     0.0043 C.3     
  10 C10           -1.3411    -0.7116    -0.0550 C.ar    
  11 C11           -1.5235    -1.7417    -0.9725 C.ar    
  12 C12           -2.7062    -2.4570    -0.9836 C.ar    
  13 C13           -3.7156    -2.1553    -0.0850 C.ar    
  14 C14           -3.5507    -1.1350     0.8339 C.ar    
  15 C15           -2.3610    -0.4083     0.8612 C.ar    
  16 F16           -4.5396    -0.8460     1.7079 F       
  17 Cl17          -2.9277    -3.7406    -2.1313 Cl      
  18 C18           -2.1787     0.6862     1.8437 C.2     
  19 N19           -3.0765     1.0907     2.7712 N.2     
  20 C20           -2.4991     2.0750     3.4137 C.2     
  21 O21           -1.2883     2.2424     2.8726 O.3     
  22 N22           -1.1170     1.4387     1.9804 N.2     
  23 C23           -3.0892     2.8702     4.5497 C.3     
  24 N24            3.6954     3.2521    -0.9527 N.am    
  25 C25            3.2977     4.4883    -0.5917 C.2     
  26 O26            2.7862     4.6681     0.4931 O.2     
  27 C27            3.4887     5.6470    -1.5361 C.3     
  28 N28            4.0139     5.3033    -2.8599 N.am    
  29 C29            2.4866     6.8001    -1.4512 C.3     
  30 C30            3.9149     6.9870    -0.9331 C.3     
  31 C31            3.2780     4.5517    -3.7025 C.2     
  32 O32            3.8005     4.1486    -4.8760 O.3     
  33 O33            2.1430     4.2378    -3.4030 O.2     
  34 C34            3.0014     3.2367    -5.6749 C.3     
  35 C35            1.7084     3.9334    -6.1037 C.3     
  36 C36            3.7920     2.8197    -6.9167 C.3     
  37 C37            2.6618     1.9963    -4.8462 C.3     
  38 H38           -1.0328     1.9759    -0.0736 H       
  39 H39            1.2089    -1.6794    -0.0089 H       
  40 H40            4.0592    -0.5524     1.0280 H       
  41 H41            3.9399    -1.0706    -0.6808 H       
  42 H42            5.5033     1.0674     0.1172 H       
  43 H43            4.7125     1.0039    -1.4932 H       
  44 H44            3.8568     2.4931     1.0074 H       
  45 H45           -0.7406    -1.9822    -1.6765 H       
  46 H46           -4.6364    -2.7194    -0.1019 H       
  47 H47           -2.8385     2.3921     5.4966 H       
  48 H48           -2.6831     3.8816     4.5347 H       
  49 H49           -4.1728     2.9120     4.4395 H       
  50 H50            4.0388     3.0947    -1.8461 H       
  51 H51            4.8912     5.6167    -3.1299 H       
  52 H52            2.2185     7.3033    -2.3802 H       
  53 H53            1.6893     6.7206    -0.7123 H       
  54 H54            4.0568     7.0307     0.1467 H       
  55 H55            4.5857     7.6131    -1.5214 H       
  56 H56            1.9466     4.7666    -6.7648 H       
  57 H57            1.0703     3.2232    -6.6296 H       
  58 H58            1.1872     4.3066    -5.2221 H       
  59 H59            4.7131     2.3234    -6.6112 H       
  60 H60            3.1921     2.1352    -7.5164 H       
  61 H61            4.0340     3.7034    -7.5071 H       
  62 H62            2.0985     2.2934    -3.9615 H       
  63 H63            2.0619     1.3117    -5.4459 H       
  64 H64            3.5829     1.5000    -4.5407 H       
@<TRIPOS>BOND
   1    1    2 ar
   2    1    6 ar
   3    1   38 1
   4    2    3 ar
   5    2   10 1
   6    3    4 ar
   7    3   39 1
   8    4    5 ar
   9    4    7 1
  10    5    6 ar
  11    5    9 1
  12    7    8 1
  13    7   40 1
  14    7   41 1
  15    8    9 1
  16    8   42 1
  17    8   43 1
  18    9   24 1
  19    9   44 1
  20   10   11 ar
  21   10   15 ar
  22   11   12 ar
  23   11   45 1
  24   12   13 ar
  25   12   17 1
  26   13   14 ar
  27   13   46 1
  28   14   15 ar
  29   14   16 1
  30   15   18 1
  31   18   19 1
  32   18   22 2
  33   19   20 2
  34   20   21 1
  35   20   23 1
  36   21   22 1
  37   23   47 1
  38   23   48 1
  39   23   49 1
  40   24   25 am
  41   24   50 1
  42   25   26 2
  43   25   27 1
  44   27   28 1
  45   27   29 1
  46   27   30 1
  47   28   31 am
  48   28   51 1
  49   29   30 1
  50   29   52 1
  51   29   53 1
  52   30   54 1
  53   30   55 1
  54   31   32 1
  55   31   33 2
  56   32   34 1
  57   34   35 1
  58   34   36 1
  59   34   37 1
  60   35   56 1
  61   35   57 1
  62   35   58 1
  63   36   59 1
  64   36   60 1
  65   36   61 1
  66   37   62 1
  67   37   63 1
  68   37   64 1

#	End of record

