#	Name: ASD10410076
#	Creating user name:	WinNT
#	Creation time:	15. 06. 2019 21:26

#	Modifying user name:	WinNT
#	Modification time:	15. 06. 2019 21:26

#	Program:	/corina/corina34_cracker 3.40 0067  02.08.2006

@<TRIPOS>MOLECULE
ASD10410076
  77   82    0    0    0
SMALL
NO_CHARGES


@<TRIPOS>ATOM
   1 C1             0.0991     1.3924     0.4807 C.ar    
   2 C2             0.1733     0.0599     0.8646 C.ar    
   3 C3             1.4083    -0.5687     0.9558 C.ar    
   4 C4             2.5624     0.1313     0.6651 C.ar    
   5 C5             2.4882     1.4639     0.2812 C.ar    
   6 C6             1.2531     2.0923     0.1895 C.ar    
   7 N7             3.6587     2.1740    -0.0132 N.pl3   
   8 C8             4.7485     1.5164    -0.5817 C.2     
   9 N9             5.9251     2.0500    -0.8069 N.2     
  10 N10            4.7622     0.2385    -0.9793 N.2     
  11 C11            5.9457    -0.0614    -1.4694 C.2     
  12 N12            6.7250     1.0512    -1.3855 N.pl3   
  13 C13            8.0473     1.1742    -1.7908 C.ar    
  14 N14            6.3299    -1.2875    -1.9752 N.pl3   
  15 N15           -0.9966    -0.6495     1.1601 N.3     
  16 C16           -0.6900    -2.0350     1.5421 C.3     
  17 C17           -1.9845    -2.7519     1.9331 C.3     
  18 N18           -2.9223    -2.7156     0.8022 N.3     
  19 C19           -3.2289    -1.3300     0.4203 C.3     
  20 C20           -1.9344    -0.6131     0.0293 C.3     
  21 C21           -4.1501    -3.4601     1.1124 C.3     
  22 N22            8.4436     0.7129    -2.9686 N.ar    
  23 C23            9.7005     0.8233    -3.3676 C.ar    
  24 N24           10.6334     1.3886    -2.6385 N.ar    
  25 C25           10.3402     1.8892    -1.4294 C.ar    
  26 C26            9.0048     1.7995    -0.9612 C.ar    
  27 C27           11.3116     2.4994    -0.6256 C.ar    
  28 C28           -4.9738    -2.6854     2.1052 C.3     
  29 C29           -4.9811    -3.6477    -0.1735 C.3     
  30 C30           -5.9449    -4.7321    -0.0577 C.3     
  31 C31           -6.9850    -4.4782     1.0526 C.3     
  32 C32           -6.3636    -4.8260     2.3782 C.3     
  33 C33           -5.7416    -3.6018     3.0769 C.3     
  34 C34           10.9615     2.9944     0.5994 C.ar    
  35 C35            9.6415     2.8992     1.0637 C.ar    
  36 C36            8.6727     2.3148     0.2987 C.ar    
  37 O37           11.9047     3.5859     1.3777 O.3     
  38 C38           13.2315     3.6529     0.8513 C.3     
  39 O39            9.3215     3.3993     2.2869 O.3     
  40 C40            7.9606     3.2722     2.7040 C.3     
  41 H41           -0.8617     1.8800     0.4054 H       
  42 H42            1.4660    -1.6050     1.2544 H       
  43 H43            3.5228    -0.3573     0.7367 H       
  44 H44            1.1954     3.1285    -0.1094 H       
  45 H45            3.7112     3.1234     0.1786 H       
  46 H46            5.7000    -2.0250    -1.9902 H       
  47 H47            7.2298    -1.4114    -2.3154 H       
  48 H48           -0.2288    -2.5509     0.6999 H       
  49 H49           -0.0040    -2.0355     2.3891 H       
  50 H50           -1.7633    -3.7881     2.1890 H       
  51 H51           -2.4316    -2.2522     2.7925 H       
  52 H52           -3.9149    -1.3296    -0.4268 H       
  53 H53           -3.6901    -0.8142     1.2625 H       
  54 H54           -2.1555     0.4231    -0.2266 H       
  55 H55           -1.4873    -1.1128    -0.8301 H       
  56 H56           -3.8924    -4.4345     1.5273 H       
  57 H57            9.9706     0.4301    -4.3365 H       
  58 H58           12.3316     2.5781    -0.9718 H       
  59 H59           -4.3140    -2.0357     2.6801 H       
  60 H60           -5.6897    -2.0673     1.5634 H       
  61 H61           -5.5153    -2.7218    -0.3868 H       
  62 H62           -4.3059    -3.8624    -1.0018 H       
  63 H63           -6.4647    -4.8453    -1.0091 H       
  64 H64           -5.4113    -5.6565     0.1631 H       
  65 H65           -7.2756    -3.4277     1.0488 H       
  66 H66           -7.8612    -5.1040     0.8835 H       
  67 H67           -7.1302    -5.2503     3.0265 H       
  68 H68           -5.5865    -5.5734     2.2182 H       
  69 H69           -5.0552    -3.9490     3.8492 H       
  70 H70           -6.5367    -3.0253     3.5498 H       
  71 H71            7.6588     2.2459     0.6644 H       
  72 H72           13.8835     4.1476     1.5712 H       
  73 H73           13.5986     2.6442     0.6619 H       
  74 H74           13.2245     4.2179    -0.0808 H       
  75 H75            7.6882     2.2174     2.7385 H       
  76 H76            7.8418     3.7108     3.6948 H       
  77 H77            7.3138     3.7916     1.9968 H       
@<TRIPOS>BOND
   1    1    2 ar
   2    1    6 ar
   3    1   41 1
   4    2    3 ar
   5    2   15 1
   6    3    4 ar
   7    3   42 1
   8    4    5 ar
   9    4   43 1
  10    5    6 ar
  11    5    7 1
  12    6   44 1
  13    7    8 1
  14    7   45 1
  15    8    9 2
  16    8   10 1
  17    9   12 1
  18   10   11 2
  19   11   12 1
  20   11   14 1
  21   12   13 1
  22   13   22 ar
  23   13   26 ar
  24   14   46 1
  25   14   47 1
  26   15   16 1
  27   15   20 1
  28   16   17 1
  29   16   48 1
  30   16   49 1
  31   17   18 1
  32   17   50 1
  33   17   51 1
  34   18   19 1
  35   18   21 1
  36   19   20 1
  37   19   52 1
  38   19   53 1
  39   20   54 1
  40   20   55 1
  41   21   29 1
  42   21   28 1
  43   21   56 1
  44   22   23 ar
  45   23   24 ar
  46   23   57 1
  47   24   25 ar
  48   25   26 ar
  49   25   27 ar
  50   26   36 ar
  51   27   34 ar
  52   27   58 1
  53   28   33 1
  54   28   59 1
  55   28   60 1
  56   29   30 1
  57   29   61 1
  58   29   62 1
  59   30   31 1
  60   30   63 1
  61   30   64 1
  62   31   32 1
  63   31   65 1
  64   31   66 1
  65   32   33 1
  66   32   67 1
  67   32   68 1
  68   33   69 1
  69   33   70 1
  70   34   35 ar
  71   34   37 1
  72   35   36 ar
  73   35   39 1
  74   36   71 1
  75   37   38 1
  76   38   72 1
  77   38   73 1
  78   38   74 1
  79   39   40 1
  80   40   75 1
  81   40   76 1
  82   40   77 1

#	End of record

