#	Name: ASD10160204
#	Creating user name:	WinNT
#	Creation time:	15. 06. 2019 21:25

#	Modifying user name:	WinNT
#	Modification time:	15. 06. 2019 21:25

#	Program:	/corina/corina34_cracker 3.40 0067  02.08.2006

@<TRIPOS>MOLECULE
ASD10160204
  40   41    0    0    0
SMALL
NO_CHARGES


@<TRIPOS>ATOM
   1 C1            -0.0339     1.4701     0.0135 C.2     
   2 C2            -0.0097    -0.0043     0.0045 C.ar    
   3 C3             1.2053    -0.6856    -0.1324 C.ar    
   4 C4             1.2228    -2.0660    -0.1397 C.ar    
   5 C5             0.0377    -2.7777    -0.0120 C.ar    
   6 C6            -1.1731    -2.1037     0.1239 C.ar    
   7 C7            -1.1997    -0.7259     0.1386 C.ar    
   8 O8             1.0027     2.0959    -0.0981 O.2     
   9 N9            -1.2056     2.1241     0.1399 N.am    
  10 S10           -1.2328     3.7798     0.1499 S.o2    
  11 O11           -2.6049     4.1067     0.3219 O.2     
  12 O12           -0.2658     4.1402     1.1268 O.2     
  13 C13           -0.6689     4.2519    -1.5083 C.3     
  14 O14            0.0593    -4.1351    -0.0202 O.3     
  15 C15           -0.1516    -4.7684    -1.2014 C.ar    
  16 C16           -0.0399    -6.1529    -1.2798 C.ar    
  17 N17           -0.4698    -4.0700    -2.2818 N.ar    
  18 N18           -0.2457    -6.7657    -2.4303 N.ar    
  19 C19           -0.5577    -6.0651    -3.5076 C.ar    
  20 C20           -0.6747    -4.6901    -3.4315 C.ar    
  21 C21            0.3161    -6.9519    -0.0526 C.3     
  22 C22           -0.8077    -7.9438     0.2540 C.3     
  23 C23            1.6176    -7.7167    -0.3018 C.3     
  24 F24           -2.3233    -2.8017     0.2473 F       
  25 F25            2.3589     0.0064    -0.2575 F       
  26 H26            2.1596    -2.5929    -0.2452 H       
  27 H27           -2.1389    -0.2043     0.2489 H       
  28 H28           -2.0329     1.6249     0.2249 H       
  29 H29           -1.3476     3.8383    -2.2543 H       
  30 H30           -0.6557     5.3386    -1.5920 H       
  31 H31            0.3354     3.8624    -1.6752 H       
  32 H32           -0.7256    -6.5689    -4.4480 H       
  33 H33           -0.9340    -4.1214    -4.3123 H       
  34 H34            0.4470    -6.2781     0.7942 H       
  35 H35           -0.9387    -8.6175    -0.5928 H       
  36 H36           -0.5502    -8.5217     1.1416 H       
  37 H37           -1.7349    -7.3989     0.4315 H       
  38 H38            2.4182    -7.0100    -0.5201 H       
  39 H39            1.8751    -8.2945     0.5859 H       
  40 H40            1.4866    -8.3904    -1.1485 H       
@<TRIPOS>BOND
   1    1    2 1
   2    1    8 2
   3    1    9 am
   4    2    3 ar
   5    2    7 ar
   6    3    4 ar
   7    3   25 1
   8    4    5 ar
   9    4   26 1
  10    5    6 ar
  11    5   14 1
  12    6    7 ar
  13    6   24 1
  14    7   27 1
  15    9   10 am
  16    9   28 1
  17   10   11 2
  18   10   12 2
  19   10   13 1
  20   13   29 1
  21   13   30 1
  22   13   31 1
  23   14   15 1
  24   15   16 ar
  25   15   17 ar
  26   16   18 ar
  27   16   21 1
  28   17   20 ar
  29   18   19 ar
  30   19   20 ar
  31   19   32 1
  32   20   33 1
  33   21   22 1
  34   21   23 1
  35   21   34 1
  36   22   35 1
  37   22   36 1
  38   22   37 1
  39   23   38 1
  40   23   39 1
  41   23   40 1

#	End of record

