#	Name: ASD10420196
#	Creating user name:	WinNT
#	Creation time:	15. 06. 2019 21:27

#	Modifying user name:	WinNT
#	Modification time:	15. 06. 2019 21:27

#	Program:	/corina/corina34_cracker 3.40 0067  02.08.2006

@<TRIPOS>MOLECULE
ASD10420196
  43   44    0    0    0
SMALL
NO_CHARGES


@<TRIPOS>ATOM
   1 C1            -1.1846     1.1841     0.5659 C.3     
   2 C2            -0.5153    -0.1548     0.2489 C.3     
   3 C3             0.2073    -0.6573     1.4722 C.2     
   4 C4             5.4039    -3.0195     7.7573 C.ar    
   5 O5             0.1887    -0.0084     2.4968 O.2     
   6 C6             6.0823    -2.0761     8.5344 C.ar    
   7 N7             0.8741    -1.8277     1.4277 N.am    
   8 C8             1.6359    -2.2402     2.5248 C.ar    
   9 C9             1.7188    -3.5913     2.8426 C.ar    
  10 C10            2.4688    -4.0020     3.9226 C.ar    
  11 C11            3.1471    -3.0582     4.6996 C.ar    
  12 C12            3.0611    -1.7007     4.3766 C.ar    
  13 C13            2.3133    -1.2988     3.2918 C.ar    
  14 C14            3.9500    -3.4930     5.8558 C.2     
  15 C15            4.6009    -2.5847     6.6010 C.2     
  16 C16            6.8319    -2.4877     9.6149 C.ar    
  17 C17            6.9141    -3.8373     9.9324 C.ar    
  18 C18            6.2422    -4.7785     9.1630 C.ar    
  19 C19            5.4943    -4.3772     8.0774 C.ar    
  20 O20            7.6545    -4.2383    10.9987 O.3     
  21 C21            6.3363    -6.2414     9.5123 C.3     
  22 C22            7.5642    -1.4717    10.4532 C.3     
  23 H23           -0.4259     1.9082     0.8629 H       
  24 H24           -1.7072     1.5475    -0.3189 H       
  25 H25           -1.8974     1.0503     1.3795 H       
  26 H26           -1.2739    -0.8789    -0.0481 H       
  27 H27            0.1976    -0.0210    -0.5648 H       
  28 H28            6.0192    -1.0265     8.2881 H       
  29 H29            0.8254    -2.3838     0.6345 H       
  30 H30            1.1941    -4.3197     2.2421 H       
  31 H31            2.5324    -5.0516     4.1690 H       
  32 H32            3.5836    -0.9685     4.9744 H       
  33 H33            2.2496    -0.2507     3.0392 H       
  34 H34            4.0151    -4.5420     6.1042 H       
  35 H35            4.5358    -1.5357     6.3526 H       
  36 H36            4.9720    -5.1097     7.4799 H       
  37 H37            7.1604    -4.2747    11.8292 H       
  38 H38            5.5350    -6.5022    10.2037 H       
  39 H39            6.2421    -6.8384     8.6051 H       
  40 H40            7.2999    -6.4419     9.9807 H       
  41 H41            6.9168    -1.1338    11.2624 H       
  42 H42            8.4623    -1.9256    10.8720 H       
  43 H43            7.8431    -0.6209     9.8316 H       
@<TRIPOS>BOND
   1    1    2 1
   2    1   23 1
   3    1   24 1
   4    1   25 1
   5    2    3 1
   6    2   26 1
   7    2   27 1
   8    3    5 2
   9    3    7 am
  10    4    6 ar
  11    4   15 1
  12    4   19 ar
  13    6   16 ar
  14    6   28 1
  15    7    8 1
  16    7   29 1
  17    8    9 ar
  18    8   13 ar
  19    9   10 ar
  20    9   30 1
  21   10   11 ar
  22   10   31 1
  23   11   12 ar
  24   11   14 1
  25   12   13 ar
  26   12   32 1
  27   13   33 1
  28   14   15 2
  29   14   34 1
  30   15   35 1
  31   16   17 ar
  32   16   22 1
  33   17   18 ar
  34   17   20 1
  35   18   19 ar
  36   18   21 1
  37   19   36 1
  38   20   37 1
  39   21   38 1
  40   21   39 1
  41   21   40 1
  42   22   41 1
  43   22   42 1
  44   22   43 1

#	End of record

