#	Name: ASD13010050
#	Creating user name:	WinNT
#	Creation time:	15. 06. 2019 21:30

#	Modifying user name:	WinNT
#	Modification time:	15. 06. 2019 21:30

#	Program:	/corina/corina34_cracker 3.40 0067  02.08.2006

@<TRIPOS>MOLECULE
ASD13010050
  43   46    0    0    0
SMALL
NO_CHARGES


@<TRIPOS>ATOM
   1 C1            -0.0317     1.9335    -0.1457 C.ar    
   2 C2            -0.2598     0.5735    -0.1650 C.ar    
   3 C3             0.8038    -0.3171    -0.1342 C.ar    
   4 C4             2.1020     0.1415    -0.0839 C.ar    
   5 C5             1.2797     2.4136    -0.0948 C.ar    
   6 C6             1.8705     3.7581    -0.0626 C.2     
   7 C7             2.3547     1.5088    -0.0637 C.ar    
   8 N8             3.5087     2.2611    -0.0166 N.am    
   9 N9             3.1730     3.6186    -0.0171 N.2     
  10 C10            1.1289     5.0391    -0.0792 C.ar    
  11 C11            1.4522     6.0459     0.8359 C.ar    
  12 C12            0.7612     7.2386     0.8200 C.ar    
  13 C13           -0.2618     7.4400    -0.1109 C.ar    
  14 C14           -0.5832     6.4324    -1.0246 C.ar    
  15 C15            0.1109     5.2440    -1.0119 C.ar    
  16 C16           -1.0027     8.7163    -0.1288 C.2     
  17 O17           -0.7235     9.5919     0.6658 O.2     
  18 O18           -1.9889     8.9103    -1.0262 O.3     
  19 C19            4.7619     1.7667     0.0245 C.2     
  20 C20            5.9187     2.6815    -0.0392 C.ar    
  21 O21            4.9395     0.5678     0.1141 O.2     
  22 C22            6.4092     3.2761     1.1273 C.ar    
  23 C23            6.5321     2.9527    -1.2642 C.ar    
  24 C24            7.6125     3.8084    -1.3165 C.ar    
  25 C25            8.0900     4.3980    -0.1590 C.ar    
  26 C26            7.4917     4.1307     1.0592 C.ar    
  27 Cl27           5.6591     2.9414     2.6567 Cl      
  28 C28            6.0150     2.3115    -2.5261 C.3     
  29 F29            2.4409     5.8496     1.7353 F       
  30 F30           -1.0701     2.7969    -0.1815 F       
  31 F31            6.7865     2.7341    -3.6139 F       
  32 F32            6.0966     0.9198    -2.4092 F       
  33 F33            4.6819     2.6853    -2.7267 F       
  34 H34           -1.2722     0.1995    -0.2040 H       
  35 H35            0.6122    -1.3798    -0.1493 H       
  36 H36            2.9226    -0.5602    -0.0598 H       
  37 H37            1.0099     8.0167     1.5265 H       
  38 H38           -1.3737     6.5880    -1.7439 H       
  39 H39           -0.1353     4.4677    -1.7212 H       
  40 H40           -2.4456     9.7622    -0.9993 H       
  41 H41            8.0875     4.0187    -2.2634 H       
  42 H42            8.9366     5.0669    -0.2066 H       
  43 H43            7.8722     4.5911     1.9589 H       
@<TRIPOS>BOND
   1    1    2 ar
   2    1    5 ar
   3    1   30 1
   4    2    3 ar
   5    2   34 1
   6    3    4 ar
   7    3   35 1
   8    4    7 ar
   9    4   36 1
  10    5    7 ar
  11    5    6 1
  12    6    9 2
  13    6   10 1
  14    7    8 1
  15    8    9 1
  16    8   19 am
  17   10   11 ar
  18   10   15 ar
  19   11   12 ar
  20   11   29 1
  21   12   13 ar
  22   12   37 1
  23   13   14 ar
  24   13   16 1
  25   14   15 ar
  26   14   38 1
  27   15   39 1
  28   16   17 2
  29   16   18 1
  30   18   40 1
  31   19   20 1
  32   19   21 2
  33   20   23 ar
  34   20   22 ar
  35   22   26 ar
  36   22   27 1
  37   23   24 ar
  38   23   28 1
  39   24   25 ar
  40   24   41 1
  41   25   26 ar
  42   25   42 1
  43   26   43 1
  44   28   31 1
  45   28   32 1
  46   28   33 1

#	End of record

