#	Name: ASD13010016
#	Creating user name:	WinNT
#	Creation time:	15. 06. 2019 21:30

#	Modifying user name:	WinNT
#	Modification time:	15. 06. 2019 21:30

#	Program:	/corina/corina34_cracker 3.40 0067  02.08.2006

@<TRIPOS>MOLECULE
ASD13010016
  52   55    0    0    0
SMALL
NO_CHARGES


@<TRIPOS>ATOM
   1 C1             1.1359     1.2991     0.4556 C.ar    
   2 C2             0.9796    -0.0472     0.3136 C.ar    
   3 C3             2.0949    -0.8975     0.2887 C.ar    
   4 C4             3.3769    -0.3713     0.4098 C.ar    
   5 C5             2.4118     1.8476     0.5781 C.ar    
   6 N6             2.8776     3.1287     0.7297 N.pl3   
   7 C7             3.5411     1.0042     0.5551 C.ar    
   8 C8             4.7093     1.8777     0.7037 C.2     
   9 N9             4.2738     3.1068     0.8018 N.2     
  10 C10            2.0842     4.2725     0.8003 C.ar    
  11 S11            6.3943     1.3643     0.7435 S.3     
  12 C12            7.2731     2.8911     0.7811 C.ar    
  13 C13            7.4054     3.6475    -0.3775 C.ar    
  14 C14            7.8306     3.3446     1.9704 C.ar    
  15 C15            8.5187     4.5417     1.9961 C.ar    
  16 C16            8.6532     5.2888     0.8403 C.ar    
  17 C17            8.0946     4.8432    -0.3442 C.ar    
  18 C18            0.5065     6.5466     0.9407 C.ar    
  19 C19            0.1262     5.4794     0.1212 C.ar    
  20 C20            0.9120     4.3516     0.0538 C.ar    
  21 C21            2.4628     5.3307     1.6216 C.ar    
  22 C22            1.6817     6.4615     1.6937 C.ar    
  23 C23           -0.3328     7.7565     1.0154 C.2     
  24 O24           -1.3564     7.8271     0.3643 O.2     
  25 O25            0.0351     8.7841     1.8057 O.3     
  26 C26            1.9078    -2.3538     0.1342 C.2     
  27 O27            0.9984    -2.9148     0.7143 O.2     
  28 N28            2.7451    -3.0614    -0.6499 N.am    
  29 C29            2.4955    -4.4847    -0.8910 C.3     
  30 C30            3.9047    -2.4072    -1.2611 C.3     
  31 C31            6.7976     3.1627    -1.6684 C.3     
  32 H32            0.2693     1.9434     0.4687 H       
  33 H33           -0.0125    -0.4634     0.2197 H       
  34 H34            4.2374    -1.0237     0.3917 H       
  35 H35            7.7257     2.7618     2.8736 H       
  36 H36            8.9520     4.8949     2.9202 H       
  37 H37            9.1919     6.2246     0.8633 H       
  38 H38            8.1978     5.4315    -1.2440 H       
  39 H39           -0.7809     5.5419    -0.4616 H       
  40 H40            0.6190     3.5271    -0.5792 H       
  41 H41            3.3705     5.2641     2.2031 H       
  42 H42            1.9786     7.2841     2.3274 H       
  43 H43           -0.5472     9.5560     1.8218 H       
  44 H44            1.8655    -4.5987    -1.7731 H       
  45 H45            3.4437    -4.9974    -1.0530 H       
  46 H46            1.9918    -4.9168    -0.0264 H       
  47 H47            4.7399    -2.4197    -0.5608 H       
  48 H48            4.1848    -2.9393    -2.1701 H       
  49 H49            3.6522    -1.3757    -1.5070 H       
  50 H50            5.7793     3.5417    -1.7555 H       
  51 H51            7.3923     3.5229    -2.5078 H       
  52 H52            6.7815     2.0728    -1.6757 H       
@<TRIPOS>BOND
   1    1    2 ar
   2    1    5 ar
   3    1   32 1
   4    2    3 ar
   5    2   33 1
   6    3    4 ar
   7    3   26 1
   8    4    7 ar
   9    4   34 1
  10    5    7 ar
  11    5    6 1
  12    6    9 1
  13    6   10 1
  14    7    8 1
  15    8    9 2
  16    8   11 1
  17   10   21 ar
  18   10   20 ar
  19   11   12 1
  20   12   14 ar
  21   12   13 ar
  22   13   17 ar
  23   13   31 1
  24   14   15 ar
  25   14   35 1
  26   15   16 ar
  27   15   36 1
  28   16   17 ar
  29   16   37 1
  30   17   38 1
  31   18   19 ar
  32   18   22 ar
  33   18   23 1
  34   19   20 ar
  35   19   39 1
  36   20   40 1
  37   21   22 ar
  38   21   41 1
  39   22   42 1
  40   23   24 2
  41   23   25 1
  42   25   43 1
  43   26   27 2
  44   26   28 am
  45   28   29 1
  46   28   30 1
  47   29   44 1
  48   29   45 1
  49   29   46 1
  50   30   47 1
  51   30   48 1
  52   30   49 1
  53   31   50 1
  54   31   51 1
  55   31   52 1

#	End of record

