#	Name: ASD11030015
#	Creating user name:	WinNT
#	Creation time:	15. 06. 2019 21:29

#	Modifying user name:	WinNT
#	Modification time:	15. 06. 2019 21:29

#	Program:	/corina/corina34_cracker 3.40 0067  02.08.2006

@<TRIPOS>MOLECULE
ASD11030015
  37   40    0    0    0
SMALL
NO_CHARGES


@<TRIPOS>ATOM
   1 F1             0.0021    -0.0041     0.0020 F       
   2 C2            -0.0162     1.3468     0.0094 C.ar    
   3 C3             1.1759     2.0534     0.0019 C.ar    
   4 C4             1.1632     3.4324     0.0089 C.ar    
   5 C5            -0.0538     4.1166     0.0238 C.ar    
   6 C6            -1.2518     3.3995     0.0313 C.ar    
   7 C7            -1.2272     2.0207     0.0188 C.ar    
   8 C8            -0.0739     5.5939     0.0319 C.2     
   9 N9             0.9700     6.3750     0.0261 N.2     
  10 N10            0.7718     7.6204     0.0347 N.2     
  11 C11           -0.4713     8.0353     0.0488 C.2     
  12 S12           -1.5148     6.6122     0.0435 S.3     
  13 N13           -0.8826     9.3287     0.0601 N.2     
  14 C14            0.0049    10.3022     0.0567 C.2     
  15 N15            1.3642    10.1662     0.0425 N.am    
  16 C16            2.1132    11.2562     0.0412 C.2     
  17 O17            3.3293    11.2112     0.0285 O.2     
  18 C18            1.3741    12.5234     0.0556 C.2     
  19 C19            1.8824    13.7817     0.0576 C.2     
  20 C20            0.9781    14.9392     0.0730 C.ar    
  21 C21            1.1667    15.9682     1.0044 C.ar    
  22 Cl22           2.4714    15.8808     2.1462 Cl      
  23 C23            0.3124    17.0520     1.0112 C.ar    
  24 C24           -0.7284    17.1237     0.1018 C.ar    
  25 C25           -0.9226    16.1114    -0.8217 C.ar    
  26 C26           -0.0745    15.0231    -0.8473 C.ar    
  27 Cl27          -0.3201    13.7550    -2.0072 Cl      
  28 S28           -0.3334    12.0417     0.0621 S.3     
  29 H29            2.1167     1.5232    -0.0093 H       
  30 H30            2.0928     3.9821     0.0034 H       
  31 H31           -2.1960     3.9237     0.0432 H       
  32 H32           -2.1533     1.4651     0.0243 H       
  33 H33            1.7725     9.2863     0.0339 H       
  34 H34            2.9519    13.9321     0.0479 H       
  35 H35            0.4563    17.8464     1.7285 H       
  36 H36           -1.3933    17.9747     0.1131 H       
  37 H37           -1.7378    16.1754    -1.5272 H       
@<TRIPOS>BOND
   1    1    2 1
   2    2    3 ar
   3    2    7 ar
   4    3    4 ar
   5    3   29 1
   6    4    5 ar
   7    4   30 1
   8    5    6 ar
   9    5    8 1
  10    6    7 ar
  11    6   31 1
  12    7   32 1
  13    8    9 2
  14    8   12 1
  15    9   10 1
  16   10   11 2
  17   11   12 1
  18   11   13 1
  19   13   14 2
  20   14   15 1
  21   14   28 1
  22   15   16 am
  23   15   33 1
  24   16   17 2
  25   16   18 1
  26   18   19 2
  27   18   28 1
  28   19   20 1
  29   19   34 1
  30   20   21 ar
  31   20   26 ar
  32   21   22 1
  33   21   23 ar
  34   23   24 ar
  35   23   35 1
  36   24   25 ar
  37   24   36 1
  38   25   26 ar
  39   25   37 1
  40   26   27 1

#	End of record

