#	Name: ASD10160428
#	Creating user name:	WinNT
#	Creation time:	15. 06. 2019 21:25

#	Modifying user name:	WinNT
#	Modification time:	15. 06. 2019 21:25

#	Program:	/corina/corina34_cracker 3.40 0067  02.08.2006

@<TRIPOS>MOLECULE
ASD10160428
  35   36    0    0    0
SMALL
NO_CHARGES


@<TRIPOS>ATOM
   1 C1             4.9139    -2.5016     2.2473 C.2     
   2 C2             3.6386    -2.9307     1.6517 C.ar    
   3 C3             2.4580    -2.8806     2.4055 C.ar    
   4 C4             1.2647    -3.2843     1.8406 C.ar    
   5 C5             1.2336    -3.7403     0.5263 C.ar    
   6 C6             2.4013    -3.7917    -0.2246 C.ar    
   7 C7             3.5988    -3.3855     0.3273 C.ar    
   8 O8             5.6139    -3.3065     2.8300 O.2     
   9 O9             5.3085    -1.2171     2.1419 O.3     
  10 F10            4.7321    -3.4311    -0.4067 F       
  11 F11            0.1254    -3.2369     2.5651 F       
  12 F12            2.4877    -2.4388     3.6818 F       
  13 O13            0.0580    -4.1368    -0.0240 O.3     
  14 C14           -0.0712    -3.8727    -2.3883 C.ar    
  15 C15            0.0873    -4.6773    -1.2713 C.ar    
  16 C16            0.2773    -6.0459    -1.4419 C.ar    
  17 C17            0.3005    -6.5526    -2.7304 C.ar    
  18 C18            0.1346    -5.6841    -3.8024 C.ar    
  19 N19           -0.0437    -4.3896    -3.6021 N.ar    
  20 O20            0.1557    -6.1706    -5.0699 O.3     
  21 C21           -0.0204    -5.2281    -6.1295 C.3     
  22 C22            0.7305    -5.7114    -7.3719 C.3     
  23 C23           -1.5100    -5.0967    -6.4528 C.3     
  24 Cl24           0.5346    -8.2510    -3.0030 Cl      
  25 H25            2.3710    -4.1469    -1.2441 H       
  26 H26            6.1536    -0.9826     2.5492 H       
  27 H27           -0.2236    -2.8108    -2.2638 H       
  28 H28            0.4039    -6.6969    -0.5895 H       
  29 H29            0.3717    -4.2586    -5.8223 H       
  30 H30            0.3384    -6.6810    -7.6791 H       
  31 H31            0.5961    -4.9926    -8.1802 H       
  32 H32            1.7917    -5.8051    -7.1416 H       
  33 H33           -2.0449    -4.7524    -5.5677 H       
  34 H34           -1.6444    -4.3778    -7.2611 H       
  35 H35           -1.9021    -6.0663    -6.7600 H       
@<TRIPOS>BOND
   1    1    2 1
   2    1    8 2
   3    1    9 1
   4    2    3 ar
   5    2    7 ar
   6    3    4 ar
   7    3   12 1
   8    4    5 ar
   9    4   11 1
  10    5    6 ar
  11    5   13 1
  12    6    7 ar
  13    6   25 1
  14    7   10 1
  15    9   26 1
  16   13   15 1
  17   14   15 ar
  18   14   19 ar
  19   14   27 1
  20   15   16 ar
  21   16   17 ar
  22   16   28 1
  23   17   18 ar
  24   17   24 1
  25   18   19 ar
  26   18   20 1
  27   20   21 1
  28   21   22 1
  29   21   23 1
  30   21   29 1
  31   22   30 1
  32   22   31 1
  33   22   32 1
  34   23   33 1
  35   23   34 1
  36   23   35 1

#	End of record

