#	Name: ASD11000041
#	Creating user name:	WinNT
#	Creation time:	15. 06. 2019 21:28

#	Modifying user name:	WinNT
#	Modification time:	15. 06. 2019 21:28

#	Program:	/corina/corina34_cracker 3.40 0067  02.08.2006

@<TRIPOS>MOLECULE
ASD11000041
  33   35    0    0    0
SMALL
NO_CHARGES


@<TRIPOS>ATOM
   1 C1            -0.0197     1.4062    -0.0329 C.ar    
   2 C2            -0.0183     0.0237    -0.2929 C.ar    
   3 C3            -1.1831    -0.6730    -0.2697 C.ar    
   4 C4            -2.4021    -0.0305     0.0119 C.ar    
   5 C5            -2.4363     1.3300     0.2720 C.ar    
   6 C6            -1.2431     2.0668     0.2474 C.ar    
   7 C7            -3.6555    -0.8119     0.0299 C.2     
   8 O8            -3.6177    -2.0235    -0.0595 O.2     
   9 N9            -4.8411    -0.1815     0.1455 N.am    
  10 C10            1.1731     2.1482    -0.0517 C.ar    
  11 C11           -5.0325     1.2602     0.3759 C.3     
  12 C12           -6.5659     1.4120     0.4205 C.3     
  13 N13           -7.0674     0.0469     0.2115 N.2     
  14 C14           -6.0790    -0.7729     0.0626 C.2     
  15 S15           -6.2993    -2.4997    -0.2102 S.3     
  16 C16           -8.1068    -2.5926    -0.1922 C.3     
  17 C17           -1.2371     3.4495     0.5057 C.ar    
  18 C18           -0.0621     4.1354     0.4737 C.ar    
  19 C19            1.1405     3.4850     0.2033 C.ar    
  20 H20            0.9098    -0.4836    -0.5113 H       
  21 H21           -1.1737    -1.7342    -0.4703 H       
  22 H22           -3.3744     1.8198     0.4875 H       
  23 H23            2.1121     1.6600    -0.2672 H       
  24 H24           -4.5888     1.5600     1.3252 H       
  25 H25           -4.6126     1.8400    -0.4461 H       
  26 H26           -6.8839     1.7910     1.3918 H       
  27 H27           -6.9077     2.0706    -0.3779 H       
  28 H28           -8.4192    -3.6246    -0.3520 H       
  29 H29           -8.4789    -2.2454     0.7717 H       
  30 H30           -8.5109    -1.9637    -0.9856 H       
  31 H31           -2.1601     3.9642     0.7280 H       
  32 H32           -0.0601     5.1970     0.6724 H       
  33 H33            2.0592     4.0526     0.1837 H       
@<TRIPOS>BOND
   1    1    2 ar
   2    1   10 ar
   3    1    6 ar
   4    2    3 ar
   5    2   20 1
   6    3    4 ar
   7    3   21 1
   8    4    5 ar
   9    4    7 1
  10    5    6 ar
  11    5   22 1
  12    6   17 ar
  13    7    8 2
  14    7    9 am
  15    9   11 1
  16    9   14 1
  17   10   19 ar
  18   10   23 1
  19   11   12 1
  20   11   24 1
  21   11   25 1
  22   12   13 1
  23   12   26 1
  24   12   27 1
  25   13   14 2
  26   14   15 1
  27   15   16 1
  28   16   28 1
  29   16   29 1
  30   16   30 1
  31   17   18 ar
  32   17   31 1
  33   18   19 ar
  34   18   32 1
  35   19   33 1

#	End of record

