#	Name: ASD13410003
#	Creating user name:	WinNT
#	Creation time:	15. 06. 2019 21:30

#	Modifying user name:	WinNT
#	Modification time:	15. 06. 2019 21:30

#	Program:	/corina/corina34_cracker 3.40 0067  02.08.2006

@<TRIPOS>MOLECULE
ASD13410003
  38   39    0    0    0
SMALL
NO_CHARGES


@<TRIPOS>ATOM
   1 C1            -0.0169     1.3944     0.0097 C.ar    
   2 C2             0.0021    -0.0041     0.0020 C.ar    
   3 C3             1.2028    -0.6747    -0.0130 C.ar    
   4 C4             2.4013     0.0334    -0.0207 C.ar    
   5 C5             2.3940     1.4204    -0.0132 C.ar    
   6 C6             1.1921     2.1069     0.0020 C.ar    
   7 C7            -1.3018     2.1172     0.0197 C.2     
   8 C8            -2.5595     1.3721     0.0217 C.2     
   9 O9            -1.3155     3.3352     0.0264 O.2     
  10 C10           -3.7374     2.0346     0.0309 C.2     
  11 C11           -5.0015     1.2857     0.0328 C.ar    
  12 C12           -7.3858    -0.1338     0.0355 C.ar    
  13 C13           -7.4075     1.2610     0.0378 C.ar    
  14 C14           -6.2233     1.9702     0.0365 C.ar    
  15 C15           -4.9882    -0.1138     0.0251 C.ar    
  16 C16           -6.1751    -0.8134     0.0265 C.ar    
  17 O17           -8.5958     1.9223     0.0466 O.3     
  18 C18           -8.5436     3.3503     0.0485 C.3     
  19 O19           -8.5525    -0.8291     0.0372 O.3     
  20 C20           -8.4579    -2.2550     0.0347 C.3     
  21 O21            1.1830     3.4635     0.0094 O.3     
  22 O22            3.5817    -0.6362    -0.0351 O.3     
  23 H23           -0.9256    -0.5570     0.0083 H       
  24 H24            1.2159    -1.7546    -0.0186 H       
  25 H25            3.3266     1.9651    -0.0192 H       
  26 H26           -2.5474     0.2922     0.0157 H       
  27 H27           -3.7495     3.1145     0.0368 H       
  28 H28           -6.2389     3.0501     0.0386 H       
  29 H29           -4.0480    -0.6451     0.0178 H       
  30 H30           -6.1637    -1.8933     0.0251 H       
  31 H31           -8.0110     3.6932     0.9355 H       
  32 H32           -8.0226     3.6960    -0.8444 H       
  33 H33           -9.5572     3.7510     0.0558 H       
  34 H34           -7.9234    -2.5821    -0.8572 H       
  35 H35           -7.9190    -2.5850     0.9228 H       
  36 H36           -9.4593    -2.6855     0.0364 H       
  37 H37            1.1888     3.8521     0.8948 H       
  38 H38            3.9156    -0.8258    -0.9226 H       
@<TRIPOS>BOND
   1    1    2 ar
   2    1    6 ar
   3    1    7 1
   4    2    3 ar
   5    2   23 1
   6    3    4 ar
   7    3   24 1
   8    4    5 ar
   9    4   22 1
  10    5    6 ar
  11    5   25 1
  12    6   21 1
  13    7    8 1
  14    7    9 2
  15    8   10 2
  16    8   26 1
  17   10   11 1
  18   10   27 1
  19   11   15 ar
  20   11   14 ar
  21   12   13 ar
  22   12   16 ar
  23   12   19 1
  24   13   14 ar
  25   13   17 1
  26   14   28 1
  27   15   16 ar
  28   15   29 1
  29   16   30 1
  30   17   18 1
  31   18   31 1
  32   18   32 1
  33   18   33 1
  34   19   20 1
  35   20   34 1
  36   20   35 1
  37   20   36 1
  38   21   37 1
  39   22   38 1

#	End of record

