#	Name: ASD10160376
#	Creating user name:	WinNT
#	Creation time:	15. 06. 2019 21:25

#	Modifying user name:	WinNT
#	Modification time:	15. 06. 2019 21:25

#	Program:	/corina/corina34_cracker 3.40 0067  02.08.2006

@<TRIPOS>MOLECULE
ASD10160376
  34   35    0    0    0
SMALL
NO_CHARGES


@<TRIPOS>ATOM
   1 C1            -0.0167     1.3806     0.0096 C.ar    
   2 C2             0.0021    -0.0041     0.0020 C.ar    
   3 C3             1.2193    -0.6643    -0.0131 C.ar    
   4 C4             2.3889     0.1019    -0.0202 C.ar    
   5 C5             2.2848     1.4913    -0.0117 C.ar    
   6 N6             1.1047     2.0756     0.0027 N.ar    
   7 C7            -1.3383     2.1046     0.0198 C.3     
   8 F8            -1.7411     2.3215     1.3419 F       
   9 F9            -1.2015     3.3341    -0.6337 F       
  10 F10           -2.2992     1.3305    -0.6394 F       
  11 O11            5.0843     0.0411    -0.0456 O.3     
  12 B12            3.7970    -0.5923    -0.0368 Du      
  13 O13            4.0784    -1.9991    -0.0460 O.3     
  14 C14            5.2132    -2.1505     0.8326 C.3     
  15 C15            5.8952    -0.7671     0.8329 C.3     
  16 C16            7.3220    -0.8761     0.2914 C.3     
  17 C17            5.9030    -0.1769     2.2445 C.3     
  18 C18            4.7496    -2.5165     2.2440 C.3     
  19 C19            6.1686    -3.2157     0.2910 C.3     
  20 Cl20          -1.4835    -0.9021     0.0119 Cl      
  21 H21            1.2641    -1.7434    -0.0190 H       
  22 H22            3.1805     2.0948    -0.0166 H       
  23 H23            7.7693     0.1167     0.2438 H       
  24 H24            7.9138    -1.5100     0.9518 H       
  25 H25            7.2993    -1.3127    -0.7070 H       
  26 H26            4.8815    -0.1214     2.6207 H       
  27 H27            6.4978    -0.8123     2.9007 H       
  28 H28            6.3352     0.8234     2.2177 H       
  29 H29            4.2193    -3.4685     2.2168 H       
  30 H30            5.6156    -2.6017     2.9003 H       
  31 H31            4.0834    -1.7402     2.6204 H       
  32 H32            6.5012    -2.9315    -0.7074 H       
  33 H33            7.0316    -3.2994     0.9514 H       
  34 H34            5.6534    -4.1751     0.2429 H       
@<TRIPOS>BOND
   1    1    2 ar
   2    1    6 ar
   3    1    7 1
   4    2    3 ar
   5    2   20 1
   6    3    4 ar
   7    3   21 1
   8    4    5 ar
   9    4   12 1
  10    5    6 ar
  11    5   22 1
  12    7    8 1
  13    7    9 1
  14    7   10 1
  15   11   12 1
  16   11   15 1
  17   12   13 1
  18   13   14 1
  19   14   15 1
  20   14   18 1
  21   14   19 1
  22   15   16 1
  23   15   17 1
  24   16   23 1
  25   16   24 1
  26   16   25 1
  27   17   26 1
  28   17   27 1
  29   17   28 1
  30   18   29 1
  31   18   30 1
  32   18   31 1
  33   19   32 1
  34   19   33 1
  35   19   34 1

#	End of record

