#	Name: ASD10160181
#	Creating user name:	WinNT
#	Creation time:	15. 06. 2019 21:25

#	Modifying user name:	WinNT
#	Modification time:	15. 06. 2019 21:25

#	Program:	/corina/corina34_cracker 3.40 0067  02.08.2006

@<TRIPOS>MOLECULE
ASD10160181
  42   44    0    0    0
SMALL
NO_CHARGES


@<TRIPOS>ATOM
   1 C1            -0.0143     1.4705    -0.0126 C.2     
   2 C2             0.0051    -0.0040    -0.0150 C.ar    
   3 C3             0.0423    -0.7076     1.1945 C.ar    
   4 C4             0.0598    -2.0880     1.1869 C.ar    
   5 C5             0.0411    -2.7777    -0.0177 C.ar    
   6 C6             0.0041    -2.0815    -1.2231 C.ar    
   7 C7            -0.0195    -0.7036    -1.2253 C.ar    
   8 O8             0.0020     2.0770     1.0413 O.2     
   9 N9            -0.0445     2.1460    -1.1785 N.am    
  10 S10           -0.0663     3.8018    -1.1757 S.o2    
  11 O11           -0.1218     4.1538    -2.5513 O.2     
  12 O12           -1.1261     4.1369    -0.2904 O.2     
  13 C13            1.5330     4.2743    -0.4618 C.3     
  14 O14            0.0593    -4.1351    -0.0206 O.3     
  15 N15            2.3387    -4.0316    -0.3425 N.ar    
  16 C16            1.2592    -4.7554    -0.1402 C.ar    
  17 C17            1.3195    -6.1512    -0.0449 C.ar    
  18 C18            2.5185    -6.7889    -0.1626 C.ar    
  19 C19            3.6714    -6.0075    -0.3793 C.ar    
  20 C20            4.9382    -6.5981    -0.5102 C.ar    
  21 C21            6.0316    -5.8130    -0.7195 C.ar    
  22 C22            5.9124    -4.4290    -0.8054 C.ar    
  23 C23            4.6961    -3.8191    -0.6829 C.ar    
  24 C24            3.5427    -4.6003    -0.4661 C.ar    
  25 O25            4.5985    -2.4667    -0.7699 O.3     
  26 C26            5.8099    -1.7416    -0.9910 C.3     
  27 F27           -0.0136    -2.7581    -2.3923 F       
  28 F28            0.0615    -0.0370     2.3671 F       
  29 H29            0.0885    -2.6320     2.1194 H       
  30 H30           -0.0524    -0.1648    -2.1607 H       
  31 H31           -0.0535     1.6622    -2.0192 H       
  32 H32            2.3383     3.8790    -1.0810 H       
  33 H33            1.6059     5.3611    -0.4213 H       
  34 H34            1.6157     3.8668     0.5457 H       
  35 H35            0.4176    -6.7214     0.1219 H       
  36 H36            2.5834    -7.8646    -0.0914 H       
  37 H37            5.0455    -7.6708    -0.4450 H       
  38 H38            7.0046    -6.2709    -0.8198 H       
  39 H39            6.7945    -3.8283    -0.9711 H       
  40 H40            6.5027    -1.9331    -0.1715 H       
  41 H41            6.2599    -2.0638    -1.9300 H       
  42 H42            5.5911    -0.6749    -1.0400 H       
@<TRIPOS>BOND
   1    1    2 1
   2    1    8 2
   3    1    9 am
   4    2    3 ar
   5    2    7 ar
   6    3    4 ar
   7    3   28 1
   8    4    5 ar
   9    4   29 1
  10    5    6 ar
  11    5   14 1
  12    6    7 ar
  13    6   27 1
  14    7   30 1
  15    9   10 am
  16    9   31 1
  17   10   11 2
  18   10   12 2
  19   10   13 1
  20   13   32 1
  21   13   33 1
  22   13   34 1
  23   14   16 1
  24   15   16 ar
  25   15   24 ar
  26   16   17 ar
  27   17   18 ar
  28   17   35 1
  29   18   19 ar
  30   18   36 1
  31   19   20 ar
  32   19   24 ar
  33   20   21 ar
  34   20   37 1
  35   21   22 ar
  36   21   38 1
  37   22   23 ar
  38   22   39 1
  39   23   24 ar
  40   23   25 1
  41   25   26 1
  42   26   40 1
  43   26   41 1
  44   26   42 1

#	End of record

