#	Name: ASD10160161
#	Creating user name:	WinNT
#	Creation time:	15. 06. 2019 21:25

#	Modifying user name:	WinNT
#	Modification time:	15. 06. 2019 21:25

#	Program:	/corina/corina34_cracker 3.40 0067  02.08.2006

@<TRIPOS>MOLECULE
ASD10160161
  46   47    0    0    0
SMALL
NO_CHARGES


@<TRIPOS>ATOM
   1 C1            -3.3576    -5.4105     4.2341 C.2     
   2 C2            -2.4705    -5.1009     3.0978 C.ar    
   3 C3            -1.1660    -5.6079     3.0671 C.ar    
   4 C4            -0.3393    -5.3151     2.0011 C.ar    
   5 C5            -0.8001    -4.5190     0.9610 C.ar    
   6 C6            -2.0972    -4.0128     0.9878 C.ar    
   7 C7            -2.9316    -4.3048     2.0448 C.ar    
   8 O8            -2.9564    -6.1072     5.1464 O.2     
   9 N9            -4.6113    -4.9168     4.2642 N.am    
  10 S10           -5.6077    -5.2646     5.5404 S.o2    
  11 O11           -6.8277    -4.6098     5.2211 O.2     
  12 O12           -5.5446    -6.6792     5.6589 O.2     
  13 C13           -4.8129    -4.4705     6.9646 C.3     
  14 F14           -2.5400    -3.2387    -0.0270 F       
  15 F15           -0.7168    -6.3818     4.0792 F       
  16 O16            0.0164    -4.2329    -0.0848 O.3     
  17 C17            2.3552    -3.9328     0.2532 C.ar    
  18 C18            1.2774    -4.7416    -0.0682 C.ar    
  19 C19            1.5004    -6.0819    -0.3735 C.ar    
  20 C20            2.7998    -6.5575    -0.3438 C.ar    
  21 C21            3.8329    -5.6861    -0.0120 C.ar    
  22 N22            3.5822    -4.4183     0.2727 N.ar    
  23 N23            5.1447    -6.1534     0.0211 N.3     
  24 C24            6.0977    -5.0659    -0.2378 C.3     
  25 C25            7.4654    -5.6579    -0.5841 C.3     
  26 C26            5.4358    -6.8151     1.3000 C.3     
  27 C27            5.1456    -5.8499     2.4511 C.3     
  28 Cl28           3.1365    -8.2196    -0.7150 Cl      
  29 H29            0.6673    -5.7056     1.9762 H       
  30 H30           -3.9389    -3.9156     2.0621 H       
  31 H31           -4.9301    -4.3579     3.5384 H       
  32 H32           -4.7380    -3.3976     6.7874 H       
  33 H33           -5.4082    -4.6502     7.8598 H       
  34 H34           -3.8149    -4.8865     7.1024 H       
  35 H35            2.1897    -2.8914     0.4866 H       
  36 H36            0.6785    -6.7351    -0.6271 H       
  37 H37            5.7416    -4.4617    -1.0722 H       
  38 H38            6.1866    -4.4414     0.6511 H       
  39 H39            7.3587    -6.3595    -1.4114 H       
  40 H40            8.1456    -4.8566    -0.8727 H       
  41 H41            7.8662    -6.1793     0.2852 H       
  42 H42            4.8088    -7.7009     1.4017 H       
  43 H43            6.4854    -7.1077     1.3270 H       
  44 H44            5.7105    -4.9293     2.3046 H       
  45 H45            4.0798    -5.6224     2.4746 H       
  46 H46            5.4396    -6.3105     3.3943 H       
@<TRIPOS>BOND
   1    1    2 1
   2    1    8 2
   3    1    9 am
   4    2    3 ar
   5    2    7 ar
   6    3    4 ar
   7    3   15 1
   8    4    5 ar
   9    4   29 1
  10    5    6 ar
  11    5   16 1
  12    6    7 ar
  13    6   14 1
  14    7   30 1
  15    9   10 am
  16    9   31 1
  17   10   11 2
  18   10   12 2
  19   10   13 1
  20   13   32 1
  21   13   33 1
  22   13   34 1
  23   16   18 1
  24   17   18 ar
  25   17   22 ar
  26   17   35 1
  27   18   19 ar
  28   19   20 ar
  29   19   36 1
  30   20   21 ar
  31   20   28 1
  32   21   22 ar
  33   21   23 1
  34   23   24 1
  35   23   26 1
  36   24   25 1
  37   24   37 1
  38   24   38 1
  39   25   39 1
  40   25   40 1
  41   25   41 1
  42   26   27 1
  43   26   42 1
  44   26   43 1
  45   27   44 1
  46   27   45 1
  47   27   46 1

#	End of record

