#	Name: ASD10030005
#	Creating user name:	WinNT
#	Creation time:	15. 06. 2019 21:24

#	Modifying user name:	WinNT
#	Modification time:	15. 06. 2019 21:24

#	Program:	/corina/corina34_cracker 3.40 0067  02.08.2006

@<TRIPOS>MOLECULE
ASD10030005
  28   28    0    0    0
SMALL
NO_CHARGES


@<TRIPOS>ATOM
   1 C1            -0.0172     1.4135     0.0098 C.2     
   2 C2             0.0021    -0.0041     0.0020 C.2     
   3 C3             1.1811    -0.6636    -0.0128 C.2     
   4 O4             1.0280     2.0360     0.0032 O.2     
   5 O5            -1.1947     2.0722     0.0190 O.3     
   6 C6             1.2010    -2.1330    -0.0209 C.ar    
   7 C7             2.4216    -2.8180    -0.0362 C.ar    
   8 C8             2.4363    -4.1996    -0.0433 C.ar    
   9 C9             1.2387    -4.9106    -0.0352 C.ar    
  10 C10            0.0223    -4.2324    -0.0199 C.ar    
  11 C11           -0.0004    -2.8510    -0.0074 C.ar    
  12 O12           -1.1446    -4.9309    -0.0121 O.3     
  13 C13           -2.3551    -4.1716     0.0036 C.3     
  14 O14            3.6217    -4.8660    -0.0586 O.3     
  15 C15            4.8112    -4.0740    -0.0667 C.3     
  16 O16            1.2572    -6.2695    -0.0426 O.3     
  17 H17           -0.9258    -0.5567     0.0079 H       
  18 H18            2.1090    -0.1109    -0.0187 H       
  19 H19           -1.1067     3.0352     0.0238 H       
  20 H20            3.3506    -2.2673    -0.0428 H       
  21 H21           -0.9439    -2.3258     0.0086 H       
  22 H22           -3.2089    -4.8491     0.0085 H       
  23 H23           -2.3812    -3.5477     0.8970 H       
  24 H24           -2.3985    -3.5388    -0.8829 H       
  25 H25            4.8198    -3.4405    -0.9536 H       
  26 H26            4.8379    -3.4494     0.8262 H       
  27 H27            5.6831    -4.7280    -0.0788 H       
  28 H28            1.2713    -6.6675     0.8386 H       
@<TRIPOS>BOND
   1    1    2 1
   2    1    4 2
   3    1    5 1
   4    2    3 2
   5    2   17 1
   6    3    6 1
   7    3   18 1
   8    5   19 1
   9    6    7 ar
  10    6   11 ar
  11    7    8 ar
  12    7   20 1
  13    8    9 ar
  14    8   14 1
  15    9   10 ar
  16    9   16 1
  17   10   11 ar
  18   10   12 1
  19   11   21 1
  20   12   13 1
  21   13   22 1
  22   13   23 1
  23   13   24 1
  24   14   15 1
  25   15   25 1
  26   15   26 1
  27   15   27 1
  28   16   28 1

#	End of record

