#	Name: ASD13110021
#	Creating user name:	WinNT
#	Creation time:	15. 06. 2019 21:30

#	Modifying user name:	WinNT
#	Modification time:	15. 06. 2019 21:30

#	Program:	/corina/corina34_cracker 3.40 0067  02.08.2006

@<TRIPOS>MOLECULE
ASD13110021
  31   32    0    0    0
SMALL
NO_CHARGES


@<TRIPOS>ATOM
   1 C1            -0.0721     1.5135    -0.4539 C.ar    
   2 C2            -0.1606     0.1611    -0.7299 C.ar    
   3 C3             0.9352    -0.6658    -0.5424 C.ar    
   4 C4             2.1271    -0.1477    -0.0778 C.ar    
   5 C5             2.2283     1.2130     0.2030 C.ar    
   6 C6             1.1189     2.0480     0.0125 C.ar    
   7 Cl7           -1.6538    -0.5044    -1.3142 Cl      
   8 N8             3.4052     1.7439     0.6653 N.2     
   9 C9             3.4009     2.8952     1.2502 C.2     
  10 C10            2.1124     3.6522     1.4327 C.3     
  11 N11            1.2206     3.4094     0.2925 N.3     
  12 O12            1.4736     3.2177     2.6349 O.3     
  13 C13           -0.1043     3.9992     0.5261 C.3     
  14 C14            0.0486     5.4597     0.8644 C.2     
  15 O15            1.1308     5.9899     0.7776 O.2     
  16 O16           -1.0175     6.1717     1.2623 O.3     
  17 C17           -0.7963     7.5730     1.5717 C.3     
  18 C18           -2.1164     8.2145     2.0036 C.3     
  19 H19           -0.9288     2.1533    -0.6059 H       
  20 H20            0.8562    -1.7206    -0.7604 H       
  21 H21            2.9789    -0.7954     0.0680 H       
  22 H22            4.3272     3.3175     1.6109 H       
  23 H23            2.3263     4.7186     1.5040 H       
  24 H24            2.0019     3.3555     3.4330 H       
  25 H25           -0.7116     3.8962    -0.3732 H       
  26 H26           -0.5908     3.4834     1.3540 H       
  27 H27           -0.0701     7.6562     2.3803 H       
  28 H28           -0.4158     8.0846     0.6876 H       
  29 H29           -2.8425     8.1312     1.1950 H       
  30 H30           -2.4969     7.7029     2.8877 H       
  31 H31           -1.9503     9.2664     2.2359 H       
@<TRIPOS>BOND
   1    1    2 ar
   2    1    6 ar
   3    1   19 1
   4    2    3 ar
   5    2    7 1
   6    3    4 ar
   7    3   20 1
   8    4    5 ar
   9    4   21 1
  10    5    8 1
  11    5    6 ar
  12    6   11 1
  13    8    9 2
  14    9   10 1
  15    9   22 1
  16   10   11 1
  17   10   12 1
  18   10   23 1
  19   11   13 1
  20   12   24 1
  21   13   14 1
  22   13   25 1
  23   13   26 1
  24   14   15 2
  25   14   16 1
  26   16   17 1
  27   17   18 1
  28   17   27 1
  29   17   28 1
  30   18   29 1
  31   18   30 1
  32   18   31 1

#	End of record

