#	Name: ASD13110032
#	Creating user name:	WinNT
#	Creation time:	15. 06. 2019 21:30

#	Modifying user name:	WinNT
#	Modification time:	15. 06. 2019 21:30

#	Program:	/corina/corina34_cracker 3.40 0067  02.08.2006

@<TRIPOS>MOLECULE
ASD13110032
  25   26    0    0    0
SMALL
NO_CHARGES


@<TRIPOS>ATOM
   1 C1            -0.0167     1.3830     0.0096 C.ar    
   2 C2             0.0021    -0.0041     0.0020 C.ar    
   3 C3             1.2129    -0.6828    -0.0127 C.ar    
   4 C4             2.4034     0.0173    -0.0203 C.ar    
   5 C5             2.3928     1.4036    -0.0132 C.ar    
   6 C6             1.1780     2.0877     0.0020 C.ar    
   7 C7            -1.0733    -2.1255     0.0009 C.3     
   8 O8             3.3791     2.3348    -0.0182 O.3     
   9 C9             2.8300     3.5593    -0.0072 C.2     
  10 N10            1.4869     3.4490     0.0068 N.am    
  11 O11            3.4486     4.6063    -0.0073 O.2     
  12 F12           -1.1944     2.0450     0.0188 F       
  13 F13           -0.3739    -2.5538     1.1343 F       
  14 F14           -0.3957    -2.5415    -1.1502 F       
  15 F15           -2.3589    -2.6772     0.0102 F       
  16 O16           -1.1668    -0.6996     0.0094 O.3     
  17 C17            0.5267     4.5553     0.0217 C.3     
  18 C18            0.2102     4.9267     1.4475 C.2     
  19 O19            0.7332     4.3287     2.3579 O.2     
  20 O20           -0.6525     5.9220     1.7061 O.3     
  21 H21            1.2240    -1.7627    -0.0179 H       
  22 H22            3.3428    -0.5154    -0.0314 H       
  23 H23            0.9560     5.4159    -0.4913 H       
  24 H24           -0.3882     4.2492    -0.4856 H       
  25 H25           -0.8238     6.1239     2.6362 H       
@<TRIPOS>BOND
   1    1    2 ar
   2    1    6 ar
   3    1   12 1
   4    2    3 ar
   5    2   16 1
   6    3    4 ar
   7    3   21 1
   8    4    5 ar
   9    4   22 1
  10    5    8 1
  11    5    6 ar
  12    6   10 1
  13    7   13 1
  14    7   14 1
  15    7   15 1
  16    7   16 1
  17    8    9 1
  18    9   10 am
  19    9   11 2
  20   10   17 1
  21   17   18 1
  22   17   23 1
  23   17   24 1
  24   18   19 2
  25   18   20 1
  26   20   25 1

#	End of record

