#	Name: ASD13490064
#	Creating user name:	WinNT
#	Creation time:	15. 06. 2019 21:30

#	Modifying user name:	WinNT
#	Modification time:	15. 06. 2019 21:30

#	Program:	/corina/corina34_cracker 3.40 0067  02.08.2006

@<TRIPOS>MOLECULE
ASD13490064
  65   69    0    0    0
SMALL
NO_CHARGES


@<TRIPOS>ATOM
   1 C1            -1.0953     1.0524    -0.8720 C.ar    
   2 C2            -1.2219    -0.3308    -0.9085 C.ar    
   3 C3            -0.1133    -1.1209    -1.1528 C.ar    
   4 C4             1.1361    -0.5226    -1.3631 C.ar    
   5 C5             1.2547     0.8672    -1.3249 C.ar    
   6 C6             0.1443     1.6469    -1.0807 C.ar    
   7 C7             2.3245    -1.3608    -1.6242 C.2     
   8 O8             2.7326    -2.4267    -0.9013 O.3     
   9 C9             3.8490    -2.9030    -1.4714 C.2     
  10 N10            4.1398    -2.1734    -2.5113 N.2     
  11 C11            3.2132    -1.2113    -2.6403 C.2     
  12 C12            4.6401    -4.0908    -0.9874 C.3     
  13 O13           -0.2353    -2.4734    -1.1883 O.3     
  14 C14           -1.5394    -3.0133    -0.9646 C.3     
  15 N15           -2.2169     1.8478    -0.6309 N.3     
  16 C16           -1.8620     3.2732    -0.6347 C.3     
  17 C17           -3.1398     4.1146    -0.5486 C.3     
  18 N18           -3.9144     3.6696     0.6199 N.am    
  19 C19           -4.1923     2.2326     0.7643 C.3     
  20 C20           -2.8730     1.4653     0.6265 C.3     
  21 C21           -4.3580     4.5553     1.5338 C.2     
  22 O22           -5.0745     4.1833     2.4430 O.2     
  23 N23           -4.0074     5.8532     1.4400 N.am    
  24 C24           -4.5774     6.8348     2.3661 C.3     
  25 C25           -4.4762     8.2122     1.7632 C.ar    
  26 C26           -5.3965     9.2109     2.1248 C.ar    
  27 C27           -3.4898     8.4971     0.8699 C.ar    
  28 C28           -3.3801     9.7653     0.3023 C.ar    
  29 C29           -4.2562    10.7556     0.6247 C.ar    
  30 C30           -5.2851    10.5004     1.5475 C.ar    
  31 C31           -6.2059    11.4988     1.9086 C.ar    
  32 C32           -7.1895    11.2151     2.8053 C.ar    
  33 C33           -7.2988     9.9471     3.3734 C.ar    
  34 C34           -6.4255     8.9556     3.0474 C.ar    
  35 C35           -3.8056     6.7982     3.6867 C.3     
  36 H36           -2.1862    -0.7891    -0.7456 H       
  37 H37            2.2162     1.3318    -1.4862 H       
  38 H38            0.2374     2.7225    -1.0517 H       
  39 H39            3.1815    -0.4544    -3.4101 H       
  40 H40            4.2639    -4.9963    -1.4636 H       
  41 H41            5.6911    -3.9558    -1.2427 H       
  42 H42            4.5373    -4.1795     0.0941 H       
  43 H43           -1.4967    -4.1010    -1.0199 H       
  44 H44           -1.8925    -2.7131     0.0219 H       
  45 H45           -2.2236    -2.6374    -1.7253 H       
  46 H46           -1.2243     3.4916     0.2219 H       
  47 H47           -1.3299     3.5132    -1.5553 H       
  48 H48           -2.8786     5.1668    -0.4356 H       
  49 H49           -3.7309     3.9763    -1.4539 H       
  50 H50           -4.6269     2.0404     1.7453 H       
  51 H51           -4.8846     1.9134    -0.0148 H       
  52 H52           -3.0741     0.3941     0.6207 H       
  53 H53           -2.2213     1.7089     1.4656 H       
  54 H54           -3.3776     6.1375     0.7592 H       
  55 H55           -5.6246     6.5949     2.5505 H       
  56 H56           -2.7812     7.7291     0.5971 H       
  57 H57           -2.5877     9.9653    -0.4038 H       
  58 H58           -4.1587    11.7336     0.1772 H       
  59 H59           -6.1330    12.4861     1.4770 H       
  60 H60           -7.8958    11.9842     3.0811 H       
  61 H61           -8.0883     9.7485     4.0831 H       
  62 H62           -6.5224     7.9778     3.4956 H       
  63 H63           -2.7585     7.0381     3.5023 H       
  64 H64           -4.2298     7.5285     4.3758 H       
  65 H65           -3.8788     5.8019     4.1228 H       
@<TRIPOS>BOND
   1    1    2 ar
   2    1    6 ar
   3    1   15 1
   4    2    3 ar
   5    2   36 1
   6    3    4 ar
   7    3   13 1
   8    4    5 ar
   9    4    7 1
  10    5    6 ar
  11    5   37 1
  12    6   38 1
  13    7    8 1
  14    7   11 2
  15    8    9 1
  16    9   10 2
  17    9   12 1
  18   10   11 1
  19   11   39 1
  20   12   40 1
  21   12   41 1
  22   12   42 1
  23   13   14 1
  24   14   43 1
  25   14   44 1
  26   14   45 1
  27   15   16 1
  28   15   20 1
  29   16   17 1
  30   16   46 1
  31   16   47 1
  32   17   18 1
  33   17   48 1
  34   17   49 1
  35   18   19 1
  36   18   21 am
  37   19   20 1
  38   19   50 1
  39   19   51 1
  40   20   52 1
  41   20   53 1
  42   21   22 2
  43   21   23 am
  44   23   24 1
  45   23   54 1
  46   24   25 1
  47   24   35 1
  48   24   55 1
  49   25   27 ar
  50   25   26 ar
  51   26   30 ar
  52   26   34 ar
  53   27   28 ar
  54   27   56 1
  55   28   29 ar
  56   28   57 1
  57   29   30 ar
  58   29   58 1
  59   30   31 ar
  60   31   32 ar
  61   31   59 1
  62   32   33 ar
  63   32   60 1
  64   33   34 ar
  65   33   61 1
  66   34   62 1
  67   35   63 1
  68   35   64 1
  69   35   65 1

#	End of record

