#	Name: ASD12970012
#	Creating user name:	WinNT
#	Creation time:	15. 06. 2019 21:30

#	Modifying user name:	WinNT
#	Modification time:	15. 06. 2019 21:30

#	Program:	/corina/corina34_cracker 3.40 0067  02.08.2006

@<TRIPOS>MOLECULE
ASD12970012
  10    9    0    0    0
SMALL
NO_CHARGES


@<TRIPOS>ATOM
   1 C1            -0.0184     1.5028     0.0103 C.3     
   2 C2             0.0021    -0.0041     0.0020 C.2     
   3 C3             1.3172    -0.7397    -0.0145 C.3     
   4 O4            -1.0354    -0.6220     0.0086 O.2     
   5 H5             1.0042     1.8801     0.0026 H       
   6 H6            -0.5455     1.8639    -0.8728 H       
   7 H7            -0.5286     1.8543     0.9071 H       
   8 H8             2.1360    -0.0202    -0.0184 H       
   9 H9             1.3919    -1.3703     0.8714 H       
  10 H10            1.3749    -1.3607    -0.9084 H       
@<TRIPOS>BOND
   1    1    2 1
   2    1    5 1
   3    1    6 1
   4    1    7 1
   5    2    3 1
   6    2    4 2
   7    3    8 1
   8    3    9 1
   9    3   10 1

#	End of record

