#	Name: ASD13010047
#	Creating user name:	WinNT
#	Creation time:	15. 06. 2019 21:30

#	Modifying user name:	WinNT
#	Modification time:	15. 06. 2019 21:30

#	Program:	/corina/corina34_cracker 3.40 0067  02.08.2006

@<TRIPOS>MOLECULE
ASD13010047
  26   28    0    0    0
SMALL
NO_CHARGES


@<TRIPOS>ATOM
   1 C1            -0.0165     1.3621     0.0095 C.ar    
   2 C2             0.0021    -0.0041     0.0020 C.ar    
   3 C3             1.2047    -0.6992    -0.0132 C.ar    
   4 C4             2.3947    -0.0298    -0.0205 C.ar    
   5 C5             1.1819     2.0716     0.0019 C.ar    
   6 N6             1.4943     3.4060     0.0061 N.pl3   
   7 C7             2.4018     1.3682    -0.0131 C.ar    
   8 C8             3.4586     2.3795    -0.0173 C.2     
   9 N9             2.8852     3.5523    -0.0064 N.2     
  10 O10            4.7966     2.1412    -0.0307 O.3     
  11 C11            5.6353     3.2108    -0.0326 C.ar    
  12 C12            6.0490     3.7679    -1.2350 C.ar    
  13 C13            6.0753     3.7518     1.1677 C.ar    
  14 C14            6.9280     4.8401     1.1625 C.ar    
  15 C15            7.3421     5.3898    -0.0367 C.ar    
  16 C16            6.9018     4.8562    -1.2337 C.ar    
  17 Cl17           5.4967     3.0986    -2.7385 Cl      
  18 Cl18           5.5549     3.0630     2.6738 Cl      
  19 H19           -0.9583     1.8906     0.0169 H       
  20 H20           -0.9296    -0.5502     0.0083 H       
  21 H21            1.1984    -1.7791    -0.0189 H       
  22 H22            3.3255    -0.5774    -0.0316 H       
  23 H23            0.8527     4.1335     0.0156 H       
  24 H24            7.2706     5.2614     2.0960 H       
  25 H25            8.0077     6.2404    -0.0382 H       
  26 H26            7.2243     5.2898    -2.1688 H       
@<TRIPOS>BOND
   1    1    2 ar
   2    1    5 ar
   3    1   19 1
   4    2    3 ar
   5    2   20 1
   6    3    4 ar
   7    3   21 1
   8    4    7 ar
   9    4   22 1
  10    5    7 ar
  11    5    6 1
  12    6    9 1
  13    6   23 1
  14    7    8 1
  15    8    9 2
  16    8   10 1
  17   10   11 1
  18   11   13 ar
  19   11   12 ar
  20   12   16 ar
  21   12   17 1
  22   13   14 ar
  23   13   18 1
  24   14   15 ar
  25   14   24 1
  26   15   16 ar
  27   15   25 1
  28   16   26 1

#	End of record

