#	Name: ASD15530001
#	Creating user name:	WinNT
#	Creation time:	15. 06. 2019 21:31

#	Modifying user name:	WinNT
#	Modification time:	15. 06. 2019 21:31

#	Program:	/corina/corina34_cracker 3.40 0067  02.08.2006

@<TRIPOS>MOLECULE
ASD15530001
  50   52    0    0    0
SMALL
NO_CHARGES


@<TRIPOS>ATOM
   1 C1            -0.0167     1.3833     0.0096 C.ar    
   2 C2             0.0021    -0.0041     0.0020 C.ar    
   3 C3             1.2139    -0.6788    -0.0132 C.ar    
   4 C4             2.3989     0.0317    -0.0207 C.ar    
   5 C5             2.3774     1.4139    -0.0126 C.ar    
   6 C6             1.1706     2.0890     0.0021 C.ar    
   7 O7            -1.1648    -0.7006     0.0099 O.3     
   8 C8            -2.3744     0.0601     0.0260 C.3     
   9 C9            -3.5740    -0.8895     0.0328 C.3     
  10 C10            3.6714     2.1863    -0.0198 C.3     
  11 C11            1.2380    -2.1856    -0.0210 C.3     
  12 S12            1.2310    -2.7816    -1.7343 S.3     
  13 C13            1.2610    -4.5331    -1.5448 C.2     
  14 C14            1.2825    -5.1685    -0.3166 C.2     
  15 C15            1.3027    -6.5019    -0.3695 C.2     
  16 S16            1.2959    -7.0568    -1.9823 S.3     
  17 C17            1.2594    -5.4124    -2.6033 C.2     
  18 C18            1.2348    -5.0514    -3.9706 C.2     
  19 O19            1.2127    -3.8760    -4.2899 O.2     
  20 N20            1.2360    -6.0077    -4.9202 N.am    
  21 S21            1.2072    -5.5851    -6.5211 S.o2    
  22 C22            2.7154    -4.7413    -6.8649 C.ar    
  23 O23            1.2500    -6.7995    -7.2576 O.2     
  24 O24            0.1690    -4.6255    -6.6641 O.2     
  25 C25            3.8247    -5.4516    -7.2840 C.ar    
  26 C26            5.0079    -4.7897    -7.5537 C.ar    
  27 C27            5.0817    -3.4174    -7.4047 C.ar    
  28 C28            3.9720    -2.7069    -6.9865 C.ar    
  29 C29            2.7876    -3.3684    -6.7210 C.ar    
  30 F30            4.0599     2.4329    -1.3409 F       
  31 F31            3.4923     3.4024     0.6483 F       
  32 F32            4.6631     1.4408     0.6266 F       
  33 H33           -0.9590     1.9110     0.0170 H       
  34 H34            3.3426    -0.4933    -0.0325 H       
  35 H35            1.1565     3.1689     0.0080 H       
  36 H36           -2.3995     0.6837     0.9196 H       
  37 H37           -2.4172     0.6932    -0.8603 H       
  38 H38           -3.5312    -1.5227     0.9190 H       
  39 H39           -4.4966    -0.3093     0.0451 H       
  40 H40           -3.5489    -1.5131    -0.8609 H       
  41 H41            2.1386    -2.5372     0.4823 H       
  42 H42            0.3590    -2.5658     0.4995 H       
  43 H43            1.2833    -4.6254     0.6169 H       
  44 H44            1.3213    -7.1463     0.4970 H       
  45 H45            1.2536    -6.9437    -4.6659 H       
  46 H46            3.7671    -6.5238    -7.4004 H       
  47 H47            5.8749    -5.3447    -7.8805 H       
  48 H48            6.0063    -2.9003    -7.6148 H       
  49 H49            4.0297    -1.6348    -6.8698 H       
  50 H50            1.9196    -2.8129    -6.3978 H       
@<TRIPOS>BOND
   1    1    2 ar
   2    1    6 ar
   3    1   33 1
   4    2    3 ar
   5    2    7 1
   6    3    4 ar
   7    3   11 1
   8    4    5 ar
   9    4   34 1
  10    5    6 ar
  11    5   10 1
  12    6   35 1
  13    7    8 1
  14    8    9 1
  15    8   36 1
  16    8   37 1
  17    9   38 1
  18    9   39 1
  19    9   40 1
  20   10   30 1
  21   10   31 1
  22   10   32 1
  23   11   12 1
  24   11   41 1
  25   11   42 1
  26   12   13 1
  27   13   14 1
  28   13   17 2
  29   14   15 2
  30   14   43 1
  31   15   16 1
  32   15   44 1
  33   16   17 1
  34   17   18 1
  35   18   19 2
  36   18   20 am
  37   20   21 am
  38   20   45 1
  39   21   22 1
  40   21   23 2
  41   21   24 2
  42   22   25 ar
  43   22   29 ar
  44   25   26 ar
  45   25   46 1
  46   26   27 ar
  47   26   47 1
  48   27   28 ar
  49   27   48 1
  50   28   29 ar
  51   28   49 1
  52   29   50 1

#	End of record

