#	Name: ASD10410012
#	Creating user name:	WinNT
#	Creation time:	15. 06. 2019 21:26

#	Modifying user name:	WinNT
#	Modification time:	15. 06. 2019 21:26

#	Program:	/corina/corina34_cracker 3.40 0067  02.08.2006

@<TRIPOS>MOLECULE
ASD10410012
  55   58    0    0    0
SMALL
NO_CHARGES


@<TRIPOS>ATOM
   1 C1             0.5299     1.3764     0.4457 C.ar    
   2 C2             0.5582    -0.0032     0.4585 C.ar    
   3 C3             1.6249    -0.6709     1.0581 C.ar    
   4 C4             2.6579     0.0596     1.6419 C.ar    
   5 C5             2.6196     1.4404     1.6235 C.ar    
   6 C6             1.5576     2.0975     1.0265 C.ar    
   7 Cl7            3.9054     2.3529     2.3501 Cl      
   8 C8             1.6599    -2.1535     1.0751 C.ar    
   9 N9             0.5351    -2.8546     1.1949 N.ar    
  10 C10            2.8741    -2.8359     0.9596 C.ar    
  11 C11            2.8573    -4.2191     0.9800 C.ar    
  12 N12            1.7010    -4.8507     1.1073 N.ar    
  13 C13            0.5640    -4.1780     1.2098 C.ar    
  14 C14            4.1714    -2.0826     0.8156 C.3     
  15 N15           -0.6246    -4.8775     1.3416 N.pl3   
  16 C16           -0.6289    -6.2724     1.2472 C.ar    
  17 C17           -1.5071    -7.0197     2.0214 C.ar    
  18 C18           -1.5091    -8.3974     1.9254 C.ar    
  19 C19           -0.6380    -9.0330     1.0597 C.ar    
  20 C20            0.2380    -8.2920     0.2878 C.ar    
  21 C21            0.2412    -6.9137     0.3747 C.ar    
  22 C22           -0.6430   -10.5365     0.9575 C.3     
  23 N23           -1.5931   -10.9535    -0.0824 N.3     
  24 C24           -1.4559   -12.3867    -0.3770 C.3     
  25 C25           -2.5133   -12.7971    -1.4045 C.3     
  26 N26           -2.3461   -11.9935    -2.6234 N.3     
  27 C27           -2.4833   -10.5603    -2.3289 C.3     
  28 C28           -1.4258   -10.1499    -1.3014 C.3     
  29 C29           -3.2961   -12.4105    -3.6634 C.3     
  30 H30           -0.2940     1.8941    -0.0227 H       
  31 H31           -0.2451    -0.5648     0.0049 H       
  32 H32            3.4866    -0.4526     2.1082 H       
  33 H33            1.5311     3.1771     1.0144 H       
  34 H34            3.7776    -4.7775     0.8926 H       
  35 H35            4.5893    -1.8868     1.8031 H       
  36 H36            4.8752    -2.6787     0.2349 H       
  37 H37            3.9879    -1.1373     0.3048 H       
  38 H38           -1.4537    -4.3995     1.4993 H       
  39 H39           -2.1875    -6.5240     2.6980 H       
  40 H40           -2.1915    -8.9791     2.5274 H       
  41 H41            0.9172    -8.7915    -0.3871 H       
  42 H42            0.9253    -6.3355    -0.2286 H       
  43 H43            0.3562   -10.8864     0.6983 H       
  44 H44           -0.9410   -10.9647     1.9146 H       
  45 H45           -0.4621   -12.5816    -0.7802 H       
  46 H46           -1.5962   -12.9612     0.5386 H       
  47 H47           -2.3949   -13.8534    -1.6462 H       
  48 H48           -3.5074   -12.6277    -0.9908 H       
  49 H49           -2.3429    -9.9858    -3.2445 H       
  50 H50           -3.4770   -10.3654    -1.9256 H       
  51 H51           -1.5443    -9.0937    -1.0597 H       
  52 H52           -0.4317   -10.3194    -1.7151 H       
  53 H53           -4.3148   -12.2824    -3.2974 H       
  54 H54           -3.1507   -11.7997    -4.5544 H       
  55 H55           -3.1278   -13.4588    -3.9101 H       
@<TRIPOS>BOND
   1    1    2 ar
   2    1    6 ar
   3    1   30 1
   4    2    3 ar
   5    2   31 1
   6    3    4 ar
   7    3    8 1
   8    4    5 ar
   9    4   32 1
  10    5    6 ar
  11    5    7 1
  12    6   33 1
  13    8    9 ar
  14    8   10 ar
  15    9   13 ar
  16   10   11 ar
  17   10   14 1
  18   11   12 ar
  19   11   34 1
  20   12   13 ar
  21   13   15 1
  22   14   35 1
  23   14   36 1
  24   14   37 1
  25   15   16 1
  26   15   38 1
  27   16   17 ar
  28   16   21 ar
  29   17   18 ar
  30   17   39 1
  31   18   19 ar
  32   18   40 1
  33   19   20 ar
  34   19   22 1
  35   20   21 ar
  36   20   41 1
  37   21   42 1
  38   22   23 1
  39   22   43 1
  40   22   44 1
  41   23   24 1
  42   23   28 1
  43   24   25 1
  44   24   45 1
  45   24   46 1
  46   25   26 1
  47   25   47 1
  48   25   48 1
  49   26   27 1
  50   26   29 1
  51   27   28 1
  52   27   49 1
  53   27   50 1
  54   28   51 1
  55   28   52 1
  56   29   53 1
  57   29   54 1
  58   29   55 1

#	End of record

