#	Name: ASD10410208
#	Creating user name:	WinNT
#	Creation time:	15. 06. 2019 21:27

#	Modifying user name:	WinNT
#	Modification time:	15. 06. 2019 21:27

#	Program:	/corina/corina34_cracker 3.40 0067  02.08.2006

@<TRIPOS>MOLECULE
ASD10410208
  50   53    0    0    0
SMALL
NO_CHARGES


@<TRIPOS>ATOM
   1 C1            -0.0183     1.3918    -0.0811 C.ar    
   2 C2            -0.0057     0.0094     0.0246 C.ar    
   3 C3             1.2019    -0.6695     0.1158 C.ar    
   4 C4             2.3919     0.0324     0.1009 C.ar    
   5 C5             2.3792     1.4172    -0.0054 C.ar    
   6 C6             1.1708     2.0949    -0.0962 C.ar    
   7 O7            -1.1770    -0.6819     0.0393 O.3     
   8 Cl8            1.2167    -2.4003     0.2493 Cl      
   9 N9             3.5842     2.1294    -0.0202 N.pl3   
  10 C10            3.6705     3.3400    -0.7078 C.2     
  11 N11            4.7081     4.1421    -0.7099 N.2     
  12 N12            2.7101     3.8672    -1.4762 N.2     
  13 C13            3.1203     5.0143    -1.9734 C.2     
  14 N14            4.3767     5.2386    -1.5221 N.pl3   
  15 C15            5.1839     6.3417    -1.8084 C.ar    
  16 N16            2.3976     5.8421    -2.8113 N.pl3   
  17 N17            4.9858     7.0274    -2.9232 N.ar    
  18 C18            6.1837     6.7127    -0.9175 C.ar    
  19 C19            5.7251     8.0751    -3.2316 C.ar    
  20 C20            6.7403     8.4967    -2.3948 C.ar    
  21 C21            6.9766     7.8081    -1.2133 C.ar    
  22 C22           -2.3817     0.0807    -0.0577 C.3     
  23 C23           -3.5862    -0.8622    -0.0249 C.3     
  24 N24           -3.6517    -1.5275     1.2831 N.3     
  25 C25           -2.3389    -2.0973     1.6541 C.3     
  26 C26           -4.6491    -2.6133     1.2743 C.3     
  27 C27           -3.9179    -3.9093     1.6832 C.3     
  28 C28           -2.6761    -3.3828     2.4499 C.3     
  29 H29           -0.9580     1.9188    -0.1561 H       
  30 H30            3.3314    -0.4954     0.1722 H       
  31 H31            1.1604     3.1717    -0.1792 H       
  32 H32            4.3592     1.7811     0.4477 H       
  33 H33            1.5004     5.5933    -3.0832 H       
  34 H34            2.7876     6.6720    -3.1277 H       
  35 H35            6.3398     6.1541    -0.0064 H       
  36 H36            5.5347     8.6101    -4.1502 H       
  37 H37            7.3408     9.3557    -2.6553 H       
  38 H38            7.7638     8.1175    -0.5417 H       
  39 H39           -2.4408     0.7749     0.7805 H       
  40 H40           -2.3833     0.6398    -0.9934 H       
  41 H41           -4.4997    -0.2904    -0.1879 H       
  42 H42           -3.4821    -1.6120    -0.8091 H       
  43 H43           -1.7659    -2.3438     0.7602 H       
  44 H44           -1.7848    -1.3978     2.2801 H       
  45 H45           -5.4424    -2.3939     1.9889 H       
  46 H46           -5.0681    -2.7238     0.2741 H       
  47 H47           -4.5452    -4.5162     2.3361 H       
  48 H48           -3.6154    -4.4755     0.8023 H       
  49 H49           -1.8553    -4.0984     2.4020 H       
  50 H50           -2.9268    -3.1472     3.4842 H       
@<TRIPOS>BOND
   1    1    2 ar
   2    1    6 ar
   3    1   29 1
   4    2    3 ar
   5    2    7 1
   6    3    4 ar
   7    3    8 1
   8    4    5 ar
   9    4   30 1
  10    5    6 ar
  11    5    9 1
  12    6   31 1
  13    7   22 1
  14    9   10 1
  15    9   32 1
  16   10   11 2
  17   10   12 1
  18   11   14 1
  19   12   13 2
  20   13   14 1
  21   13   16 1
  22   14   15 1
  23   15   17 ar
  24   15   18 ar
  25   16   33 1
  26   16   34 1
  27   17   19 ar
  28   18   21 ar
  29   18   35 1
  30   19   20 ar
  31   19   36 1
  32   20   21 ar
  33   20   37 1
  34   21   38 1
  35   22   23 1
  36   22   39 1
  37   22   40 1
  38   23   24 1
  39   23   41 1
  40   23   42 1
  41   24   26 1
  42   24   25 1
  43   25   28 1
  44   25   43 1
  45   25   44 1
  46   26   27 1
  47   26   45 1
  48   26   46 1
  49   27   28 1
  50   27   47 1
  51   27   48 1
  52   28   49 1
  53   28   50 1

#	End of record

