#	Name: ASD10220027
#	Creating user name:	WinNT
#	Creation time:	15. 06. 2019 21:26

#	Modifying user name:	WinNT
#	Modification time:	15. 06. 2019 21:26

#	Program:	/corina/corina34_cracker 3.40 0067  02.08.2006

@<TRIPOS>MOLECULE
ASD10220027
  30   32    0    0    0
SMALL
NO_CHARGES


@<TRIPOS>ATOM
   1 C1            -0.0058     1.4639    -0.1741 C.2     
   2 C2             0.0245     0.0574    -0.3264 C.2     
   3 C3            -1.1127    -0.6702    -0.3851 C.2     
   4 C4            -2.4354    -0.0527    -0.2954 C.2     
   5 C5            -2.5492     1.3202    -0.1453 C.2     
   6 C6            -1.3370     2.1512    -0.0709 C.2     
   7 O7            -3.6779    -0.5709    -0.3296 O.3     
   8 C8            -4.6075     0.3791    -0.2109 C.2     
   9 C9            -3.9871     1.6056    -0.0894 C.2     
  10 O10           -1.4108     3.3548     0.0607 O.2     
  11 O11            1.0262     2.1030    -0.1227 O.2     
  12 C12           -4.6314     2.9214     0.0634 C.2     
  13 O13           -3.9539     3.9100     0.2696 O.2     
  14 C14           -6.1015     3.0402    -0.0340 C.ar    
  15 C15           -6.7709     4.0521     0.6580 C.ar    
  16 C16           -8.1427     4.1571     0.5627 C.ar    
  17 C17           -8.8559     3.2627    -0.2163 C.ar    
  18 C18           -8.1992     2.2576    -0.9041 C.ar    
  19 C19           -6.8267     2.1448    -0.8227 C.ar    
  20 Br20           1.6932    -0.8233    -0.4512 Br      
  21 Br21          -0.9899    -2.5461    -0.5903 Br      
  22 C22           -8.8668     5.2479     1.3089 C.3     
  23 H23           -5.6749     0.2143    -0.2098 H       
  24 H24           -6.2155     4.7505     1.2665 H       
  25 H25           -9.9301     3.3495    -0.2874 H       
  26 H26           -8.7620     1.5626    -1.5096 H       
  27 H27           -6.3153     1.3600    -1.3602 H       
  28 H28           -8.9373     6.1343     0.6785 H       
  29 H29           -9.8686     4.9066     1.5694 H       
  30 H30           -8.3180     5.4918     2.2186 H       
@<TRIPOS>BOND
   1    1    2 1
   2    1   11 2
   3    1    6 1
   4    2    3 2
   5    2   20 1
   6    3    4 1
   7    3   21 1
   8    4    5 2
   9    4    7 1
  10    5    6 1
  11    5    9 1
  12    6   10 2
  13    7    8 1
  14    8    9 2
  15    8   23 1
  16    9   12 1
  17   12   13 2
  18   12   14 1
  19   14   15 ar
  20   14   19 ar
  21   15   16 ar
  22   15   24 1
  23   16   17 ar
  24   16   22 1
  25   17   18 ar
  26   17   25 1
  27   18   19 ar
  28   18   26 1
  29   19   27 1
  30   22   28 1
  31   22   29 1
  32   22   30 1

#	End of record

