#	Name: ASD11910007
#	Creating user name:	WinNT
#	Creation time:	15. 06. 2019 21:29

#	Modifying user name:	WinNT
#	Modification time:	15. 06. 2019 21:29

#	Program:	/corina/corina34_cracker 3.40 0067  02.08.2006

@<TRIPOS>MOLECULE
ASD11910007
  28   29    0    0    0
SMALL
NO_CHARGES


@<TRIPOS>ATOM
   1 N1            -0.0166     1.3764     0.0096 N.pl3   
   2 C2             0.0021    -0.0041     0.0020 C.ar    
   3 O3             3.9965     5.1733     2.2762 O.3     
   4 C4             1.0965    -4.1380    -0.0288 C.3     
   5 N5             2.0809     0.7761    -0.0136 N.2     
   6 C6             3.1084     4.9472     1.1797 C.3     
   7 C7             2.6646     3.4830     1.1766 C.3     
   8 C8             1.7137     3.2408     0.0026 C.3     
   9 C9             1.2765     1.7986    -0.0005 C.2     
  10 C10           -0.6182    -2.3147    -0.0037 C.ar    
  11 C11            0.7204    -2.6787    -0.0184 C.ar    
  12 C12            1.7014    -1.7275    -0.0231 C.ar    
  13 C13           -0.9806    -0.9842     0.0065 C.ar    
  14 C14            1.3580    -0.3734    -0.0129 C.ar    
  15 F15           -0.0644    -4.9188    -0.0212 F       
  16 F16            1.8403    -4.4197    -1.1797 F       
  17 F17            1.8625    -4.4303     1.1047 F       
  18 H18           -0.8056     1.9406     0.0166 H       
  19 H19            4.3187     6.0828     2.3403 H       
  20 H20            2.2350     5.5914     1.2808 H       
  21 H21            3.6207     5.1736     0.2446 H       
  22 H22            3.5380     2.8387     1.0755 H       
  23 H23            2.1523     3.2566     2.1117 H       
  24 H24            0.8403     3.8850     0.1037 H       
  25 H25            2.2259     3.4672    -0.9325 H       
  26 H26           -1.3817    -3.0785     0.0002 H       
  27 H27            2.7404    -2.0220    -0.0345 H       
  28 H28           -2.0241    -0.7062     0.0184 H       
@<TRIPOS>BOND
   1    1    2 1
   2    1    9 1
   3    1   18 1
   4    2   13 ar
   5    2   14 ar
   6    3    6 1
   7    3   19 1
   8    4   11 1
   9    4   15 1
  10    4   16 1
  11    4   17 1
  12    5    9 2
  13    5   14 1
  14    6    7 1
  15    6   20 1
  16    6   21 1
  17    7    8 1
  18    7   22 1
  19    7   23 1
  20    8    9 1
  21    8   24 1
  22    8   25 1
  23   10   11 ar
  24   10   13 ar
  25   10   26 1
  26   11   12 ar
  27   12   14 ar
  28   12   27 1
  29   13   28 1

#	End of record

