#	Name: ASD10160532
#	Creating user name:	WinNT
#	Creation time:	15. 06. 2019 21:26

#	Modifying user name:	WinNT
#	Modification time:	15. 06. 2019 21:26

#	Program:	/corina/corina34_cracker 3.40 0067  02.08.2006

@<TRIPOS>MOLECULE
ASD10160532
  35   37    0    0    0
SMALL
NO_CHARGES


@<TRIPOS>ATOM
   1 C1            -2.2268    -2.5987     4.8619 C.2     
   2 C2            -1.6261    -3.0021     3.5788 C.ar    
   3 C3            -0.3008    -3.4535     3.5344 C.ar    
   4 C4             0.2566    -3.8305     2.3295 C.ar    
   5 C5            -0.4946    -3.7625     1.1634 C.ar    
   6 C6            -1.8117    -3.3140     1.2036 C.ar    
   7 C7            -2.3789    -2.9410     2.4016 C.ar    
   8 O8            -1.5725    -2.6573     5.8842 O.2     
   9 O9            -3.5003    -2.1595     4.9012 O.3     
  10 F10            0.4302    -3.5193     4.6686 F       
  11 O11            0.0574    -4.1342    -0.0193 O.3     
  12 C12            2.4220    -3.8534    -0.1437 C.ar    
  13 C13            1.3073    -4.6674    -0.0004 C.ar    
  14 C14            1.4876    -6.0372     0.1634 C.ar    
  15 C15            2.7811    -6.5341     0.1766 C.ar    
  16 C16            3.8414    -5.6600     0.0278 C.ar    
  17 N17            3.6360    -4.3663    -0.1255 N.ar    
  18 C18            3.0289    -8.0103     0.3515 C.3     
  19 F19            1.8055    -8.6764     0.4809 F       
  20 F20            3.7129    -8.5038    -0.7646 F       
  21 F21            3.7984    -8.2209     1.5007 F       
  22 C22            5.2512    -6.1923     0.0416 C.3     
  23 C23            6.1069    -5.9581    -1.2049 C.3     
  24 C24            6.3911    -5.1724     0.0768 C.3     
  25 Cl25          -2.7436    -3.2316    -0.2588 Cl      
  26 H26            1.2784    -4.1785     2.2934 H       
  27 H27           -3.4023    -2.5975     2.4316 H       
  28 H28           -3.8508    -1.9061     5.7661 H       
  29 H29            2.2933    -2.7893    -0.2759 H       
  30 H30            0.6403    -6.6970     0.2778 H       
  31 H31            5.3953    -7.1276     0.5825 H       
  32 H32            6.8143    -6.7391    -1.4838 H       
  33 H33            5.6502    -5.4189    -2.0349 H       
  34 H34            6.1214    -4.1164     0.0901 H       
  35 H35            7.2854    -5.4365     0.6412 H       
@<TRIPOS>BOND
   1    1    2 1
   2    1    8 2
   3    1    9 1
   4    2    3 ar
   5    2    7 ar
   6    3    4 ar
   7    3   10 1
   8    4    5 ar
   9    4   26 1
  10    5    6 ar
  11    5   11 1
  12    6    7 ar
  13    6   25 1
  14    7   27 1
  15    9   28 1
  16   11   13 1
  17   12   13 ar
  18   12   17 ar
  19   12   29 1
  20   13   14 ar
  21   14   15 ar
  22   14   30 1
  23   15   16 ar
  24   15   18 1
  25   16   17 ar
  26   16   22 1
  27   18   19 1
  28   18   20 1
  29   18   21 1
  30   22   23 1
  31   22   24 1
  32   22   31 1
  33   23   24 1
  34   23   32 1
  35   23   33 1
  36   24   34 1
  37   24   35 1

#	End of record

