#	Name: ASD10160521
#	Creating user name:	WinNT
#	Creation time:	15. 06. 2019 21:26

#	Modifying user name:	WinNT
#	Modification time:	15. 06. 2019 21:26

#	Program:	/corina/corina34_cracker 3.40 0067  02.08.2006

@<TRIPOS>MOLECULE
ASD10160521
  25   25    0    0    0
SMALL
NO_CHARGES


@<TRIPOS>ATOM
   1 C1            -0.0167     1.3813     0.0096 C.ar    
   2 C2             0.0021    -0.0041     0.0020 C.ar    
   3 C3             1.2263    -0.6660    -0.0132 C.ar    
   4 C4             2.3849     0.0910    -0.0202 C.ar    
   5 C5             2.2884     1.4761    -0.0118 C.ar    
   6 N6             1.1079     2.0714     0.0026 N.ar    
   7 O7            -1.1613    -0.7084     0.0098 O.3     
   8 C8             3.7344    -0.5796    -0.0361 C.3     
   9 F9             3.5650    -1.9683    -0.0416 F       
  10 F10            4.4348    -0.1908    -1.1831 F       
  11 F11            4.4561    -0.2023     1.1014 F       
  12 O12            3.4190     2.2276    -0.0181 O.3     
  13 C13            3.2545     3.6471    -0.0089 C.3     
  14 C14            4.6286     4.3199    -0.0179 C.3     
  15 C15            5.3923     3.9031    -1.2764 C.3     
  16 F16            6.6488     4.5182    -1.2846 F       
  17 F17            5.5534     2.5134    -1.2854 F       
  18 F18            4.4675     5.7095    -0.0089 F       
  19 F19            5.3478     3.9264     1.1158 F       
  20 H20           -0.9627     1.9023     0.0169 H       
  21 H21            1.2712    -1.7451    -0.0191 H       
  22 H22           -1.5065    -0.9073    -0.8713 H       
  23 H23            2.6941     3.9536    -0.8922 H       
  24 H24            2.7104     3.9440     0.8877 H       
  25 H25            4.8319     4.2096    -2.1597 H       
@<TRIPOS>BOND
   1    1    2 ar
   2    1    6 ar
   3    1   20 1
   4    2    3 ar
   5    2    7 1
   6    3    4 ar
   7    3   21 1
   8    4    5 ar
   9    4    8 1
  10    5    6 ar
  11    5   12 1
  12    7   22 1
  13    8    9 1
  14    8   10 1
  15    8   11 1
  16   12   13 1
  17   13   14 1
  18   13   23 1
  19   13   24 1
  20   14   15 1
  21   14   18 1
  22   14   19 1
  23   15   16 1
  24   15   17 1
  25   15   25 1

#	End of record

