#	Name: ASD13900001
#	Creating user name:	WinNT
#	Creation time:	15. 06. 2019 21:30

#	Modifying user name:	WinNT
#	Modification time:	15. 06. 2019 21:30

#	Program:	/corina/corina34_cracker 3.40 0067  02.08.2006

@<TRIPOS>MOLECULE
ASD13900001
 112  111    0    0    0
SMALL
NO_CHARGES


@<TRIPOS>ATOM
   1 O1            -0.0161     1.3381     0.0094 O.3     
   2 O2             0.4170     3.9174     1.2599 O.3     
   3 O3             1.0565    -0.5939    -0.0112 O.2     
   4 O4             1.4338     5.8735     1.1079 O.2     
   5 O5            -1.0689     3.1668    -1.0983 O.3     
   6 C6            -4.0363    -9.1252    -0.0084 C.3     
   7 C7            -4.3362    -7.6249     0.0025 C.3     
   8 C8            -5.3507    -9.9082    -0.0001 C.3     
   9 C9            -3.0217    -6.8420    -0.0058 C.3     
  10 C10           -5.0508   -11.4084    -0.0110 C.3     
  11 C11           -3.3217    -5.3417     0.0051 C.3     
  12 C12           -6.3653   -12.1914    -0.0026 C.3     
  13 C13           -2.0072    -4.5588    -0.0033 C.3     
  14 C14           -6.0653   -13.6917    -0.0136 C.3     
  15 C15           -2.3072    -3.0585     0.0077 C.3     
  16 C16           -7.3798   -14.4746    -0.0052 C.3     
  17 C17           -0.9927    -2.2755    -0.0007 C.3     
  18 C18           -7.0798   -15.9749    -0.0161 C.3     
  19 C19           -1.2926    -0.7753     0.0102 C.3     
  20 C20            0.3917     8.9476     4.9251 C.3     
  21 C21           -0.2357     9.4279     6.2352 C.3     
  22 C22           -1.1247    18.4505     6.9348 C.3     
  23 C23           -0.4936    17.4818     7.9369 C.3     
  24 C24           -0.0812     7.5238     4.6251 C.3     
  25 C25            0.2371    10.8518     6.5352 C.3     
  26 C26           -0.6518    19.8744     7.2348 C.3     
  27 C27           -0.9664    16.0580     7.6369 C.3     
  28 C28            0.5462     7.0434     3.3149 C.3     
  29 C29           -0.3902    11.3321     7.8454 C.3     
  30 C30           -1.2829    20.8431     6.2328 C.3     
  31 C31           -0.3353    15.0892     8.6389 C.3     
  32 C32           -8.3943   -16.7578    -0.0078 C.3     
  33 C33            0.0734     5.6196     3.0149 C.3     
  34 C34            0.0021    -0.0041     0.0020 C.2     
  35 C35           -0.8101    22.2670     6.5328 C.3     
  36 C36            0.0755    12.7345     8.1409 C.2     
  37 C37           -0.8010    13.6868     8.3435 C.2     
  38 C38            1.0475     3.5287     0.0110 C.3     
  39 C39            1.2685     2.0148     0.0008 C.3     
  40 C40            0.6913     5.1465     1.7244 C.2     
  41 C41           -1.4412    23.2357     5.5307 C.3     
  42 C42            0.1439     3.9202    -1.1600 C.3     
  43 H43           -3.4697    -9.3759    -0.9052 H       
  44 H44           -3.4527    -9.3855     0.8747 H       
  45 H45           -4.9198    -7.3646    -0.8806 H       
  46 H46           -4.9028    -7.3742     0.8993 H       
  47 H47           -5.9173    -9.6574     0.8967 H       
  48 H48           -5.9343    -9.6479    -0.8831 H       
  49 H49           -2.4382    -7.1023     0.8772 H       
  50 H50           -2.4552    -7.0927    -0.9026 H       
  51 H51           -4.4842   -11.6592    -0.9078 H       
  52 H52           -4.4672   -11.6687     0.8721 H       
  53 H53           -3.9052    -5.0814    -0.8780 H       
  54 H54           -3.8882    -5.0910     0.9019 H       
  55 H55           -6.9318   -11.9407     0.8942 H       
  56 H56           -6.9488   -11.9311    -0.8857 H       
  57 H57           -1.4237    -4.8190     0.8798 H       
  58 H58           -1.4407    -4.8095    -0.9000 H       
  59 H59           -5.4988   -13.9424    -0.9103 H       
  60 H60           -5.4818   -13.9520     0.8695 H       
  61 H61           -2.8907    -2.7982    -0.8754 H       
  62 H62           -2.8737    -2.8077     0.9045 H       
  63 H63           -7.9464   -14.2239     0.8916 H       
  64 H64           -7.9633   -14.2143    -0.8883 H       
  65 H65           -0.4091    -2.5358     0.8824 H       
  66 H66           -0.4261    -2.5263    -0.8975 H       
  67 H67           -6.5133   -16.2256    -0.9129 H       
  68 H68           -6.4963   -16.2352     0.8669 H       
  69 H69           -1.8762    -0.5150    -0.8728 H       
  70 H70           -1.8592    -0.5245     0.9070 H       
  71 H71            0.0895     9.6094     4.1134 H       
  72 H72            1.4778     8.9580     5.0170 H       
  73 H73           -1.3218     9.4176     6.1433 H       
  74 H74            0.0665     8.7661     7.0469 H       
  75 H75           -0.8254    18.1737     5.9240 H       
  76 H76           -2.2105    18.4032     7.0181 H       
  77 H77            0.5922    17.5292     7.8536 H       
  78 H78           -0.7928    17.7586     8.9478 H       
  79 H79            0.2211     6.8619     5.4367 H       
  80 H80           -1.1672     7.5134     4.5331 H       
  81 H81            1.3232    10.8621     6.6272 H       
  82 H82           -0.0651    11.5136     5.7236 H       
  83 H83           -0.9511    20.1512     8.2457 H       
  84 H84            0.4340    19.9218     7.1516 H       
  85 H85           -2.0522    16.0106     7.7202 H       
  86 H86           -0.6671    15.7811     6.6260 H       
  87 H87            0.2440     7.7052     2.5032 H       
  88 H88            1.6323     7.0538     3.4069 H       
  89 H89           -1.4763    11.3217     7.7534 H       
  90 H90           -0.0880    10.6703     8.6571 H       
  91 H91           -0.9837    20.5663     5.2219 H       
  92 H92           -2.3687    20.7957     6.3161 H       
  93 H93            0.7505    15.1366     8.5557 H       
  94 H94           -0.6346    15.3660     9.6498 H       
  95 H95           -8.9609   -16.5071     0.8890 H       
  96 H96           -8.9779   -16.4976    -0.8909 H       
  97 H97           -8.1806   -17.8267    -0.0156 H       
  98 H98            0.3756     4.9578     3.8265 H       
  99 H99           -1.0127     5.6092     2.9229 H       
 100 H100          -1.1094    22.5438     7.5437 H       
 101 H101           0.2757    22.3144     6.4495 H       
 102 H102           1.1319    12.9545     8.1857 H       
 103 H103          -1.8574    13.4668     8.2987 H       
 104 H104           2.0071     4.0367    -0.0850 H       
 105 H105           1.8379     1.7248     0.8838 H       
 106 H106           1.8209     1.7343    -0.8960 H       
 107 H107          -2.5270    23.1883     5.6140 H       
 108 H108          -1.1044    24.2501     5.7445 H       
 109 H109          -1.1419    22.9589     4.5198 H       
 110 H110           0.6549     3.7097    -2.0994 H       
 111 H111          -0.0859     4.9841    -1.1017 H       
 112 H112          -1.6910     3.3639    -1.8119 H       
@<TRIPOS>BOND
   1    1   34 1
   2    1   39 1
   3    2   38 1
   4    2   40 1
   5    3   34 2
   6    4   40 2
   7    5   42 1
   8    5  112 1
   9    6    7 1
  10    6    8 1
  11    6   43 1
  12    6   44 1
  13    7    9 1
  14    7   45 1
  15    7   46 1
  16    8   10 1
  17    8   47 1
  18    8   48 1
  19    9   11 1
  20    9   49 1
  21    9   50 1
  22   10   12 1
  23   10   51 1
  24   10   52 1
  25   11   13 1
  26   11   53 1
  27   11   54 1
  28   12   14 1
  29   12   55 1
  30   12   56 1
  31   13   15 1
  32   13   57 1
  33   13   58 1
  34   14   16 1
  35   14   59 1
  36   14   60 1
  37   15   17 1
  38   15   61 1
  39   15   62 1
  40   16   18 1
  41   16   63 1
  42   16   64 1
  43   17   19 1
  44   17   65 1
  45   17   66 1
  46   18   32 1
  47   18   67 1
  48   18   68 1
  49   19   34 1
  50   19   69 1
  51   19   70 1
  52   20   21 1
  53   20   24 1
  54   20   71 1
  55   20   72 1
  56   21   25 1
  57   21   73 1
  58   21   74 1
  59   22   23 1
  60   22   26 1
  61   22   75 1
  62   22   76 1
  63   23   27 1
  64   23   77 1
  65   23   78 1
  66   24   28 1
  67   24   79 1
  68   24   80 1
  69   25   29 1
  70   25   81 1
  71   25   82 1
  72   26   30 1
  73   26   83 1
  74   26   84 1
  75   27   31 1
  76   27   85 1
  77   27   86 1
  78   28   33 1
  79   28   87 1
  80   28   88 1
  81   29   36 1
  82   29   89 1
  83   29   90 1
  84   30   35 1
  85   30   91 1
  86   30   92 1
  87   31   37 1
  88   31   93 1
  89   31   94 1
  90   32   95 1
  91   32   96 1
  92   32   97 1
  93   33   40 1
  94   33   98 1
  95   33   99 1
  96   35   41 1
  97   35  100 1
  98   35  101 1
  99   36   37 2
 100   36  102 1
 101   37  103 1
 102   38   39 1
 103   38   42 1
 104   38  104 1
 105   39  105 1
 106   39  106 1
 107   41  107 1
 108   41  108 1
 109   41  109 1
 110   42  110 1
 111   42  111 1

#	End of record

