#	Name: ASD13070002
#	Creating user name:	WinNT
#	Creation time:	15. 06. 2019 21:30

#	Modifying user name:	WinNT
#	Modification time:	15. 06. 2019 21:30

#	Program:	/corina/corina34_cracker 3.40 0067  02.08.2006

@<TRIPOS>MOLECULE
ASD13070002
  22   23    0    0    0
SMALL
NO_CHARGES


@<TRIPOS>ATOM
   1 C1            -0.0127     1.0858     0.0080 C.3     
   2 N2             1.3617     1.5929    -0.0024 N.pl3   
   3 C3             2.1057     1.8779    -1.1315 C.2     
   4 C4             3.3323     2.3273    -0.7550 C.2     
   5 C5             3.3747     2.3301     0.6599 C.ar    
   6 C6             4.3585     2.6848     1.5920 C.ar    
   7 C7             4.0986     2.5767     2.9280 C.ar    
   8 Br8            5.4291     3.0565     4.1832 Br      
   9 C9             2.8649     2.1177     3.3738 C.ar    
  10 C10            1.8821     1.7630     2.4769 C.ar    
  11 C11            2.1216     1.8692     1.1098 C.ar    
  12 C12            1.6449     1.7199    -2.5173 C.2     
  13 O13            2.3850     2.0016    -3.4398 O.2     
  14 O14            0.4011     1.2625    -2.7663 O.3     
  15 H15           -0.5399     1.4469    -0.8751 H       
  16 H16            0.0021    -0.0041     0.0020 H       
  17 H17           -0.5229     1.4373     0.9048 H       
  18 H18            4.1310     2.6283    -1.4167 H       
  19 H19            5.3201     3.0426     1.2547 H       
  20 H20            2.6752     2.0380     4.4341 H       
  21 H21            0.9267     1.4073     2.8331 H       
  22 H22            0.1429     1.1754    -3.6941 H       
@<TRIPOS>BOND
   1    1   16 1
   2    1    2 1
   3    1   15 1
   4    1   17 1
   5    2    3 1
   6    2   11 1
   7    3   12 1
   8    3    4 2
   9    4   18 1
  10    4    5 1
  11    5    6 ar
  12    5   11 ar
  13    6   19 1
  14    6    7 ar
  15    7    8 1
  16    7    9 ar
  17    9   10 ar
  18    9   20 1
  19   10   11 ar
  20   10   21 1
  21   12   14 1
  22   12   13 2
  23   14   22 1

#	End of record

