#	Name: ASD10410093
#	Creating user name:	WinNT
#	Creation time:	15. 06. 2019 21:26

#	Modifying user name:	WinNT
#	Modification time:	15. 06. 2019 21:26

#	Program:	/corina/corina34_cracker 3.40 0067  02.08.2006

@<TRIPOS>MOLECULE
ASD10410093
  64   70    0    0    0
SMALL
NO_CHARGES


@<TRIPOS>ATOM
   1 C1             0.1338     1.0856     0.4449 C.ar    
   2 C2             0.1998    -0.2924     0.2864 C.ar    
   3 C3             1.4277    -0.9108     0.0901 C.ar    
   4 C4             2.5829    -0.1554     0.0520 C.ar    
   5 C5             2.5169     1.2228     0.2101 C.ar    
   6 C6             1.2890     1.8411     0.4069 C.ar    
   7 N7             3.6885     1.9888     0.1719 N.pl3   
   8 C8             3.6545     3.2905    -0.3274 C.2     
   9 N9             4.6593     4.1330    -0.3223 N.2     
  10 N10            2.5929     3.8767    -0.8933 N.2     
  11 C11            2.9029     5.1037    -1.2533 C.2     
  12 N12            4.2021     5.3210    -0.9152 N.pl3   
  13 C13            4.9336     6.4891    -1.1172 C.ar    
  14 N14            2.0597     6.0090    -1.8681 N.pl3   
  15 N15           -0.9712    -1.0582     0.3250 N.3     
  16 C16           -0.6738    -2.4850     0.1369 C.3     
  17 C17           -1.9667    -3.2940     0.2648 C.3     
  18 N18           -2.9360    -2.8248    -0.7351 N.3     
  19 C19           -3.2334    -1.3979    -0.5470 C.3     
  20 C20           -1.9405    -0.5890    -0.6749 C.3     
  21 N21            4.3734     7.5445    -1.6942 N.ar    
  22 C22            5.0625     8.6545    -1.8881 C.ar    
  23 N23            6.3159     8.7779    -1.5296 N.ar    
  24 C24            6.9755     7.7593    -0.9343 C.ar    
  25 C25            6.2728     6.5713    -0.7089 C.ar    
  26 C26           -5.1686    -3.1326    -1.7607 C.3     
  27 C27           -5.3778    -4.3561    -2.7044 C.3     
  28 C28           -4.0262    -4.4946    -3.4695 C.3     
  29 C29           -3.0227    -4.9905    -2.4034 C.3     
  30 C30           -4.1650    -3.6285    -0.6946 C.3     
  31 C31           -3.8625    -5.1049    -1.0945 C.3     
  32 C32           -5.2532    -5.5379    -1.6791 C.3     
  33 C33            8.3025     7.6919    -0.4813 C.2     
  34 C34            8.6663     6.5433     0.0666 C.2     
  35 S35            7.3310     5.4033     0.0686 S.3     
  36 H36           -0.8215     1.5669     0.5934 H       
  37 H37            1.4791    -1.9826    -0.0324 H       
  38 H38            3.5378    -0.6364    -0.1003 H       
  39 H39            1.2376     2.9128     0.5298 H       
  40 H40            4.5236     1.6141     0.4927 H       
  41 H41            1.1449     5.7588    -2.0715 H       
  42 H42            2.3824     6.8948    -2.0962 H       
  43 H43           -0.2445    -2.6396    -0.8530 H       
  44 H44            0.0362    -2.8118     0.8967 H       
  45 H45           -1.7533    -4.3497     0.0969 H       
  46 H46           -2.3816    -3.1610     1.2639 H       
  47 H47           -3.9435    -1.0712    -1.3067 H       
  48 H48           -3.6627    -1.2434     0.4429 H       
  49 H49           -2.1539     0.4667    -0.5070 H       
  50 H50           -1.5256    -0.7220    -1.6740 H       
  51 H51            4.5732     9.4930    -2.3612 H       
  52 H52           -4.7500    -2.2925    -2.3149 H       
  53 H53           -6.1109    -2.8484    -1.2924 H       
  54 H54           -6.2752    -4.3330    -3.3227 H       
  55 H55           -4.1179    -5.2247    -4.2737 H       
  56 H56           -3.7132    -3.5287    -3.8658 H       
  57 H57           -2.6210    -5.9643    -2.6834 H       
  58 H58           -2.2163    -4.2683    -2.2756 H       
  59 H59           -4.6133    -3.5861     0.2981 H       
  60 H60           -3.4401    -5.7338    -0.3108 H       
  61 H61           -6.0401    -5.5099    -0.9253 H       
  62 H62           -5.2040    -6.5068    -2.1760 H       
  63 H63            8.9837     8.5248    -0.5742 H       
  64 H64            9.6503     6.3362     0.4607 H       
@<TRIPOS>BOND
   1    1    2 ar
   2    1    6 ar
   3    1   36 1
   4    2    3 ar
   5    2   15 1
   6    3    4 ar
   7    3   37 1
   8    4    5 ar
   9    4   38 1
  10    5    6 ar
  11    5    7 1
  12    6   39 1
  13    7    8 1
  14    7   40 1
  15    8    9 2
  16    8   10 1
  17    9   12 1
  18   10   11 2
  19   11   12 1
  20   11   14 1
  21   12   13 1
  22   13   21 ar
  23   13   25 ar
  24   14   41 1
  25   14   42 1
  26   15   16 1
  27   15   20 1
  28   16   17 1
  29   16   43 1
  30   16   44 1
  31   17   18 1
  32   17   45 1
  33   17   46 1
  34   18   19 1
  35   18   30 1
  36   19   20 1
  37   19   47 1
  38   19   48 1
  39   20   49 1
  40   20   50 1
  41   21   22 ar
  42   22   23 ar
  43   22   51 1
  44   23   24 ar
  45   24   25 ar
  46   24   33 1
  47   25   35 1
  48   26   27 1
  49   26   30 1
  50   26   52 1
  51   26   53 1
  52   27   28 1
  53   27   32 1
  54   27   54 1
  55   28   29 1
  56   28   55 1
  57   28   56 1
  58   29   31 1
  59   29   57 1
  60   29   58 1
  61   30   31 1
  62   30   59 1
  63   31   32 1
  64   31   60 1
  65   32   61 1
  66   32   62 1
  67   33   34 2
  68   33   63 1
  69   34   35 1
  70   34   64 1

#	End of record

