#	Name: ASD14730002
#	Creating user name:	WinNT
#	Creation time:	15. 06. 2019 21:31

#	Modifying user name:	WinNT
#	Modification time:	15. 06. 2019 21:31

#	Program:	/corina/corina34_cracker 3.40 0067  02.08.2006

@<TRIPOS>MOLECULE
ASD14730002
  67   68    0    0    0
SMALL
NO_CHARGES


@<TRIPOS>ATOM
   1 O1             0.4020     1.7244    -0.0466 O.3     
   2 O2             5.6118     3.4522     0.1983 O.3     
   3 O3             2.2326    -4.9917    -5.6454 O.3     
   4 O4             3.3777    -3.2178    -6.3341 O.2     
   5 C5             0.1861     0.3138    -0.0363 C.3     
   6 C6             0.5600    -0.2626    -1.4034 C.3     
   7 C7            -0.3103     0.3821    -2.4840 C.3     
   8 C8             1.0231    -0.3482     1.0261 C.2     
   9 C9            -1.2921     0.0328     0.2410 C.3     
  10 C10            1.6881     2.1611    -0.0073 C.ar    
  11 C11            2.6352     1.4172     0.7094 C.ar    
  12 C12            2.1994     0.1681     1.3691 C.2     
  13 C13            0.0580    -0.1856    -3.8306 C.2     
  14 C14            2.0714     3.3198    -0.6560 C.ar    
  15 C15           -0.8434    -0.8107    -4.5467 C.2     
  16 C16           -0.5127    -1.2648    -5.9450 C.3     
  17 C17            3.9535     1.8525     0.7825 C.ar    
  18 C18            3.3856     3.7465    -0.5862 C.ar    
  19 C19           -0.0553    -2.7245    -5.9124 C.3     
  20 C20            4.3245     3.0192     0.1323 C.ar    
  21 C21            1.0597     4.1168    -1.4384 C.3     
  22 C22           -2.2112    -1.0756    -3.9721 C.3     
  23 C23            0.2754    -3.1786    -7.3108 C.2     
  24 C24            1.4684    -3.7062    -7.5744 C.2     
  25 C25            1.8428    -4.0517    -8.9927 C.3     
  26 C26            2.6254    -2.8913    -9.6107 C.3     
  27 C27            2.9998    -3.2368   -11.0289 C.2     
  28 C28            2.4206    -3.9520    -6.4825 C.2     
  29 C29            2.6731    -2.4297   -12.0077 C.2     
  30 C30            2.0119    -1.1094   -11.7068 C.3     
  31 C31            2.9586    -2.8216   -13.4346 C.3     
  32 H32            1.6098    -0.0548    -1.6105 H       
  33 H33            0.3967    -1.3403    -1.4003 H       
  34 H34           -1.3601     0.1743    -2.2769 H       
  35 H35           -0.1469     1.4598    -2.4871 H       
  36 H36            0.6667    -1.2449     1.5112 H       
  37 H37           -1.9013     0.4904    -0.5384 H       
  38 H38           -1.4619    -1.0438     0.2498 H       
  39 H39           -1.5661     0.4518     1.2093 H       
  40 H40            2.8202    -0.3124     2.1108 H       
  41 H41            1.0651    -0.0772    -4.2052 H       
  42 H42           -1.3977    -1.1754    -6.5750 H       
  43 H43            0.2857    -0.6428    -6.3498 H       
  44 H44            4.6832     1.2861     1.3421 H       
  45 H45            3.6831     4.6519    -1.0942 H       
  46 H46            0.8297    -2.8139    -5.2825 H       
  47 H47           -0.8537    -3.3465    -5.5077 H       
  48 H48            0.5937     4.8540    -0.7846 H       
  49 H49            1.5577     4.6261    -2.2635 H       
  50 H50            0.2959     3.4468    -1.8330 H       
  51 H51           -2.8431    -0.1998    -4.1197 H       
  52 H52           -2.6566    -1.9339    -4.4751 H       
  53 H53           -2.1232    -1.2846    -2.9060 H       
  54 H54           -0.4557    -3.0759    -8.0990 H       
  55 H55            2.4606    -4.9497    -8.9969 H       
  56 H56            0.9382    -4.2303    -9.5740 H       
  57 H57            2.0076    -1.9933    -9.6064 H       
  58 H58            3.5300    -2.7127    -9.0293 H       
  59 H59            6.1780     3.1117    -0.5078 H       
  60 H60            3.5374    -4.1498   -11.2384 H       
  61 H61            2.7745    -0.3649   -11.4780 H       
  62 H62            1.4364    -0.7853   -12.5739 H       
  63 H63            1.3466    -1.2229   -10.8509 H       
  64 H64            2.1046    -3.3642   -13.8401 H       
  65 H65            3.1352    -1.9253   -14.0292 H       
  66 H66            3.8423    -3.4589   -13.4665 H       
  67 H67            2.8854    -5.1130    -4.9424 H       
@<TRIPOS>BOND
   1    1    5 1
   2    1   10 1
   3    2   20 1
   4    2   59 1
   5    3   28 1
   6    3   67 1
   7    4   28 2
   8    5    6 1
   9    5    8 1
  10    5    9 1
  11    6    7 1
  12    6   32 1
  13    6   33 1
  14    7   13 1
  15    7   34 1
  16    7   35 1
  17    8   12 2
  18    8   36 1
  19    9   37 1
  20    9   38 1
  21    9   39 1
  22   10   11 ar
  23   10   14 ar
  24   11   12 1
  25   11   17 ar
  26   12   40 1
  27   13   15 2
  28   13   41 1
  29   14   18 ar
  30   14   21 1
  31   15   16 1
  32   15   22 1
  33   16   19 1
  34   16   42 1
  35   16   43 1
  36   17   20 ar
  37   17   44 1
  38   18   20 ar
  39   18   45 1
  40   19   23 1
  41   19   46 1
  42   19   47 1
  43   21   48 1
  44   21   49 1
  45   21   50 1
  46   22   51 1
  47   22   52 1
  48   22   53 1
  49   23   24 2
  50   23   54 1
  51   24   25 1
  52   24   28 1
  53   25   26 1
  54   25   55 1
  55   25   56 1
  56   26   27 1
  57   26   57 1
  58   26   58 1
  59   27   29 2
  60   27   60 1
  61   29   30 1
  62   29   31 1
  63   30   61 1
  64   30   62 1
  65   30   63 1
  66   31   64 1
  67   31   65 1
  68   31   66 1

#	End of record

