#	Name: ASD10100001
#	Creating user name:	WinNT
#	Creation time:	15. 06. 2019 21:24

#	Modifying user name:	WinNT
#	Modification time:	15. 06. 2019 21:24

#	Program:	/corina/corina34_cracker 3.40 0067  02.08.2006

@<TRIPOS>MOLECULE
ASD10100001
  44   45    0    0    0
SMALL
NO_CHARGES


@<TRIPOS>ATOM
   1 C1             0.9726    -1.2032     2.3181 C.ar    
   2 C2             0.5545    -1.8474     1.1688 C.ar    
   3 C3             0.4794    -3.2274     1.1382 C.ar    
   4 C4             0.8230    -3.9632     2.2569 C.ar    
   5 C5             1.2421    -3.3190     3.4059 C.ar    
   6 C6             1.3157    -1.9390     3.4370 C.ar    
   7 S7             1.0753     0.5554     2.3547 S.o2    
   8 O8             2.0088     0.8817     3.3752 O.2     
   9 O9             1.2197     0.9771     1.0054 O.2     
  10 N10           -0.3943     1.1216     2.8668 N.am    
  11 C11           -0.6789     1.2291     4.2998 C.3     
  12 C12           -3.2753     2.2143     0.0984 C.2     
  13 N13           -3.3176     0.9863     0.6461 N.am    
  14 C14           -2.3926     0.6052     1.5489 C.2     
  15 C15           -1.3744     1.5014     1.9207 C.2     
  16 C16           -1.3467     2.7466     1.3537 C.2     
  17 N17           -2.3125     3.0918     0.4358 N.am    
  18 O18           -2.4384    -0.5099     2.0409 O.2     
  19 O19           -4.1176     2.5348    -0.7181 O.2     
  20 C20           -2.2919     4.4220    -0.1777 C.3     
  21 C21           -3.1173     5.3890     0.6736 C.3     
  22 C22           -3.0958     6.7782     0.0328 C.3     
  23 C23           -3.9211     7.7453     0.8841 C.3     
  24 N24           -0.3624     3.6447     1.6976 N.pl3   
  25 H25            0.2860    -1.2725     0.2948 H       
  26 H26            0.1521    -3.7306     0.2404 H       
  27 H27            0.7637    -5.0413     2.2332 H       
  28 H28            1.5102    -3.8939     4.2800 H       
  29 H29            1.6428    -1.4357     4.3348 H       
  30 H30           -1.4070     2.0229     4.4671 H       
  31 H31           -1.0826     0.2836     4.6620 H       
  32 H32            0.2410     1.4609     4.8366 H       
  33 H33           -4.0206     0.3695     0.3888 H       
  34 H34           -1.2636     4.7782    -0.2384 H       
  35 H35           -2.7170     4.3665    -1.1798 H       
  36 H36           -4.1456     5.0328     0.7343 H       
  37 H37           -2.6922     5.4445     1.6757 H       
  38 H38           -2.0674     7.1345    -0.0279 H       
  39 H39           -3.5208     6.7228    -0.9693 H       
  40 H40           -4.9495     7.3890     0.9448 H       
  41 H41           -3.4960     7.8008     1.8862 H       
  42 H42           -3.9058     8.7350     0.4276 H       
  43 H43            0.3738     3.3644     2.2636 H       
  44 H44           -0.4047     4.5582     1.3739 H       
@<TRIPOS>BOND
   1    1    2 ar
   2    1    6 ar
   3    1    7 1
   4    2    3 ar
   5    2   25 1
   6    3    4 ar
   7    3   26 1
   8    4    5 ar
   9    4   27 1
  10    5    6 ar
  11    5   28 1
  12    6   29 1
  13    7    8 2
  14    7    9 2
  15    7   10 am
  16   10   11 1
  17   10   15 1
  18   11   30 1
  19   11   31 1
  20   11   32 1
  21   12   13 am
  22   12   17 am
  23   12   19 2
  24   13   14 am
  25   13   33 1
  26   14   15 1
  27   14   18 2
  28   15   16 2
  29   16   17 1
  30   16   24 1
  31   17   20 1
  32   20   21 1
  33   20   34 1
  34   20   35 1
  35   21   22 1
  36   21   36 1
  37   21   37 1
  38   22   23 1
  39   22   38 1
  40   22   39 1
  41   23   40 1
  42   23   41 1
  43   23   42 1
  44   24   43 1
  45   24   44 1

#	End of record

