#	Name: ASD10410044
#	Creating user name:	WinNT
#	Creation time:	15. 06. 2019 21:26

#	Modifying user name:	WinNT
#	Modification time:	15. 06. 2019 21:26

#	Program:	/corina/corina34_cracker 3.40 0067  02.08.2006

@<TRIPOS>MOLECULE
ASD10410044
  56   59    0    0    0
SMALL
NO_CHARGES


@<TRIPOS>ATOM
   1 O1             0.2901     0.9930     1.3653 O.3     
   2 C2             0.0560    -0.1607     0.6854 C.ar    
   3 C3             0.7084    -1.3284     1.0539 C.ar    
   4 C4             1.4511     1.6490     1.1245 C.ar    
   5 N5             2.3571     1.1340     0.3022 N.ar    
   6 C6             1.7084     2.8775     1.7324 C.ar    
   7 C7             2.9053     3.5115     1.4576 C.ar    
   8 N8             3.7670     2.9382     0.6309 N.ar    
   9 C9             3.4931     1.7727     0.0639 C.ar    
  10 C10            0.7038     3.4998     2.6675 C.3     
  11 N11            4.4198     1.2051    -0.7951 N.pl3   
  12 C12            5.5775     1.9095    -1.1390 C.ar    
  13 C13            6.7573     1.2246    -1.4003 C.ar    
  14 C14            7.8989     1.9235    -1.7403 C.ar    
  15 C15            7.8683     3.3037    -1.8207 C.ar    
  16 C16            6.6955     3.9887    -1.5607 C.ar    
  17 C17            5.5488     3.2955    -1.2258 C.ar    
  18 C18            9.1160     4.0630    -2.1919 C.3     
  19 N19            9.1753     4.2240    -3.6509 N.3     
  20 C20           10.2441     5.1567    -4.0347 C.3     
  21 C21           10.3248     5.2357    -5.5611 C.3     
  22 N22            9.0285     5.6759    -6.0954 N.3     
  23 C23            7.9597     4.7432    -5.7116 C.3     
  24 C24            7.8790     4.6643    -4.1852 C.3     
  25 C25            9.0878     5.8370    -7.5544 C.3     
  26 C26           -0.8395    -0.1726    -0.3736 C.ar    
  27 C27           -1.0769    -1.3469    -1.0638 C.ar    
  28 C28           -0.4207    -2.5109    -0.6973 C.ar    
  29 C29            0.4697    -2.5004     0.3628 C.ar    
  30 F30           -0.6538    -3.6581    -1.3717 F       
  31 Cl31          -2.1976    -1.3630    -2.3895 Cl      
  32 H32            1.4031    -1.3210     1.8808 H       
  33 H33            3.1354     4.4640     1.9116 H       
  34 H34            0.8999     3.1655     3.6863 H       
  35 H35            0.7864     4.5856     2.6192 H       
  36 H36           -0.3016     3.1985     2.3734 H       
  37 H37            4.2655     0.3188    -1.1579 H       
  38 H38            6.7819     0.1467    -1.3373 H       
  39 H39            8.8166     1.3916    -1.9432 H       
  40 H40            6.6750     5.0666    -1.6241 H       
  41 H41            4.6332     3.8311    -1.0230 H       
  42 H42            9.0983     5.0446    -1.7184 H       
  43 H43            9.9920     3.5110    -1.8514 H       
  44 H44           10.0266     6.1453    -3.6304 H       
  45 H45           11.1956     4.8026    -3.6381 H       
  46 H46           11.0975     5.9488    -5.8480 H       
  47 H47           10.5691     4.2527    -5.9636 H       
  48 H48            7.0082     5.0974    -6.1082 H       
  49 H49            8.1772     3.7546    -6.1158 H       
  50 H50            7.1062     3.9511    -3.8983 H       
  51 H51            7.6346     5.6473    -3.7827 H       
  52 H52            9.3503     4.8845    -8.0147 H       
  53 H53            8.1156     6.1634    -7.9237 H       
  54 H54            9.8416     6.5827    -7.8072 H       
  55 H55           -1.3514     0.7346    -0.6586 H       
  56 H56            0.9805    -3.4084     0.6475 H       
@<TRIPOS>BOND
   1    1    2 1
   2    1    4 1
   3    2    3 ar
   4    2   26 ar
   5    3   29 ar
   6    3   32 1
   7    4    5 ar
   8    4    6 ar
   9    5    9 ar
  10    6    7 ar
  11    6   10 1
  12    7    8 ar
  13    7   33 1
  14    8    9 ar
  15    9   11 1
  16   10   34 1
  17   10   35 1
  18   10   36 1
  19   11   12 1
  20   11   37 1
  21   12   13 ar
  22   12   17 ar
  23   13   14 ar
  24   13   38 1
  25   14   15 ar
  26   14   39 1
  27   15   16 ar
  28   15   18 1
  29   16   17 ar
  30   16   40 1
  31   17   41 1
  32   18   19 1
  33   18   42 1
  34   18   43 1
  35   19   20 1
  36   19   24 1
  37   20   21 1
  38   20   44 1
  39   20   45 1
  40   21   22 1
  41   21   46 1
  42   21   47 1
  43   22   23 1
  44   22   25 1
  45   23   24 1
  46   23   48 1
  47   23   49 1
  48   24   50 1
  49   24   51 1
  50   25   52 1
  51   25   53 1
  52   25   54 1
  53   26   27 ar
  54   26   55 1
  55   27   28 ar
  56   27   31 1
  57   28   29 ar
  58   28   30 1
  59   29   56 1

#	End of record

