#	Name: ASD11810001
#	Creating user name:	WinNT
#	Creation time:	15. 06. 2019 21:29

#	Modifying user name:	WinNT
#	Modification time:	15. 06. 2019 21:29

#	Program:	/corina/corina34_cracker 3.40 0067  02.08.2006

@<TRIPOS>MOLECULE
ASD11810001
  43   45    0    0    0
SMALL
NO_CHARGES


@<TRIPOS>ATOM
   1 C1             1.3144    -3.7600    -2.3530 C.ar    
   2 C2             1.7326    -2.8378    -1.4112 C.ar    
   3 C3             2.4231    -1.7091    -1.8069 C.ar    
   4 C4             2.6978    -1.5010    -3.1523 C.ar    
   5 C5             2.2767    -2.4293    -4.0956 C.ar    
   6 C6             1.5862    -3.5557    -3.6933 C.ar    
   7 N7             3.3965    -0.3586    -3.5564 N.am    
   8 C8             4.4955     0.0330    -2.8817 C.2     
   9 N9             5.2183     1.0821    -3.3217 N.am    
  10 C10            6.3110     1.5397    -2.5780 C.ar    
  11 C11            7.2383     0.6360    -2.0755 C.ar    
  12 C12            8.3164     1.0912    -1.3420 C.ar    
  13 C13            8.4731     2.4450    -1.1077 C.ar    
  14 C14            7.5514     3.3473    -1.6063 C.ar    
  15 C15            6.4742     2.8992    -2.3454 C.ar    
  16 S16            9.8500     3.0214    -0.1715 S.o2    
  17 N17           11.0314     3.4498    -1.2500 N.am    
  18 C18           11.6289     2.4767    -2.0543 C.ar    
  19 C19           11.2921     2.3818    -3.3986 C.ar    
  20 C20           11.8851     1.4188    -4.1911 C.ar    
  21 C21           12.8133     0.5495    -3.6479 C.ar    
  22 C22           13.1509     0.6412    -2.3100 C.ar    
  23 C23           12.5656     1.6053    -1.5130 C.ar    
  24 O24            9.4301     4.2223     0.4617 O.2     
  25 O25           10.3474     1.8987     0.5435 O.2     
  26 S26            4.9735    -0.8021    -1.4657 S.2     
  27 H27            0.7781    -4.6438    -2.0405 H       
  28 H28            1.5187    -3.0003    -0.3651 H       
  29 H29            2.7489    -0.9889    -1.0709 H       
  30 H30            2.4884    -2.2701    -5.1426 H       
  31 H31            1.2588    -4.2781    -4.4263 H       
  32 H32            3.0901     0.1517    -4.3223 H       
  33 H33            4.9806     1.5198    -4.1541 H       
  34 H34            7.1162    -0.4214    -2.2578 H       
  35 H35            9.0376     0.3889    -0.9507 H       
  36 H36            7.6763     4.4039    -1.4209 H       
  37 H37            5.7549     3.6044    -2.7348 H       
  38 H38           11.3084     4.3765    -1.3232 H       
  39 H39           10.5669     3.0601    -3.8234 H       
  40 H40           11.6234     1.3442    -5.2363 H       
  41 H41           13.2754    -0.2029    -4.2698 H       
  42 H42           13.8763    -0.0392    -1.8889 H       
  43 H43           12.8300     1.6767    -0.4683 H       
@<TRIPOS>BOND
   1    1    2 ar
   2    1    6 ar
   3    1   27 1
   4    2    3 ar
   5    2   28 1
   6    3    4 ar
   7    3   29 1
   8    4    5 ar
   9    4    7 1
  10    5    6 ar
  11    5   30 1
  12    6   31 1
  13    7    8 am
  14    7   32 1
  15    8    9 am
  16    8   26 2
  17    9   10 1
  18    9   33 1
  19   10   11 ar
  20   10   15 ar
  21   11   12 ar
  22   11   34 1
  23   12   13 ar
  24   12   35 1
  25   13   14 ar
  26   13   16 1
  27   14   15 ar
  28   14   36 1
  29   15   37 1
  30   16   17 am
  31   16   24 2
  32   16   25 2
  33   17   18 1
  34   17   38 1
  35   18   19 ar
  36   18   23 ar
  37   19   20 ar
  38   19   39 1
  39   20   21 ar
  40   20   40 1
  41   21   22 ar
  42   21   41 1
  43   22   23 ar
  44   22   42 1
  45   23   43 1

#	End of record

