#	Name: ASD14690001
#	Creating user name:	WinNT
#	Creation time:	15. 06. 2019 21:31

#	Modifying user name:	WinNT
#	Modification time:	15. 06. 2019 21:31

#	Program:	/corina/corina34_cracker 3.40 0067  02.08.2006

@<TRIPOS>MOLECULE
ASD14690001
  72   76    0    0    0
SMALL
NO_CHARGES


@<TRIPOS>ATOM
   1 P1            -0.0198     1.6058     0.0109 P.3     
   2 P2             2.1671     3.5690     0.3967 P.3     
   3 O3            -0.0384    -2.6398     1.2420 O.3     
   4 O4             5.4363     4.5069    -2.4271 O.3     
   5 O5            -2.4571    -3.5931    -1.1627 O.3     
   6 O6            -1.7506    -5.5812     0.2631 O.3     
   7 O7             7.6173     5.7020     0.0941 O.3     
   8 O8             8.6958     5.8737    -2.2064 O.3     
   9 O9             0.0021    -0.0041     0.0020 O.3     
  10 O10            3.6080     3.6903    -0.3112 O.3     
  11 O11            1.4907     2.1630    -0.0006 O.3     
  12 O12           -0.7984     2.1391    -1.2935 O.3     
  13 O13            2.3461     3.6459     1.9948 O.3     
  14 O14           -0.7125     2.0831     1.2285 O.2     
  15 O15            1.2997     4.6793    -0.0566 O.2     
  16 O16            8.9872     3.9460    -7.4816 O.2     
  17 N17            0.1304    -4.5051     2.7244 N.pl3   
  18 N18            6.4457     5.1732    -4.4868 N.ar    
  19 N19            0.3884    -4.4377     4.8908 N.2     
  20 N20            0.8047    -6.8940     2.4765 N.ar    
  21 N21            1.3686    -7.9503     4.4536 N.ar    
  22 N22            1.3152    -6.8584     6.5437 N.pl3   
  23 N23            7.8219     4.9504    -9.0833 N.am    
  24 C24           -2.0719    -3.1606     0.1436 C.3     
  25 C25           -1.6432    -4.3669     1.0088 C.3     
  26 C26           -0.8037    -2.2815     0.0707 C.3     
  27 C27           -0.1668    -4.0738     1.3562 C.3     
  28 C28            6.6213     5.8910    -0.9130 C.3     
  29 C29            7.2757     5.9952    -2.3088 C.3     
  30 C30            5.7128     4.6459    -1.0164 C.3     
  31 C31            6.6852     4.8007    -3.0903 C.3     
  32 C32           -1.1801    -0.7991     0.1135 C.3     
  33 C33            4.4142     4.8680    -0.2384 C.3     
  34 C34            0.5487    -5.7538     3.1092 C.ar    
  35 C35            0.0478    -3.7375     3.8480 C.2     
  36 C36            7.2852     4.7580    -5.4126 C.ar    
  37 C37            5.3921     5.9105    -4.7817 C.ar    
  38 C38            0.7103    -5.6954     4.5039 C.ar    
  39 C39            7.0841     5.0894    -6.7529 C.ar    
  40 C40            5.1229     6.2815    -6.0871 C.ar    
  41 C41            5.9745     5.8709    -7.0972 C.ar    
  42 C42            1.1379    -6.8556     5.1712 C.ar    
  43 C43            1.2045    -7.9563     3.1434 C.ar    
  44 C44            8.0270     4.6236    -7.7920 C.2     
  45 H45           -2.8879    -2.6186     0.6216 H       
  46 H46           -2.2474    -4.4212     1.9144 H       
  47 H47           -0.2389    -2.5045    -0.8344 H       
  48 H48            0.4957    -4.5717     0.6482 H       
  49 H49            6.0295     6.7816    -0.7012 H       
  50 H50            7.0074     6.9373    -2.7870 H       
  51 H51            6.2337     3.7641    -0.6431 H       
  52 H52            7.3551     3.9427    -3.0352 H       
  53 H53           -1.6790    -0.5780     1.0570 H       
  54 H54           -1.8511    -0.5706    -0.7146 H       
  55 H55            3.8705     5.7078    -0.6712 H       
  56 H56            4.6477     5.0846     0.8040 H       
  57 H57           -3.2124    -4.1968    -1.1704 H       
  58 H58           -2.6488    -5.7828    -0.0330 H       
  59 H59            8.2520     6.4284     0.1608 H       
  60 H60            9.1124     6.5654    -1.6743 H       
  61 H61           -0.2551    -2.7011     3.8695 H       
  62 H62            8.1369     4.1562    -5.1319 H       
  63 H63            4.7289     6.2293    -3.9913 H       
  64 H64            4.2568     6.8851    -6.3152 H       
  65 H65            5.7884     6.1464    -8.1247 H       
  66 H66            1.4040    -8.8673     2.5987 H       
  67 H67           -0.3990     1.8638    -2.1300 H       
  68 H68            2.9042     2.9469     2.3622 H       
  69 H69            1.6111    -7.6656     6.9929 H       
  70 H70            1.1436    -6.0531     7.0565 H       
  71 H71            8.4405     4.6448    -9.7651 H       
  72 H72            7.0556     5.4911    -9.3310 H       
@<TRIPOS>BOND
   1    1    9 1
   2    1   11 1
   3    1   12 1
   4    1   14 2
   5    2   10 1
   6    2   11 1
   7    2   13 1
   8    2   15 2
   9    3   26 1
  10    3   27 1
  11    4   30 1
  12    4   31 1
  13    5   57 1
  14    5   24 1
  15    6   58 1
  16    6   25 1
  17    7   59 1
  18    7   28 1
  19    8   60 1
  20    8   29 1
  21    9   32 1
  22   10   33 1
  23   12   67 1
  24   13   68 1
  25   16   44 2
  26   17   34 1
  27   17   35 1
  28   17   27 1
  29   18   36 ar
  30   18   37 ar
  31   18   31 1
  32   19   35 2
  33   19   38 1
  34   20   34 ar
  35   20   43 ar
  36   21   42 ar
  37   21   43 ar
  38   22   42 1
  39   22   69 1
  40   22   70 1
  41   23   44 am
  42   23   71 1
  43   23   72 1
  44   24   25 1
  45   24   45 1
  46   24   26 1
  47   25   27 1
  48   25   46 1
  49   26   32 1
  50   26   47 1
  51   27   48 1
  52   28   29 1
  53   28   49 1
  54   28   30 1
  55   29   31 1
  56   29   50 1
  57   30   33 1
  58   30   51 1
  59   31   52 1
  60   32   53 1
  61   32   54 1
  62   33   55 1
  63   33   56 1
  64   34   38 ar
  65   35   61 1
  66   36   39 ar
  67   36   62 1
  68   37   40 ar
  69   37   63 1
  70   38   42 ar
  71   39   41 ar
  72   39   44 1
  73   40   41 ar
  74   40   64 1
  75   41   65 1
  76   43   66 1

#	End of record

