#	Name: ASD10160406
#	Creating user name:	WinNT
#	Creation time:	15. 06. 2019 21:25

#	Modifying user name:	WinNT
#	Modification time:	15. 06. 2019 21:25

#	Program:	/corina/corina34_cracker 3.40 0067  02.08.2006

@<TRIPOS>MOLECULE
ASD10160406
  28   29    0    0    0
SMALL
NO_CHARGES


@<TRIPOS>ATOM
   1 C1            -0.0168     1.3861     0.0097 C.ar    
   2 C2             0.0021    -0.0041     0.0020 C.ar    
   3 C3             1.2210    -0.6607    -0.0131 C.ar    
   4 C4             2.3825     0.0998    -0.0201 C.ar    
   5 C5             2.2883     1.4769    -0.0118 C.ar    
   6 N6             1.1118     2.0749     0.0026 N.ar    
   7 O7            -1.2046     2.0422     0.0188 O.3     
   8 C8            -1.1569     3.4703     0.0264 C.3     
   9 C9            -2.3917     4.0257    -0.6861 C.3     
  10 C10           -2.3406     5.5548    -0.6780 C.3     
  11 C11           -2.3168     6.0567     0.7672 C.3     
  12 C12           -1.0819     5.5013     1.4796 C.3     
  13 C13           -1.1330     3.9722     1.4715 C.3     
  14 F14           -2.2701     7.4549     0.7745 F       
  15 F15           -3.4709     5.6251     1.4298 F       
  16 Cl16          -1.4823    -0.9043     0.0119 Cl      
  17 H17            1.2672    -1.7397    -0.0190 H       
  18 H18            3.3495    -0.3810    -0.0316 H       
  19 H19            3.1890     2.0728    -0.0172 H       
  20 H20           -0.2577     3.8065    -0.4899 H       
  21 H21           -2.4087     3.6681    -1.7156 H       
  22 H22           -3.2909     3.6895    -0.1698 H       
  23 H23           -1.4414     5.8910    -1.1943 H       
  24 H24           -3.2204     5.9504    -1.1856 H       
  25 H25           -0.1827     5.8375     0.9633 H       
  26 H26           -1.0649     5.8589     2.5091 H       
  27 H27           -2.0322     3.6360     1.9878 H       
  28 H28           -0.2533     3.5766     1.9791 H       
@<TRIPOS>BOND
   1    1    2 ar
   2    1    6 ar
   3    1    7 1
   4    2    3 ar
   5    2   16 1
   6    3    4 ar
   7    3   17 1
   8    4    5 ar
   9    4   18 1
  10    5    6 ar
  11    5   19 1
  12    7    8 1
  13    8    9 1
  14    8   13 1
  15    8   20 1
  16    9   10 1
  17    9   21 1
  18    9   22 1
  19   10   11 1
  20   10   23 1
  21   10   24 1
  22   11   12 1
  23   11   14 1
  24   11   15 1
  25   12   13 1
  26   12   25 1
  27   12   26 1
  28   13   27 1
  29   13   28 1

#	End of record

