#	Name: ASD11030003
#	Creating user name:	WinNT
#	Creation time:	15. 06. 2019 21:29

#	Modifying user name:	WinNT
#	Modification time:	15. 06. 2019 21:29

#	Program:	/corina/corina34_cracker 3.40 0067  02.08.2006

@<TRIPOS>MOLECULE
ASD11030003
  19   20    0    0    0
SMALL
NO_CHARGES


@<TRIPOS>ATOM
   1 F1             0.0021    -0.0041     0.0020 F       
   2 C2            -0.0162     1.3468     0.0094 C.ar    
   3 C3             1.1758     2.0535     0.0019 C.ar    
   4 C4             1.1629     3.4326     0.0089 C.ar    
   5 C5            -0.0538     4.1165     0.0238 C.ar    
   6 C6            -1.2515     3.3997     0.0313 C.ar    
   7 C7            -1.2271     2.0208     0.0188 C.ar    
   8 C8            -0.0739     5.5945     0.0319 C.2     
   9 N9             0.9684     6.3760     0.0261 N.2     
  10 N10            0.7681     7.6210     0.0347 N.2     
  11 C11           -0.4678     8.0355     0.0488 C.2     
  12 S12           -1.5140     6.6144     0.0435 S.3     
  13 N13           -0.8855     9.3567     0.0599 N.pl3   
  14 H14            2.1167     1.5233    -0.0093 H       
  15 H15            2.0924     3.9824     0.0034 H       
  16 H16           -2.1956     3.9240     0.0432 H       
  17 H17           -2.1532     1.4652     0.0247 H       
  18 H18           -0.2308    10.0724     0.0571 H       
  19 H19           -1.8327     9.5658     0.0705 H       
@<TRIPOS>BOND
   1    1    2 1
   2    2    3 ar
   3    2    7 ar
   4    3    4 ar
   5    3   14 1
   6    4    5 ar
   7    4   15 1
   8    5    6 ar
   9    5    8 1
  10    6    7 ar
  11    6   16 1
  12    7   17 1
  13    8    9 2
  14    8   12 1
  15    9   10 1
  16   10   11 2
  17   11   12 1
  18   11   13 1
  19   13   18 1
  20   13   19 1

#	End of record

