#	Name: ASD10420107
#	Creating user name:	WinNT
#	Creation time:	15. 06. 2019 21:27

#	Modifying user name:	WinNT
#	Modification time:	15. 06. 2019 21:27

#	Program:	/corina/corina34_cracker 3.40 0067  02.08.2006

@<TRIPOS>MOLECULE
ASD10420107
  86   90    0    0    0
SMALL
NO_CHARGES


@<TRIPOS>ATOM
   1 N1             0.4828     0.1899     0.9604 N.pl3   
   2 C2             0.2128    -1.1341     0.7236 C.2     
   3 C3            -1.1341    -1.2413     0.3317 C.2     
   4 C4            -1.6662     0.0471     0.3385 C.2     
   5 C5            -0.6588     0.9147     0.7332 C.2     
   6 N6             1.7650     0.5804     1.3685 N.2     
   7 C7             2.7170    -0.2955     1.5299 C.2     
   8 C8             2.4832    -1.6685     1.2973 C.2     
   9 C9             1.2228    -2.0884     0.8918 C.2     
  10 C10           -0.7900     2.3662     0.8751 C.2     
  11 O11           -1.1375     2.8448     1.9390 O.2     
  12 C12           -3.0813     0.4275    -0.0134 C.3     
  13 C13           -3.9105     0.4953     1.2432 C.ar    
  14 C14           -4.2856     1.7219     1.7580 C.ar    
  15 C15           -4.3004    -0.6694     1.8772 C.ar    
  16 C16           -5.0612    -0.6088     3.0302 C.ar    
  17 C17           -5.4330     0.6164     3.5496 C.ar    
  18 C18           -1.8513    -2.4877    -0.0220 C.ar    
  19 C19           -2.0605    -3.4732     0.9429 C.ar    
  20 C20           -2.7293    -4.6324     0.6071 C.ar    
  21 C21           -3.1917    -4.8186    -0.6834 C.ar    
  22 C22           -2.9874    -3.8449    -1.6449 C.ar    
  23 C23           -2.3254    -2.6787    -1.3200 C.ar    
  24 C24           -3.8659     2.9914     1.0628 C.3     
  25 C25           -5.0473     1.7839     2.9123 C.ar    
  26 F26           -5.4099     2.9824     3.4195 F       
  27 C27            3.5703    -2.6502     1.4834 C.2     
  28 N28            4.1915    -3.1791     0.4106 N.am    
  29 O29            3.9050    -2.9815     2.6043 O.2     
  30 C30            5.1948    -4.2314     0.5902 C.3     
  31 C31            4.5117    -5.5998     0.5488 C.3     
  32 C32            3.8635    -2.7017    -0.9350 C.3     
  33 C33            4.8575    -1.6139    -1.3467 C.3     
  34 N34           -0.5261     3.1723    -0.1723 N.am    
  35 C35           -0.5450     4.6353    -0.0225 C.3     
  36 C36            0.7636     5.1993    -0.5862 C.3     
  37 N37            0.9482     4.7181    -1.9618 N.3     
  38 C38            1.0838     3.2559    -2.0011 C.3     
  39 C39           -0.2057     2.6122    -1.4940 C.3     
  40 C40            0.7036     6.7281    -0.5838 C.3     
  41 C41            2.0342     7.2837    -1.0220 C.2     
  42 N42            2.2162     8.6171    -1.0961 N.am    
  43 O43            2.9411     6.5310    -1.3081 O.2     
  44 C44            3.5097     9.1572    -1.5221 C.3     
  45 C45            3.4497    10.6860    -1.5198 C.3     
  46 H46            3.6964     0.0330     1.8450 H       
  47 H47            1.0253    -3.1344     0.7095 H       
  48 H48           -3.0846     1.4010    -0.5038 H       
  49 H49           -3.5018    -0.3197    -0.6863 H       
  50 H50           -4.0109    -1.6275     1.4716 H       
  51 H51           -5.3653    -1.5195     3.5247 H       
  52 H52           -6.0278     0.6635     4.4498 H       
  53 H53           -1.6993    -3.3293     1.9505 H       
  54 H54           -2.8919    -5.3961     1.3533 H       
  55 H55           -3.7141    -5.7279    -0.9416 H       
  56 H56           -3.3508    -3.9960    -2.6506 H       
  57 H57           -2.1665    -1.9194    -2.0713 H       
  58 H58           -4.6362     3.2873     0.3505 H       
  59 H59           -3.7305     3.7821     1.8008 H       
  60 H60           -2.9276     2.8231     0.5343 H       
  61 H61            5.9332    -4.1696    -0.2093 H       
  62 H62            5.6896    -4.1012     1.5526 H       
  63 H63            4.0170    -5.7299    -0.4137 H       
  64 H64            5.2583    -6.3827     0.6824 H       
  65 H65            3.7734    -5.6616     1.3482 H       
  66 H66            3.9210    -3.5318    -1.6391 H       
  67 H67            2.8537    -2.2914    -0.9388 H       
  68 H68            4.6135    -1.2587    -2.3478 H       
  69 H69            4.8000    -0.7838    -0.6426 H       
  70 H70            5.8673    -2.0242    -1.3428 H       
  71 H71           -1.3895     5.0490    -0.5738 H       
  72 H72           -0.6309     4.8943     1.0328 H       
  73 H73            1.5985     4.8667     0.0307 H       
  74 H74            0.1948     5.0275    -2.5573 H       
  75 H75            1.2733     2.9356    -3.0256 H       
  76 H76            1.9143     2.9504    -1.3646 H       
  77 H77           -0.0673     1.5342    -1.4111 H       
  78 H78           -1.0169     2.8276    -2.1895 H       
  79 H79           -0.0737     7.0623    -1.2709 H       
  80 H80            0.4759     7.0812     0.4220 H       
  81 H81            1.4909     9.2191    -0.8673 H       
  82 H82            4.2871     8.8230    -0.8350 H       
  83 H83            3.7374     8.8040    -2.5279 H       
  84 H84            2.6723    11.0202    -2.2069 H       
  85 H85            3.2220    11.0391    -0.5140 H       
  86 H86            4.4121    11.0879    -1.8368 H       
@<TRIPOS>BOND
   1    1    2 1
   2    1    6 1
   3    1    5 1
   4    2    3 2
   5    2    9 1
   6    3    4 1
   7    3   18 1
   8    4    5 2
   9    4   12 1
  10    5   10 1
  11    6    7 2
  12    7    8 1
  13    7   46 1
  14    8    9 2
  15    8   27 1
  16    9   47 1
  17   10   11 2
  18   10   34 am
  19   12   13 1
  20   12   48 1
  21   12   49 1
  22   13   14 ar
  23   13   15 ar
  24   14   24 1
  25   14   25 ar
  26   15   16 ar
  27   15   50 1
  28   16   17 ar
  29   16   51 1
  30   17   25 ar
  31   17   52 1
  32   18   19 ar
  33   18   23 ar
  34   19   20 ar
  35   19   53 1
  36   20   21 ar
  37   20   54 1
  38   21   22 ar
  39   21   55 1
  40   22   23 ar
  41   22   56 1
  42   23   57 1
  43   24   58 1
  44   24   59 1
  45   24   60 1
  46   25   26 1
  47   27   28 am
  48   27   29 2
  49   28   30 1
  50   28   32 1
  51   30   31 1
  52   30   61 1
  53   30   62 1
  54   31   63 1
  55   31   64 1
  56   31   65 1
  57   32   33 1
  58   32   66 1
  59   32   67 1
  60   33   68 1
  61   33   69 1
  62   33   70 1
  63   34   35 1
  64   34   39 1
  65   35   36 1
  66   35   71 1
  67   35   72 1
  68   36   37 1
  69   36   40 1
  70   36   73 1
  71   37   38 1
  72   37   74 1
  73   38   39 1
  74   38   75 1
  75   38   76 1
  76   39   77 1
  77   39   78 1
  78   40   41 1
  79   40   79 1
  80   40   80 1
  81   41   42 am
  82   41   43 2
  83   42   44 1
  84   42   81 1
  85   44   45 1
  86   44   82 1
  87   44   83 1
  88   45   84 1
  89   45   85 1
  90   45   86 1

#	End of record

