#	Name: ASD10610124
#	Creating user name:	WinNT
#	Creation time:	15. 06. 2019 21:28

#	Modifying user name:	WinNT
#	Modification time:	15. 06. 2019 21:28

#	Program:	/corina/corina34_cracker 3.40 0067  02.08.2006

@<TRIPOS>MOLECULE
ASD10610124
  58   61    0    0    0
SMALL
NO_CHARGES


@<TRIPOS>ATOM
   1 O1             0.0478     1.4713     0.0147 O.3     
   2 C2            -0.0228     0.0399     0.0459 C.3     
   3 C3             1.3391     0.0297     0.7509 C.3     
   4 C4             1.4768     1.3584    -0.0025 C.3     
   5 C5             1.2694     0.1639     2.2503 C.2     
   6 O6             0.3053     0.6866     2.7682 O.2     
   7 N7             2.2785    -0.2969     3.0158 N.am    
   8 C8             2.2632    -0.0690     4.4629 C.3     
   9 C9             3.0987    -1.1480     5.1837 C.3     
  10 C10            4.4896    -0.4854     5.2736 C.3     
  11 C11            4.2204     1.0043     5.2614 C.ar    
  12 C12            5.0313     2.0623     5.6283 C.ar    
  13 C13            4.5617     3.3695     5.5296 C.ar    
  14 C14            3.2708     3.6055     5.0593 C.ar    
  15 C15            2.4694     2.5448     4.6958 C.ar    
  16 C16            2.9398     1.2441     4.7951 C.ar    
  17 O17            5.1631     5.9701     5.9099 O.3     
  18 B18            5.4815     4.5716     5.9464 Du      
  19 O19            6.8245     4.5124     6.4478 O.3     
  20 C20            6.8744     5.5212     7.4786 C.3     
  21 C21            5.7480     6.5095     7.1139 C.3     
  22 C22            6.3252     7.9014     6.8489 C.3     
  23 C23            4.7063     6.5672     8.2331 C.3     
  24 C24            6.6115     4.8956     8.8499 C.3     
  25 C25            8.2303     6.2299     7.4657 C.3     
  26 N26            2.2511    -1.0241     0.2990 N.am    
  27 C27            1.9398    -2.3190     0.5057 C.2     
  28 O28            0.8651    -2.6156     0.9832 O.2     
  29 C29            2.9271    -3.3984     0.1435 C.3     
  30 F30            2.3819    -4.6503     0.4481 F       
  31 F31            3.2085    -3.3328    -1.2253 F       
  32 F32            4.1074    -3.2142     0.8716 F       
  33 H33           -0.8343    -0.3400     0.6666 H       
  34 H34           -0.0011    -0.4161    -0.9439 H       
  35 H35            1.8900     1.2467    -1.0049 H       
  36 H36            1.9791     2.1338     0.5758 H       
  37 H37            3.0149    -0.7793     2.6086 H       
  38 H38            1.2390    -0.0718     4.8361 H       
  39 H39            2.6993    -1.3469     6.1782 H       
  40 H40            3.1428    -2.0628     4.5927 H       
  41 H41            4.9861    -0.7725     6.2005 H       
  42 H42            5.0988    -0.7667     4.4145 H       
  43 H43            6.0305     1.8745     5.9925 H       
  44 H44            2.8996     4.6167     4.9804 H       
  45 H45            1.4691     2.7276     4.3318 H       
  46 H46            5.5254     8.5730     6.5365 H       
  47 H47            6.7853     8.2835     7.7601 H       
  48 H48            7.0760     7.8395     6.0611 H       
  49 H49            4.3177     5.5661     8.4197 H       
  50 H50            5.1699     6.9521     9.1414 H       
  51 H51            3.8893     7.2245     7.9355 H       
  52 H52            7.3842     4.1581     9.0670 H       
  53 H53            6.6271     5.6736     9.6132 H       
  54 H54            5.6359     4.4095     8.8465 H       
  55 H55            8.3942     6.6829     6.4879 H       
  56 H56            8.2424     7.0050     8.2319 H       
  57 H57            9.0203     5.5066     7.6681 H       
  58 H58            3.0789    -0.7898    -0.1490 H       
@<TRIPOS>BOND
   1    1    2 1
   2    1    4 1
   3    2    3 1
   4    2   33 1
   5    2   34 1
   6    3    4 1
   7    3    5 1
   8    3   26 1
   9    4   35 1
  10    4   36 1
  11    5    6 2
  12    5    7 am
  13    7    8 1
  14    7   37 1
  15    8    9 1
  16    8   16 1
  17    8   38 1
  18    9   10 1
  19    9   39 1
  20    9   40 1
  21   10   11 1
  22   10   41 1
  23   10   42 1
  24   11   12 ar
  25   11   16 ar
  26   12   13 ar
  27   12   43 1
  28   13   14 ar
  29   13   18 1
  30   14   15 ar
  31   14   44 1
  32   15   16 ar
  33   15   45 1
  34   17   18 1
  35   17   21 1
  36   18   19 1
  37   19   20 1
  38   20   21 1
  39   20   24 1
  40   20   25 1
  41   21   22 1
  42   21   23 1
  43   22   46 1
  44   22   47 1
  45   22   48 1
  46   23   49 1
  47   23   50 1
  48   23   51 1
  49   24   52 1
  50   24   53 1
  51   24   54 1
  52   25   55 1
  53   25   56 1
  54   25   57 1
  55   26   27 am
  56   26   58 1
  57   27   28 2
  58   27   29 1
  59   29   30 1
  60   29   31 1
  61   29   32 1

#	End of record

