#	Name: ASD13490002
#	Creating user name:	WinNT
#	Creation time:	15. 06. 2019 21:30

#	Modifying user name:	WinNT
#	Modification time:	15. 06. 2019 21:30

#	Program:	/corina/corina34_cracker 3.40 0067  02.08.2006

@<TRIPOS>MOLECULE
ASD13490002
  51   53    0    0    0
SMALL
NO_CHARGES


@<TRIPOS>ATOM
   1 C1            -0.6150     0.5306    -1.9489 C.3     
   2 C2            -0.4421    -0.7764    -1.1725 C.3     
   3 C3             0.1973    -0.4819     0.1859 C.3     
   4 C4             0.2200    -1.7600     1.0267 C.3     
   5 N5             1.0986    -2.7461     0.3927 N.am    
   6 C6             0.7338    -1.4438     2.4077 C.2     
   7 O7             1.9072    -1.6036     2.6695 O.2     
   8 N8            -0.1106    -0.9833     3.3518 N.am    
   9 C9             2.5292    -2.4660     0.2471 C.3     
  10 S10            0.4747    -4.1772    -0.1594 S.o2    
  11 C11            2.8856    -2.4198    -1.2164 C.ar    
  12 C12            2.7541    -1.2347    -1.9221 C.ar    
  13 C13            3.0805    -1.1881    -3.2645 C.ar    
  14 C14            3.5418    -2.3353    -3.9062 C.ar    
  15 C15            3.6717    -3.5236    -3.1908 C.ar    
  16 C16            3.3482    -3.5588    -1.8492 C.ar    
  17 C17           -0.3269    -3.8401    -1.6918 C.ar    
  18 O18            1.5861    -5.0092    -0.4624 O.2     
  19 O19           -0.5477    -4.5486     0.7550 O.2     
  20 C20            0.3809    -3.9285    -2.8760 C.ar    
  21 C21           -0.2473    -3.6642    -4.0784 C.ar    
  22 C22           -1.5849    -3.3110    -4.0967 C.ar    
  23 C23           -2.2928    -3.2227    -2.9113 C.ar    
  24 C24           -1.6649    -3.4927    -1.7100 C.ar    
  25 C25            3.8934    -2.2918    -5.3476 C.2     
  26 N26            4.3506    -3.3226    -6.0937 N.2     
  27 C27            4.5254    -2.8356    -7.2969 C.2     
  28 O28            4.1771    -1.5458    -7.2538 O.3     
  29 N29            3.8135    -1.2509    -6.1349 N.2     
  30 F30            2.3061    -0.1236    -1.2976 F       
  31 Cl31          -2.3745    -2.9783    -5.6065 Cl      
  32 F32            0.6156     1.1910    -2.0300 F       
  33 F33           -1.0791     0.2492    -3.2383 F       
  34 F34           -1.5395     1.3466    -1.2882 F       
  35 H35           -1.4165    -1.2414    -1.0223 H       
  36 H36            0.1998    -1.4524    -1.7374 H       
  37 H37            1.2169    -0.1261     0.0381 H       
  38 H38           -0.3830     0.2826     0.7026 H       
  39 H39           -0.7892    -2.1656     1.0986 H       
  40 H40           -1.0491    -0.8554     3.1424 H       
  41 H41            0.2201    -0.7797     4.2407 H       
  42 H42            2.7601    -1.5055     0.7078 H       
  43 H43            3.1049    -3.2516     0.7367 H       
  44 H44            2.9777    -0.2644    -3.8147 H       
  45 H45            4.0290    -4.4154    -3.6843 H       
  46 H46            3.4528    -4.4790    -1.2936 H       
  47 H47            1.4251    -4.2039    -2.8615 H       
  48 H48            0.3059    -3.7330    -5.0034 H       
  49 H49           -3.3369    -2.9470    -2.9250 H       
  50 H50           -2.2185    -3.4281    -0.7849 H       
  51 H51            4.8840    -3.3746    -8.1613 H       
@<TRIPOS>BOND
   1    1    2 1
   2    1   32 1
   3    1   33 1
   4    1   34 1
   5    2    3 1
   6    2   35 1
   7    2   36 1
   8    3    4 1
   9    3   37 1
  10    3   38 1
  11    4    5 1
  12    4    6 1
  13    4   39 1
  14    5    9 1
  15    5   10 am
  16    6    7 2
  17    6    8 am
  18    8   40 1
  19    8   41 1
  20    9   11 1
  21    9   42 1
  22    9   43 1
  23   10   17 1
  24   10   18 2
  25   10   19 2
  26   11   12 ar
  27   11   16 ar
  28   12   13 ar
  29   12   30 1
  30   13   14 ar
  31   13   44 1
  32   14   15 ar
  33   14   25 1
  34   15   16 ar
  35   15   45 1
  36   16   46 1
  37   17   20 ar
  38   17   24 ar
  39   20   21 ar
  40   20   47 1
  41   21   22 ar
  42   21   48 1
  43   22   23 ar
  44   22   31 1
  45   23   24 ar
  46   23   49 1
  47   24   50 1
  48   25   26 1
  49   25   29 2
  50   26   27 2
  51   27   28 1
  52   27   51 1
  53   28   29 1

#	End of record

