#	Name: ASD17160001
#	Creating user name:	WinNT
#	Creation time:	15. 06. 2019 21:31

#	Modifying user name:	WinNT
#	Modification time:	15. 06. 2019 21:31

#	Program:	/corina/corina34_cracker 3.40 0067  02.08.2006

@<TRIPOS>MOLECULE
ASD17160001
  51   53    0    0    0
SMALL
NO_CHARGES


@<TRIPOS>ATOM
   1 C1            -0.0329     1.4693     0.0017 C.3     
   2 N2            -2.0976     1.4054     1.3158 N.3     
   3 C3            -2.0691    -0.0639     1.3073 C.3     
   4 C4            -5.4915    -5.8691    -2.8608 C.ar    
   5 C5            -5.3160    -7.0677    -3.5391 C.ar    
   6 C6            -6.4113    -7.7323    -4.0606 C.ar    
   7 C7            -7.8581    -6.0063    -3.2298 C.ar    
   8 C8             1.5914    -6.1947    -0.5947 C.3     
   9 C9             1.3654    -4.7125    -0.7465 C.ar    
  10 C10            0.2208    -4.2452    -1.3785 C.ar    
  11 C11            0.0164    -2.8783    -1.5169 C.ar    
  12 C12            0.9510    -1.9887    -1.0251 C.ar    
  13 C13            2.0901    -2.4574    -0.3960 C.ar    
  14 C14            2.2939    -3.8173    -0.2520 C.ar    
  15 C15            0.7299    -0.5055    -1.1743 C.3     
  16 N16           -0.0044     0.0000    -0.0068 N.3     
  17 C17           -0.7357     1.9559     1.2712 C.3     
  18 C18           -1.3662    -0.5505     0.0377 C.3     
  19 N19           -0.7243    -5.1493    -1.8758 N.am    
  20 C20           -2.0349    -4.8358    -1.8511 C.2     
  21 O21           -2.4046    -3.8170    -1.3066 O.2     
  22 C22           -3.0409    -5.7511    -2.5001 C.3     
  23 N23           -4.3855    -5.1924    -2.3377 N.pl3   
  24 C24           -7.6828    -7.2013    -3.9060 C.ar    
  25 C25           -6.7666    -5.3401    -2.7073 C.ar    
  26 F26           -8.7519    -7.8507    -4.4165 F       
  27 F27           -6.2421    -8.8988    -4.7209 F       
  28 H28            0.9871     1.8529    -0.0190 H       
  29 H29           -0.5740     1.8276    -0.8740 H       
  30 H30           -2.6563     1.7606     0.5544 H       
  31 H31           -1.5276    -0.4222     2.1828 H       
  32 H32           -3.0891    -0.4475     1.3280 H       
  33 H33           -4.3253    -7.4805    -3.6598 H       
  34 H34           -8.8492    -5.5942    -3.1108 H       
  35 H35            2.1370    -6.5696    -1.4606 H       
  36 H36            2.1705    -6.3832     0.3093 H       
  37 H37            0.6300    -6.7034    -0.5229 H       
  38 H38           -0.8725    -2.5117    -2.0087 H       
  39 H39            2.8199    -1.7596    -0.0128 H       
  40 H40            3.1842    -4.1802     0.2400 H       
  41 H41            1.6929     0.0002    -1.2448 H       
  42 H42            0.1518    -0.3135    -2.0782 H       
  43 H43           -0.1791     1.6206     2.1463 H       
  44 H44           -0.7837     3.0448     1.2657 H       
  45 H45           -1.3182    -1.6394     0.0433 H       
  46 H46           -1.9228    -0.2152    -0.8374 H       
  47 H47           -0.4363    -6.0016    -2.2383 H       
  48 H48           -2.8131    -5.8471    -3.5617 H       
  49 H49           -2.9961    -6.7328    -2.0286 H       
  50 H50           -4.5083    -4.3530    -1.8674 H       
  51 H51           -6.9046    -4.4076    -2.1802 H       
@<TRIPOS>BOND
   1    1   16 1
   2    1   28 1
   3    1   29 1
   4    1   17 1
   5    2    3 1
   6    2   17 1
   7    2   30 1
   8    3   18 1
   9    3   31 1
  10    3   32 1
  11    4   25 ar
  12    4    5 ar
  13    4   23 1
  14    5    6 ar
  15    5   33 1
  16    6   27 1
  17    6   24 ar
  18    7   34 1
  19    7   24 ar
  20    7   25 ar
  21    8   35 1
  22    8   36 1
  23    8   37 1
  24    8    9 1
  25    9   10 ar
  26    9   14 ar
  27   10   19 1
  28   10   11 ar
  29   11   38 1
  30   11   12 ar
  31   12   13 ar
  32   12   15 1
  33   13   14 ar
  34   13   39 1
  35   14   40 1
  36   15   41 1
  37   15   42 1
  38   15   16 1
  39   16   18 1
  40   17   43 1
  41   17   44 1
  42   18   45 1
  43   18   46 1
  44   19   20 am
  45   19   47 1
  46   20   21 2
  47   20   22 1
  48   22   23 1
  49   22   48 1
  50   22   49 1
  51   23   50 1
  52   24   26 1
  53   25   51 1

#	End of record

