#	Name: ASD10410189
#	Creating user name:	WinNT
#	Creation time:	15. 06. 2019 21:27

#	Modifying user name:	WinNT
#	Modification time:	15. 06. 2019 21:27

#	Program:	/corina/corina34_cracker 3.40 0067  02.08.2006

@<TRIPOS>MOLECULE
ASD10410189
  73   79    0    0    0
SMALL
NO_CHARGES


@<TRIPOS>ATOM
   1 C1            -0.0260     1.4173     0.0053 C.ar    
   2 C2            -0.0110     0.0341     0.1253 C.ar    
   3 C3             1.1989    -0.6418     0.2180 C.ar    
   4 C4             2.3864     0.0616     0.1908 C.ar    
   5 C5             2.3714     1.4453     0.0702 C.ar    
   6 C6             1.1619     2.1210    -0.0225 C.ar    
   7 C7             1.2152    -2.1430     0.3488 C.3     
   8 N8             3.5760     2.1589     0.0431 N.pl3   
   9 C9             3.6721     3.3367    -0.6973 C.2     
  10 N10            4.7057     4.1436    -0.7111 N.2     
  11 N11            2.7266     3.8206    -1.5113 N.2     
  12 C12            3.1406     4.9459    -2.0530 C.2     
  13 N13            4.3904     5.2000    -1.5810 N.pl3   
  14 C14            5.1972     6.2905    -1.8976 C.ar    
  15 N15            2.4329     5.7286    -2.9447 N.pl3   
  16 N16           -1.2150    -0.6791     0.1534 N.3     
  17 C17           -2.0503    -0.2578     1.2867 C.3     
  18 C18           -3.3183    -1.1139     1.3283 C.3     
  19 N19           -4.0456    -0.9697     0.0595 N.3     
  20 C20           -3.2102    -1.3910    -1.0738 C.3     
  21 C21           -1.9422    -0.5349    -1.1155 C.3     
  22 C22           -4.2092    -0.6508     2.4828 C.3     
  23 N23            4.7715     7.2221    -2.7412 N.ar    
  24 C24            5.5325     8.2580    -3.0449 C.ar    
  25 N25            6.7298     8.4250    -2.5415 N.ar    
  26 C26            7.2531     7.5311    -1.6730 C.ar    
  27 C27            6.4707     6.4251    -1.3258 C.ar    
  28 C28           -5.3092    -1.7182     0.0890 C.3     
  29 C29           -6.4154    -0.8891     0.8103 C.3     
  30 C30           -5.8476    -1.9234    -1.3455 C.3     
  31 C31           -7.2283    -1.1990    -1.3557 C.3     
  32 C32           -6.3356     0.5229     0.1536 C.3     
  33 C33           -6.8740     0.3177    -1.2808 C.3     
  34 C34           -7.7032    -1.4590     0.1175 C.3     
  35 C35            8.5013     7.5283    -1.0307 C.2     
  36 C36            8.7322     6.5035    -0.2255 C.2     
  37 S37            7.3565     5.4130    -0.1946 S.3     
  38 C38            9.5147     8.6229    -1.2447 C.3     
  39 H39           -0.9666     1.9425    -0.0709 H       
  40 H40            3.3271    -0.4639     0.2636 H       
  41 H41            1.1502     3.1968    -0.1166 H       
  42 H42            1.2479    -2.5938    -0.6431 H       
  43 H43            2.0943    -2.4488     0.9160 H       
  44 H44            0.3151    -2.4723     0.8680 H       
  45 H45            4.3435     1.8339     0.5392 H       
  46 H46            1.5435     5.4613    -3.2248 H       
  47 H47            2.8253     6.5453    -3.2907 H       
  48 H48           -1.4945    -0.3858     2.2155 H       
  49 H49           -2.3232     0.7907     1.1673 H       
  50 H50           -3.0467    -2.1593     1.4750 H       
  51 H51           -2.9373    -2.4395    -0.9544 H       
  52 H52           -3.7661    -1.2630    -2.0026 H       
  53 H53           -2.2139     0.5105    -1.2621 H       
  54 H54           -1.3076    -0.8648    -1.9379 H       
  55 H55           -4.4813     0.3943     2.3351 H       
  56 H56           -5.1121    -1.2606     2.5122 H       
  57 H57           -3.6688    -0.7560     3.4235 H       
  58 H58            5.1525     8.9961    -3.7357 H       
  59 H59           -5.1697    -2.6785     0.5853 H       
  60 H60           -6.3921    -0.9099     1.8999 H       
  61 H61           -5.1746    -1.4689    -2.0725 H       
  62 H62           -5.9741    -2.9854    -1.5555 H       
  63 H63           -7.9130    -1.4896    -2.1525 H       
  64 H64           -6.9619     1.2305     0.6969 H       
  65 H65           -5.3032     0.8712     0.1258 H       
  66 H66           -6.1062     0.5651    -2.0139 H       
  67 H67           -7.7649     0.9245    -1.4428 H       
  68 H68           -7.8411    -2.5209     0.3211 H       
  69 H69           -8.5924    -0.8806     0.3684 H       
  70 H70            9.6423     6.3588     0.3376 H       
  71 H71            9.3561     9.4134    -0.5111 H       
  72 H72           10.5191     8.2158    -1.1288 H       
  73 H73            9.4018     9.0312    -2.2490 H       
@<TRIPOS>BOND
   1    1    2 ar
   2    1    6 ar
   3    1   39 1
   4    2    3 ar
   5    2   16 1
   6    3    4 ar
   7    3    7 1
   8    4    5 ar
   9    4   40 1
  10    5    6 ar
  11    5    8 1
  12    6   41 1
  13    7   42 1
  14    7   43 1
  15    7   44 1
  16    8    9 1
  17    8   45 1
  18    9   10 2
  19    9   11 1
  20   10   13 1
  21   11   12 2
  22   12   13 1
  23   12   15 1
  24   13   14 1
  25   14   23 ar
  26   14   27 ar
  27   15   46 1
  28   15   47 1
  29   16   17 1
  30   16   21 1
  31   17   18 1
  32   17   48 1
  33   17   49 1
  34   18   19 1
  35   18   22 1
  36   18   50 1
  37   19   20 1
  38   19   28 1
  39   20   21 1
  40   20   51 1
  41   20   52 1
  42   21   53 1
  43   21   54 1
  44   22   55 1
  45   22   56 1
  46   22   57 1
  47   23   24 ar
  48   24   25 ar
  49   24   58 1
  50   25   26 ar
  51   26   27 ar
  52   26   35 1
  53   27   37 1
  54   28   29 1
  55   28   30 1
  56   28   59 1
  57   29   32 1
  58   29   34 1
  59   29   60 1
  60   30   31 1
  61   30   61 1
  62   30   62 1
  63   31   33 1
  64   31   34 1
  65   31   63 1
  66   32   33 1
  67   32   64 1
  68   32   65 1
  69   33   66 1
  70   33   67 1
  71   34   68 1
  72   34   69 1
  73   35   36 2
  74   35   38 1
  75   36   37 1
  76   36   70 1
  77   38   71 1
  78   38   72 1
  79   38   73 1

#	End of record

