#	Name: ASD10800031
#	Creating user name:	WinNT
#	Creation time:	15. 06. 2019 21:28

#	Modifying user name:	WinNT
#	Modification time:	15. 06. 2019 21:28

#	Program:	/corina/corina34_cracker 3.40 0067  02.08.2006

@<TRIPOS>MOLECULE
ASD10800031
  52   55    0    0    0
SMALL
NO_CHARGES


@<TRIPOS>ATOM
   1 C1             0.0216     1.2264     0.2071 C.ar    
   2 C2             0.1020    -0.1297     0.4320 C.ar    
   3 C3             1.3390    -0.7441     0.5186 C.ar    
   4 C4             2.4903     0.0083     0.3789 C.ar    
   5 C5             2.4120     1.3667     0.1503 C.ar    
   6 C6             1.1713     1.9918     0.0574 C.ar    
   7 O7             0.8666     3.2975    -0.1782 O.3     
   8 C8            -0.4842     3.5516     0.2440 C.3     
   9 C9            -1.1595     2.1694     0.0824 C.3     
  10 C10            3.6739     2.1768     0.0003 C.3     
  11 C11            4.0590     2.7764     1.3543 C.3     
  12 N12            4.7559     1.3116    -0.4761 N.pl3   
  13 C13            5.2490     3.6847     1.1812 C.ar    
  14 C14            5.0603     5.0253     0.9016 C.ar    
  15 C15            6.5291     3.1786     1.3077 C.ar    
  16 C16            7.6206     4.0118     1.1489 C.ar    
  17 C17            7.4320     5.3511     0.8633 C.ar    
  18 C18            6.1518     5.8585     0.7428 C.ar    
  19 C19            9.0161     3.4602     1.2878 C.3     
  20 C20            5.9462     7.3186     0.4314 C.3     
  21 C21           -0.5194     4.0037     1.7052 C.3     
  22 C22            4.9226     1.0983    -1.8249 C.2     
  23 N23            5.8869     0.4333    -2.3522 N.2     
  24 S24            3.8376     1.6923    -3.0875 S.3     
  25 C25            4.7752     0.9826    -4.4793 C.3     
  26 C26            5.9532     0.2781    -3.7882 C.3     
  27 H27           -0.8000    -0.7136     0.5411 H       
  28 H28            1.4047    -1.8076     0.6951 H       
  29 H29            3.4562    -0.4698     0.4493 H       
  30 H30           -0.9579     4.2911    -0.4017 H       
  31 H31           -1.6289     2.0774    -0.8970 H       
  32 H32           -1.8838     1.9944     0.8779 H       
  33 H33            3.5072     2.9793    -0.7182 H       
  34 H34            3.2199     3.3483     1.7503 H       
  35 H35            4.3118     1.9746     2.0480 H       
  36 H36            5.3547     0.8892     0.1594 H       
  37 H37            4.0601     5.4216     0.8068 H       
  38 H38            6.6764     2.1322     1.5308 H       
  39 H39            8.2848     6.0021     0.7396 H       
  40 H40            9.3686     3.1147     0.3159 H       
  41 H41            9.6802     4.2410     1.6585 H       
  42 H42            9.0089     2.6259     1.9893 H       
  43 H43            5.9068     7.4577    -0.6490 H       
  44 H44            5.0099     7.6565     0.8756 H       
  45 H45            6.7731     7.8977     0.8424 H       
  46 H46            0.0405     4.9328     1.8117 H       
  47 H47           -1.5531     4.1653     2.0107 H       
  48 H48           -0.0706     3.2349     2.3343 H       
  49 H49            4.1665     0.2619    -5.0253 H       
  50 H50            5.1307     1.7695    -5.1445 H       
  51 H51            6.8878     0.7068    -4.1499 H       
  52 H52            5.9297    -0.7832    -4.0356 H       
@<TRIPOS>BOND
   1    1    2 ar
   2    1    6 ar
   3    1    9 1
   4    2    3 ar
   5    2   27 1
   6    3    4 ar
   7    3   28 1
   8    4    5 ar
   9    4   29 1
  10    5    6 ar
  11    5   10 1
  12    6    7 1
  13    7    8 1
  14    8    9 1
  15    8   21 1
  16    8   30 1
  17    9   31 1
  18    9   32 1
  19   10   11 1
  20   10   12 1
  21   10   33 1
  22   11   13 1
  23   11   34 1
  24   11   35 1
  25   12   22 1
  26   12   36 1
  27   13   14 ar
  28   13   15 ar
  29   14   18 ar
  30   14   37 1
  31   15   16 ar
  32   15   38 1
  33   16   17 ar
  34   16   19 1
  35   17   18 ar
  36   17   39 1
  37   18   20 1
  38   19   40 1
  39   19   41 1
  40   19   42 1
  41   20   43 1
  42   20   44 1
  43   20   45 1
  44   21   46 1
  45   21   47 1
  46   21   48 1
  47   22   23 2
  48   22   24 1
  49   23   26 1
  50   24   25 1
  51   25   26 1
  52   25   49 1
  53   25   50 1
  54   26   51 1
  55   26   52 1

#	End of record

