#	Name: ASD10160276
#	Creating user name:	WinNT
#	Creation time:	15. 06. 2019 21:25

#	Modifying user name:	WinNT
#	Modification time:	15. 06. 2019 21:25

#	Program:	/corina/corina34_cracker 3.40 0067  02.08.2006

@<TRIPOS>MOLECULE
ASD10160276
  37   38    0    0    0
SMALL
NO_CHARGES


@<TRIPOS>ATOM
   1 C1             0.3728     1.0984     1.9675 C.2     
   2 C2             0.2899    -0.2791     1.4438 C.ar    
   3 C3             1.3732    -0.8338     0.7568 C.ar    
   4 C4             1.2922    -2.1192     0.2702 C.ar    
   5 C5             0.1344    -2.8651     0.4612 C.ar    
   6 C6            -0.9451    -2.3169     1.1440 C.ar    
   7 C7            -0.8696    -1.0339     1.6387 C.ar    
   8 O8             1.3845     1.7520     1.8014 O.2     
   9 N9            -0.6749     1.6336     2.6249 N.am    
  10 C10            2.4597    -2.7183    -0.4708 C.3     
  11 F11            3.4995    -1.7846    -0.5358 F       
  12 F12            2.9017    -3.8623     0.2023 F       
  13 F13            2.0618    -3.0641    -1.7666 F       
  14 S14           -0.5819     3.1790     3.2125 S.o2    
  15 O15           -1.8335     3.3865     3.8526 O.2     
  16 O16            0.6315     3.2005     3.9517 O.2     
  17 C17           -0.4439     4.2185     1.7322 C.3     
  18 O18            0.0581    -4.1313    -0.0206 O.3     
  19 C19           -3.4614    -6.0761     0.3114 C.ar    
  20 N20           -3.2374    -5.3360    -0.7558 N.ar    
  21 C21           -2.0963    -4.6828    -0.9017 C.ar    
  22 C22           -1.1276    -4.7861     0.0914 C.ar    
  23 C23           -1.4036    -5.5774     1.2018 C.ar    
  24 N24           -2.5691    -6.1990     1.2734 N.ar    
  25 C25           -4.7784    -6.7975     0.4383 C.3     
  26 H26            2.2726    -0.2548     0.6074 H       
  27 H27           -1.8428    -2.8993     1.2900 H       
  28 H28           -1.7071    -0.6102     2.1730 H       
  29 H29           -1.4835     1.1135     2.7540 H       
  30 H30           -1.3227     4.0743     1.1038 H       
  31 H31           -0.3768     5.2654     2.0284 H       
  32 H32            0.4507     3.9404     1.1751 H       
  33 H33           -1.9193    -4.0785    -1.7791 H       
  34 H34           -0.6771    -5.6824     1.9940 H       
  35 H35           -4.6958    -7.7865    -0.0123 H       
  36 H36           -5.0371    -6.8989     1.4924 H       
  37 H37           -5.5550    -6.2288    -0.0732 H       
@<TRIPOS>BOND
   1    1    2 1
   2    1    8 2
   3    1    9 am
   4    2    3 ar
   5    2    7 ar
   6    3    4 ar
   7    3   26 1
   8    4    5 ar
   9    4   10 1
  10    5    6 ar
  11    5   18 1
  12    6    7 ar
  13    6   27 1
  14    7   28 1
  15    9   14 am
  16    9   29 1
  17   10   11 1
  18   10   12 1
  19   10   13 1
  20   14   15 2
  21   14   16 2
  22   14   17 1
  23   17   30 1
  24   17   31 1
  25   17   32 1
  26   18   22 1
  27   19   20 ar
  28   19   24 ar
  29   19   25 1
  30   20   21 ar
  31   21   22 ar
  32   21   33 1
  33   22   23 ar
  34   23   24 ar
  35   23   34 1
  36   25   35 1
  37   25   36 1
  38   25   37 1

#	End of record

