#	Name: ASD11920074
#	Creating user name:	WinNT
#	Creation time:	15. 06. 2019 21:29

#	Modifying user name:	WinNT
#	Modification time:	15. 06. 2019 21:29

#	Program:	/corina/corina34_cracker 3.40 0067  02.08.2006

@<TRIPOS>MOLECULE
ASD11920074
  44   48    0    0    0
SMALL
NO_CHARGES


@<TRIPOS>ATOM
   1 O1             1.3327    -0.4580    -2.8319 O.2     
   2 C2             1.4733     0.7034    -3.1603 C.2     
   3 C3             2.3765     1.5819    -2.3946 C.ar    
   4 C4             3.0674     1.0768    -1.2949 C.ar    
   5 C5             3.9163     1.9060    -0.5777 C.ar    
   6 C6             4.0689     3.2503    -0.9714 C.ar    
   7 C7             3.3687     3.7430    -2.0782 C.ar    
   8 C8             2.5407     2.9208    -2.7803 C.ar    
   9 C9             5.0148     3.8421    -0.0260 C.2     
  10 C10            5.5063     5.2667    -0.0235 C.3     
  11 N11            4.5711     6.1262     0.7066 N.pl3   
  12 N12            6.7664     5.3673     0.7091 N.3     
  13 C13            5.3003     6.9306     1.6259 C.2     
  14 C14            6.7321     6.7480     1.2718 C.3     
  15 C15            4.6897     7.6637     2.5327 C.2     
  16 C16            7.7450     6.7775     2.4042 C.3     
  17 O17            3.3295     7.6539     2.5801 O.3     
  18 O18            9.0300     6.5233     1.8042 O.3     
  19 C19            2.5952     6.5753     2.0139 C.3     
  20 C20            9.1443     5.3085     1.0664 C.3     
  21 C21            3.1133     6.2334     0.6083 C.3     
  22 C22            8.0267     5.1804     0.0155 C.3     
  23 C23            5.3631     2.8746     0.8405 C.2     
  24 N24            4.7177     1.7129     0.5269 N.pl3   
  25 O25            0.8078     1.1870    -4.2277 O.3     
  26 H26            2.9420     0.0447    -1.0025 H       
  27 H27            3.4876     4.7738    -2.3777 H       
  28 H28            2.0044     3.3026    -3.6364 H       
  29 H29            5.6311     5.6252    -1.0452 H       
  30 H30            7.0164     7.4667     0.5032 H       
  31 H31            5.2588     8.2629     3.2280 H       
  32 H32            7.7427     7.7567     2.8830 H       
  33 H33            7.5129     6.0021     3.1342 H       
  34 H34            2.6946     5.6993     2.6548 H       
  35 H35            1.5432     6.8533     1.9498 H       
  36 H36           10.1108     5.2869     0.5630 H       
  37 H37            9.0838     4.4661     1.7554 H       
  38 H38            2.8446     7.0257    -0.0904 H       
  39 H39            2.6918     5.2845     0.2768 H       
  40 H40            8.0569     4.1907    -0.4402 H       
  41 H41            8.1468     5.9469    -0.7500 H       
  42 H42            6.0521     2.9980     1.6630 H       
  43 H43            4.8096     0.8764     1.0094 H       
  44 H44            0.2303     0.5722    -4.7005 H       
@<TRIPOS>BOND
   1    1    2 2
   2    2    3 1
   3    2   25 1
   4    3    4 ar
   5    3    8 ar
   6    4    5 ar
   7    4   26 1
   8    5    6 ar
   9    5   24 1
  10    6    7 ar
  11    6    9 1
  12    7    8 ar
  13    7   27 1
  14    8   28 1
  15    9   10 1
  16    9   23 2
  17   10   11 1
  18   10   12 1
  19   10   29 1
  20   11   13 1
  21   11   21 1
  22   12   14 1
  23   12   22 1
  24   13   15 2
  25   13   14 1
  26   14   16 1
  27   14   30 1
  28   15   17 1
  29   15   31 1
  30   16   18 1
  31   16   32 1
  32   16   33 1
  33   17   19 1
  34   18   20 1
  35   19   21 1
  36   19   34 1
  37   19   35 1
  38   20   22 1
  39   20   36 1
  40   20   37 1
  41   21   38 1
  42   21   39 1
  43   22   40 1
  44   22   41 1
  45   23   24 1
  46   23   42 1
  47   24   43 1
  48   25   44 1

#	End of record

