#	Name: ASD10420010
#	Creating user name:	WinNT
#	Creation time:	15. 06. 2019 21:27

#	Modifying user name:	WinNT
#	Modification time:	15. 06. 2019 21:27

#	Program:	/corina/corina34_cracker 3.40 0067  02.08.2006

@<TRIPOS>MOLECULE
ASD10420010
  57   61    0    0    0
SMALL
NO_CHARGES


@<TRIPOS>ATOM
   1 N1            -0.1923     0.2165    -0.6638 N.pl3   
   2 C2            -0.6176    -1.0069    -1.1103 C.2     
   3 C3            -2.0227    -0.9873    -1.1652 C.2     
   4 C4            -2.4334     0.2753    -0.7419 C.2     
   5 C5            -1.2942     1.0045    -0.4318 C.2     
   6 N6             1.1797     0.4619    -0.5169 N.2     
   7 C7             2.0578    -0.4632    -0.8010 C.2     
   8 C8             1.6544    -1.7220    -1.2592 C.2     
   9 C9             0.3273    -1.9977    -1.4151 C.2     
  10 C10           -1.2706     2.3423     0.0387 C.2     
  11 N11           -1.2180     3.3642    -0.8385 N.am    
  12 C12           -1.3021     4.7588    -0.3787 C.3     
  13 C13           -0.1307     5.5416    -0.9814 C.3     
  14 N14           -0.1285     5.3675    -2.4400 N.3     
  15 C15            0.0876     3.9620    -2.8086 C.3     
  16 C16           -1.0688     3.1147    -2.2802 C.3     
  17 O17           -1.2979     2.5676     1.2351 O.2     
  18 C18           -3.8567     0.7592    -0.6353 C.3     
  19 C19           -4.3811     0.4762     0.7488 C.ar    
  20 C20           -4.5531     1.5122     1.6476 C.ar    
  21 C21           -4.6953    -0.8184     1.1173 C.ar    
  22 C22           -5.1766    -1.0796     2.3869 C.ar    
  23 C23           -5.3444    -0.0463     3.2888 C.ar    
  24 C24           -5.0349     1.2519     2.9191 C.ar    
  25 F25           -5.1982     2.2629     3.8002 F       
  26 C26           -4.2158     2.9243     1.2437 C.3     
  27 C27           -2.9014    -2.1000    -1.5934 C.ar    
  28 C28           -2.9528    -3.2782    -0.8484 C.ar    
  29 C29           -3.7738    -4.3110    -1.2522 C.ar    
  30 C30           -4.5446    -4.1800    -2.3936 C.ar    
  31 C31           -4.4980    -3.0139    -3.1367 C.ar    
  32 C32           -3.6853    -1.9718    -2.7400 C.ar    
  33 H33            3.1103    -0.2529    -0.6805 H       
  34 H34            2.3933    -2.4751    -1.4900 H       
  35 H35            0.0082    -2.9673    -1.7680 H       
  36 H36           -2.2439     5.1970    -0.7090 H       
  37 H37           -1.2422     4.7899     0.7092 H       
  38 H38           -0.2384     6.5994    -0.7415 H       
  39 H39            0.8067     5.1682    -0.5691 H       
  40 H40           -0.9809     5.7213    -2.8477 H       
  41 H41            0.1383     3.8743    -3.8939 H       
  42 H42            1.0219     3.6107    -2.3709 H       
  43 H43           -0.8570     2.0591    -2.4507 H       
  44 H44           -1.9903     3.3933    -2.7913 H       
  45 H45           -3.8907     1.8321    -0.8245 H       
  46 H46           -4.4726     0.2410    -1.3702 H       
  47 H47           -4.5651    -1.6266     0.4128 H       
  48 H48           -5.4218    -2.0915     2.6737 H       
  49 H49           -5.7210    -0.2504     4.2802 H       
  50 H50           -5.0659     3.3665     0.7241 H       
  51 H51           -3.9878     3.5119     2.1330 H       
  52 H52           -3.3497     2.9159     0.5819 H       
  53 H53           -2.3510    -3.3818     0.0424 H       
  54 H54           -3.8144    -5.2237    -0.6763 H       
  55 H55           -5.1851    -4.9915    -2.7060 H       
  56 H56           -5.1018    -2.9178    -4.0269 H       
  57 H57           -3.6500    -1.0619    -3.3207 H       
@<TRIPOS>BOND
   1    1    2 1
   2    1    6 1
   3    1    5 1
   4    2    3 2
   5    2    9 1
   6    3    4 1
   7    3   27 1
   8    4    5 2
   9    4   18 1
  10    5   10 1
  11    6    7 2
  12    7    8 1
  13    7   33 1
  14    8    9 2
  15    8   34 1
  16    9   35 1
  17   10   11 am
  18   10   17 2
  19   11   12 1
  20   11   16 1
  21   12   13 1
  22   12   36 1
  23   12   37 1
  24   13   14 1
  25   13   38 1
  26   13   39 1
  27   14   15 1
  28   14   40 1
  29   15   16 1
  30   15   41 1
  31   15   42 1
  32   16   43 1
  33   16   44 1
  34   18   19 1
  35   18   45 1
  36   18   46 1
  37   19   20 ar
  38   19   21 ar
  39   20   26 1
  40   20   24 ar
  41   21   22 ar
  42   21   47 1
  43   22   23 ar
  44   22   48 1
  45   23   24 ar
  46   23   49 1
  47   24   25 1
  48   26   50 1
  49   26   51 1
  50   26   52 1
  51   27   28 ar
  52   27   32 ar
  53   28   29 ar
  54   28   53 1
  55   29   30 ar
  56   29   54 1
  57   30   31 ar
  58   30   55 1
  59   31   32 ar
  60   31   56 1
  61   32   57 1

#	End of record

