#	Name: ASD13490014
#	Creating user name:	WinNT
#	Creation time:	15. 06. 2019 21:30

#	Modifying user name:	WinNT
#	Modification time:	15. 06. 2019 21:30

#	Program:	/corina/corina34_cracker 3.40 0067  02.08.2006

@<TRIPOS>MOLECULE
ASD13490014
  57   61    0    0    0
SMALL
NO_CHARGES


@<TRIPOS>ATOM
   1 C1             1.7770     0.7032    -0.4772 C.2     
   2 C2             0.9892    -0.3556    -0.2094 C.2     
   3 N3            -0.0552     0.0721     0.5153 N.2     
   4 C4             0.0512     1.3585     0.7098 C.2     
   5 N5             1.1860     1.7950     0.1043 N.pl3   
   6 C6             1.6629     3.1126     0.0792 C.ar    
   7 C7             2.9815     3.3786     0.4239 C.ar    
   8 C8             3.4557     4.6725     0.4009 C.ar    
   9 C9             2.6085     5.7210     0.0295 C.ar    
  10 C10            1.2806     5.4531    -0.3181 C.ar    
  11 C11            0.8135     4.1529    -0.2975 C.ar    
  12 C12            3.1129     7.1038     0.0048 C.2     
  13 O13           -0.4753     3.8881    -0.6397 O.3     
  14 C14           -1.2887     5.0015    -1.0150 C.3     
  15 C15            1.2381    -1.7757    -0.6480 C.3     
  16 C16            2.6873     7.9585    -0.9437 C.2     
  17 C17            1.8135     7.4852    -2.0811 C.3     
  18 C18            1.8522     8.4721    -3.2436 C.3     
  19 C19            3.2018     9.1833    -3.3395 C.3     
  20 N20            3.4225     9.9586    -2.1198 N.pl3   
  21 C21            3.0551     9.3847    -0.8994 C.2     
  22 N22            3.0402    10.0784     0.1896 N.2     
  23 O23            3.3710    11.4486     0.2128 O.3     
  24 C24            3.3268    12.1349    -1.0340 C.3     
  25 C25            4.0185    11.2925    -2.1293 C.3     
  26 C26            5.4949    11.1909    -1.8448 C.ar    
  27 C27            6.3876    11.9878    -2.5366 C.ar    
  28 C28            7.7441    11.8960    -2.2767 C.ar    
  29 C29            8.2071    11.0042    -1.3220 C.ar    
  30 C30            7.3103    10.2060    -0.6295 C.ar    
  31 C31            5.9540    10.3049    -0.8883 C.ar    
  32 F32            7.7592     9.3356     0.3012 F       
  33 F33            9.5307    10.9128    -1.0673 F       
  34 F34            8.6163    12.6749    -2.9534 F       
  35 H35            2.6997     0.6934    -1.0384 H       
  36 H36           -0.6464     1.9728     1.2597 H       
  37 H37            3.6370     2.5697     0.7110 H       
  38 H38            4.4814     4.8766     0.6701 H       
  39 H39            0.6229     6.2600    -0.6056 H       
  40 H40            3.8246     7.4323     0.7478 H       
  41 H41           -0.8509     5.4953    -1.8825 H       
  42 H42           -2.2909     4.6519    -1.2633 H       
  43 H43           -1.3449     5.7064    -0.1856 H       
  44 H44            1.8263    -2.2925     0.1103 H       
  45 H45            0.2849    -2.2877    -0.7798 H       
  46 H46            1.7832    -1.7742    -1.5919 H       
  47 H47            2.1675     6.5130    -2.4244 H       
  48 H48            0.7870     7.3876    -1.7278 H       
  49 H49            1.6677     7.9335    -4.1731 H       
  50 H50            1.0679     9.2161    -3.1042 H       
  51 H51            3.9958     8.4447    -3.4505 H       
  52 H52            3.2013     9.8513    -4.2008 H       
  53 H53            2.2879    12.3100    -1.3134 H       
  54 H54            3.8394    13.0920    -0.9381 H       
  55 H55            3.8628    11.7572    -3.1029 H       
  56 H56            6.0265    12.6824    -3.2806 H       
  57 H57            5.2546     9.6862    -0.3457 H       
@<TRIPOS>BOND
   1    1    2 2
   2    1    5 1
   3    1   35 1
   4    2    3 1
   5    2   15 1
   6    3    4 2
   7    4    5 1
   8    4   36 1
   9    5    6 1
  10    6    7 ar
  11    6   11 ar
  12    7    8 ar
  13    7   37 1
  14    8    9 ar
  15    8   38 1
  16    9   10 ar
  17    9   12 1
  18   10   11 ar
  19   10   39 1
  20   11   13 1
  21   12   16 2
  22   12   40 1
  23   13   14 1
  24   14   41 1
  25   14   42 1
  26   14   43 1
  27   15   44 1
  28   15   45 1
  29   15   46 1
  30   16   17 1
  31   16   21 1
  32   17   18 1
  33   17   47 1
  34   17   48 1
  35   18   19 1
  36   18   49 1
  37   18   50 1
  38   19   20 1
  39   19   51 1
  40   19   52 1
  41   20   25 1
  42   20   21 1
  43   21   22 2
  44   22   23 1
  45   23   24 1
  46   24   25 1
  47   24   53 1
  48   24   54 1
  49   25   26 1
  50   25   55 1
  51   26   27 ar
  52   26   31 ar
  53   27   28 ar
  54   27   56 1
  55   28   29 ar
  56   28   34 1
  57   29   30 ar
  58   29   33 1
  59   30   31 ar
  60   30   32 1
  61   31   57 1

#	End of record

