#	Name: ASD10610028
#	Creating user name:	WinNT
#	Creation time:	15. 06. 2019 21:27

#	Modifying user name:	WinNT
#	Modification time:	15. 06. 2019 21:27

#	Program:	/corina/corina34_cracker 3.40 0067  02.08.2006

@<TRIPOS>MOLECULE
ASD10610028
  53   57    0    0    0
SMALL
NO_CHARGES


@<TRIPOS>ATOM
   1 C1             0.0113     1.4959     0.0351 C.3     
   2 C2             0.1964    -0.0203    -0.0515 C.3     
   3 C3             1.4188     0.8960     0.0320 C.3     
   4 C4            -0.4418     2.2139    -1.2099 C.2     
   5 O5            -0.2341     1.7262    -2.3007 O.2     
   6 N6            -1.0779     3.3980    -1.1112 N.am    
   7 C7            -2.5384     6.3096    -2.6157 C.ar    
   8 C8            -2.5975     5.0485    -2.0332 C.ar    
   9 C9            -1.4209     4.1484    -2.3218 C.3     
  10 C10           -0.2015     4.9783    -2.7683 C.3     
  11 S11           -1.0220     6.4297    -3.5296 S.3     
  12 C12           -3.7148     4.7375    -1.2547 C.ar    
  13 C13           -4.7304     5.6456    -1.0699 C.ar    
  14 C14           -4.6653     6.9069    -1.6609 C.ar    
  15 C15           -3.5546     7.2341    -2.4343 C.ar    
  16 C16           -5.7604     7.8868    -1.4649 C.ar    
  17 C17           -7.0947     7.5065    -1.6812 C.ar    
  18 C18           -8.1159     8.4371    -1.4930 C.ar    
  19 C19           -7.8108     9.7260    -1.0954 C.ar    
  20 C20           -6.4944    10.0991    -0.8826 C.ar    
  21 C21           -5.4717     9.1863    -1.0599 C.ar    
  22 O22           -7.1436     4.1500    -2.6575 O.3     
  23 N23           -6.5592     5.1576    -2.3194 N.2     
  24 C24           -7.4157     6.1240    -2.1077 C.2     
  25 N25           -8.6491     5.6242    -2.3504 N.2     
  26 C26           -8.4606     4.3754    -2.6969 C.2     
  27 C27           -9.5282     3.3794    -3.0701 C.3     
  28 F28           -9.4024     8.0799    -1.6994 F       
  29 Cl29          -6.1269    11.7208    -0.3836 Cl      
  30 N30           -0.4869     2.0454     1.2985 N.am    
  31 C31           -1.7309     1.7439     1.7205 C.2     
  32 O32           -2.4045     0.9471     1.1022 O.2     
  33 C33           -2.2848     2.3969     2.9606 C.3     
  34 F34           -3.5821     1.9282     3.1945 F       
  35 F35           -1.4716     2.0842     4.0552 F       
  36 F36           -2.3151     3.7842     2.7833 F       
  37 H37           -0.0525    -0.6091     0.8314 H       
  38 H38           -0.0096    -0.4986    -1.0091 H       
  39 H39            2.0170     1.0206    -0.8707 H       
  40 H40            1.9741     0.9102     0.9698 H       
  41 H41           -1.3087     3.7534    -0.2386 H       
  42 H42           -1.6886     3.4495    -3.1143 H       
  43 H43            0.4058     5.2748    -1.9130 H       
  44 H44            0.3952     4.4356    -3.5015 H       
  45 H45           -3.7824     3.7652    -0.7895 H       
  46 H46           -5.5838     5.3804    -0.4635 H       
  47 H47           -3.4884     8.2067    -2.8990 H       
  48 H48           -8.6033    10.4454    -0.9506 H       
  49 H49           -4.4476     9.4830    -0.8881 H       
  50 H50           -9.0645     2.4225    -3.3098 H       
  51 H51          -10.2141     3.2512    -2.2327 H       
  52 H52          -10.0781     3.7441    -3.9376 H       
  53 H53            0.0785     2.6263     1.8313 H       
@<TRIPOS>BOND
   1    1    2 1
   2    1    3 1
   3    1    4 1
   4    1   30 1
   5    2    3 1
   6    2   37 1
   7    2   38 1
   8    3   39 1
   9    3   40 1
  10    4    5 2
  11    4    6 am
  12    6    9 1
  13    6   41 1
  14    7    8 ar
  15    7   11 1
  16    7   15 ar
  17    8    9 1
  18    8   12 ar
  19    9   10 1
  20    9   42 1
  21   10   11 1
  22   10   43 1
  23   10   44 1
  24   12   13 ar
  25   12   45 1
  26   13   14 ar
  27   13   46 1
  28   14   15 ar
  29   14   16 1
  30   15   47 1
  31   16   17 ar
  32   16   21 ar
  33   17   18 ar
  34   17   24 1
  35   18   19 ar
  36   18   28 1
  37   19   20 ar
  38   19   48 1
  39   20   21 ar
  40   20   29 1
  41   21   49 1
  42   22   23 1
  43   22   26 1
  44   23   24 2
  45   24   25 1
  46   25   26 2
  47   26   27 1
  48   27   50 1
  49   27   51 1
  50   27   52 1
  51   30   31 am
  52   30   53 1
  53   31   32 2
  54   31   33 1
  55   33   34 1
  56   33   35 1
  57   33   36 1

#	End of record

