#	Name: ASD13210007
#	Creating user name:	WinNT
#	Creation time:	15. 06. 2019 21:30

#	Modifying user name:	WinNT
#	Modification time:	15. 06. 2019 21:30

#	Program:	/corina/corina34_cracker 3.40 0067  02.08.2006

@<TRIPOS>MOLECULE
ASD13210007
  76   77    0    0    0
SMALL
NO_CHARGES


@<TRIPOS>ATOM
   1 C1            -0.4787     1.6406     0.7113 C.3     
   2 C2            -0.2376     0.1403     0.5327 C.3     
   3 C3             0.5022    -0.4064     1.7553 C.3     
   4 O4            -1.5120    -0.5415     0.3933 O.3     
   5 C5            -1.5274    -1.6584    -0.3510 C.2     
   6 O6            -0.5097    -2.0533    -0.8689 O.2     
   7 C7            -2.8140    -2.4198    -0.5407 C.3     
   8 H8            -3.5509    -1.7745    -1.0188 H       
   9 C9            -3.3423    -2.8757     0.8209 C.3     
  10 N10           -2.5677    -3.5939    -1.3885 N.3     
  11 P11           -3.8909    -3.9109    -2.3790 P.3     
  12 O12           -5.0828    -4.1720    -1.5414 O.2     
  13 N13           -4.1815    -2.5815    -3.3694 N.3     
  14 C14           -5.4408    -2.7411    -4.1087 C.3     
  15 H15           -5.6867    -3.8004    -4.1832 H       
  16 C16           -6.5622    -2.0079    -3.3701 C.3     
  17 C17           -5.2881    -2.1625    -5.4918 C.2     
  18 O18           -4.2379    -1.6679    -5.8272 O.2     
  19 O19           -6.3187    -2.1965    -6.3511 O.3     
  20 C20           -6.0999    -1.6207    -7.6660 C.3     
  21 C21           -6.9714    -2.3473    -8.6924 C.3     
  22 C22           -6.4713    -0.1367    -7.6411 C.3     
  23 O23           -3.5821    -5.2017    -3.2903 O.3     
  24 C24           -4.3590    -5.5476    -4.4387 C.3     
  25 O25           -3.8999    -6.7934    -4.9669 O.3     
  26 C26           -4.2430    -7.9153    -4.2853 C.ar    
  27 C27           -5.0108    -7.8233    -3.1345 C.ar    
  28 C28           -5.3596    -8.9656    -2.4414 C.ar    
  29 C29           -4.9467   -10.2107    -2.8891 C.ar    
  30 Cl30          -5.3929   -11.6380    -2.0074 Cl      
  31 C31           -4.1832   -10.3204    -4.0326 C.ar    
  32 C32           -3.8275    -9.1727    -4.7450 C.ar    
  33 C33           -3.0151    -9.2829    -5.9712 C.2     
  34 O34           -2.7039    -8.2812    -6.5864 O.2     
  35 N35           -2.6177   -10.4938    -6.4098 N.am    
  36 C36           -1.9366   -10.6082    -7.6264 C.ar    
  37 C37           -1.0957    -9.5887    -8.0516 C.ar    
  38 C38           -0.4241    -9.7048    -9.2533 C.ar    
  39 C39           -0.5883   -10.8348   -10.0329 C.ar    
  40 C40           -1.4254   -11.8526    -9.6133 C.ar    
  41 C41           -2.0958   -11.7456    -8.4097 C.ar    
  42 Cl42          -3.1408   -13.0266    -7.8799 Cl      
  43 N43            0.1332   -10.9553   -11.3197 N.pl3   
  44 O44            0.8704   -10.0595   -11.6908 O.2     
  45 O45           -0.0105   -11.9501   -12.0076 O.2     
  46 H46            0.4780     2.1524     0.8159 H       
  47 H47           -1.0058     2.0301    -0.1597 H       
  48 H48           -1.0800     1.8082     1.6048 H       
  49 H49            0.3637    -0.0273    -0.3608 H       
  50 H50           -0.0991    -0.2388     2.6488 H       
  51 H51            0.6740    -1.4752     1.6281 H       
  52 H52            1.4589     0.1054     1.8599 H       
  53 H53           -2.6053    -3.5210     1.2991 H       
  54 H54           -3.5250    -2.0045     1.4500 H       
  55 H55           -4.2729    -3.4265     0.6837 H       
  56 H56           -1.7274    -3.4759    -1.9344 H       
  57 H57           -4.1819    -1.7257    -2.8350 H       
  58 H58           -7.5120    -2.1993    -3.8696 H       
  59 H59           -6.6141    -2.3651    -2.3416 H       
  60 H60           -6.3596    -0.9369    -3.3729 H       
  61 H61           -5.0503    -1.7280    -7.9396 H       
  62 H62           -8.0210    -2.2400    -8.4188 H       
  63 H63           -6.8072    -1.9151    -9.6794 H       
  64 H64           -6.7068    -3.4046    -8.7102 H       
  65 H65           -7.5209    -0.0293    -7.3675 H       
  66 H66           -5.8505     0.3810    -6.9099 H       
  67 H67           -6.3071     0.2956    -8.6281 H       
  68 H68           -5.4074    -5.6378    -4.1544 H       
  69 H69           -4.2535    -4.7708    -5.1961 H       
  70 H70           -5.3362    -6.8566    -2.7794 H       
  71 H71           -5.9572    -8.8884    -1.5451 H       
  72 H72           -3.8635   -11.2924    -4.3782 H       
  73 H73           -2.8040   -11.2859    -5.8818 H       
  74 H74           -0.9669    -8.7054    -7.4436 H       
  75 H75            0.2299    -8.9116    -9.5844 H       
  76 H76           -1.5520   -12.7337   -10.2249 H       
@<TRIPOS>BOND
   1    1    2 1
   2    1   46 1
   3    1   47 1
   4    1   48 1
   5    2    3 1
   6    2    4 1
   7    2   49 1
   8    3   50 1
   9    3   51 1
  10    3   52 1
  11    4    5 1
  12    5    6 2
  13    5    7 1
  14    7    8 1
  15    7    9 1
  16    7   10 1
  17    9   53 1
  18    9   54 1
  19    9   55 1
  20   10   11 1
  21   10   56 1
  22   11   12 2
  23   11   13 1
  24   11   23 1
  25   13   14 1
  26   13   57 1
  27   14   15 1
  28   14   16 1
  29   14   17 1
  30   16   58 1
  31   16   59 1
  32   16   60 1
  33   17   18 2
  34   17   19 1
  35   19   20 1
  36   20   21 1
  37   20   22 1
  38   20   61 1
  39   21   62 1
  40   21   63 1
  41   21   64 1
  42   22   65 1
  43   22   66 1
  44   22   67 1
  45   23   24 1
  46   24   25 1
  47   24   68 1
  48   24   69 1
  49   25   26 1
  50   26   32 ar
  51   26   27 ar
  52   27   28 ar
  53   27   70 1
  54   28   29 ar
  55   28   71 1
  56   29   30 1
  57   29   31 ar
  58   31   32 ar
  59   31   72 1
  60   32   33 1
  61   33   34 2
  62   33   35 am
  63   35   36 1
  64   35   73 1
  65   36   41 ar
  66   36   37 ar
  67   37   38 ar
  68   37   74 1
  69   38   39 ar
  70   38   75 1
  71   39   40 ar
  72   39   43 1
  73   40   41 ar
  74   40   76 1
  75   41   42 1
  76   43   44 2
  77   43   45 2

#	End of record

