#	Name: ASD11910003
#	Creating user name:	WinNT
#	Creation time:	15. 06. 2019 21:29

#	Modifying user name:	WinNT
#	Modification time:	15. 06. 2019 21:29

#	Program:	/corina/corina34_cracker 3.40 0067  02.08.2006

@<TRIPOS>MOLECULE
ASD11910003
  20   20    0    0    0
SMALL
NO_CHARGES


@<TRIPOS>ATOM
   1 C1            -0.0165     1.3667     0.0096 C.ar    
   2 C2             0.0021    -0.0041     0.0020 C.ar    
   3 C3             1.2232    -0.6853    -0.0133 C.ar    
   4 C4             2.4221     0.0343    -0.0208 C.ar    
   5 C5             2.3974     1.4049    -0.0132 C.ar    
   6 C6             1.1795     2.0809     0.0020 C.ar    
   7 S7             1.1516     3.8426     0.0111 S.3     
   8 C8            -0.6220     4.2226     0.0302 C.3     
   9 F9            -1.2051     3.6697     1.1754 F       
  10 F10           -0.8016     5.6100     0.0390 F       
  11 F11           -1.2272     3.6812    -1.1090 F       
  12 C12            1.2465    -2.1599    -0.0209 C.2     
  13 O13            0.2031    -2.7845    -0.0139 O.2     
  14 N14            2.4241    -2.8152    -0.0357 N.am    
  15 H15           -0.9593     1.8934     0.0169 H       
  16 H16           -0.9255    -0.5573     0.0082 H       
  17 H17            3.3667    -0.4893    -0.0323 H       
  18 H18            3.3231     1.9612    -0.0187 H       
  19 H19            3.2563    -2.3169    -0.0413 H       
  20 H20            2.4394    -3.7851    -0.0407 H       
@<TRIPOS>BOND
   1    1    2 ar
   2    1    6 ar
   3    1   15 1
   4    2    3 ar
   5    2   16 1
   6    3    4 ar
   7    3   12 1
   8    4    5 ar
   9    4   17 1
  10    5    6 ar
  11    5   18 1
  12    6    7 1
  13    7    8 1
  14    8    9 1
  15    8   10 1
  16    8   11 1
  17   12   13 2
  18   12   14 am
  19   14   19 1
  20   14   20 1

#	End of record

