#	Name: ASD11000040
#	Creating user name:	WinNT
#	Creation time:	15. 06. 2019 21:28

#	Modifying user name:	WinNT
#	Modification time:	15. 06. 2019 21:28

#	Program:	/corina/corina34_cracker 3.40 0067  02.08.2006

@<TRIPOS>MOLECULE
ASD11000040
  29   30    0    0    0
SMALL
NO_CHARGES


@<TRIPOS>ATOM
   1 C1            -0.0167     1.3794     0.0096 C.ar    
   2 C2             0.0021    -0.0041     0.0020 C.ar    
   3 C3             1.2042    -0.6806    -0.0127 C.ar    
   4 C4             2.4035     0.0339    -0.0203 C.ar    
   5 C5             2.3774     1.4296    -0.0131 C.ar    
   6 C6             1.1683     2.0937     0.0021 C.ar    
   7 C7             3.6952    -0.6842    -0.0356 C.2     
   8 O8             3.7148    -1.8997    -0.0415 O.2     
   9 N9             4.8513     0.0085    -0.0430 N.am    
  10 C10            6.0616    -0.6644    -0.0573 C.2     
  11 C11            7.2922    -0.0572    -0.0657 C.2     
  12 C12            8.3846    -1.0057    -0.0803 C.2     
  13 C13            7.9797    -2.2674    -0.0825 C.2     
  14 S14            6.2277    -2.3608    -0.0594 S.3     
  15 C15            7.4795     1.3949    -0.0611 C.2     
  16 O16            8.7243     1.9144    -0.0700 O.3     
  17 O17            6.5126     2.1329    -0.0491 O.2     
  18 C18            8.8996    -3.4609    -0.0966 C.3     
  19 H19           -0.9606     1.9042     0.0169 H       
  20 H20           -0.9265    -0.5555     0.0080 H       
  21 H21            1.2175    -1.7605    -0.0179 H       
  22 H22            3.3017     1.9883    -0.0189 H       
  23 H23            1.1467     3.1734     0.0074 H       
  24 H24            4.8356     0.9783    -0.0383 H       
  25 H25            9.4247    -0.7149    -0.0888 H       
  26 H26            8.7977     2.8786    -0.0665 H       
  27 H27            9.1309    -3.7535     0.9276 H       
  28 H28            8.4119    -4.2896    -0.6099 H       
  29 H29            9.8216    -3.2029    -0.6177 H       
@<TRIPOS>BOND
   1    1    2 ar
   2    1    6 ar
   3    1   19 1
   4    2    3 ar
   5    2   20 1
   6    3    4 ar
   7    3   21 1
   8    4    5 ar
   9    4    7 1
  10    5    6 ar
  11    5   22 1
  12    6   23 1
  13    7    8 2
  14    7    9 am
  15    9   10 1
  16    9   24 1
  17   10   11 2
  18   10   14 1
  19   11   12 1
  20   11   15 1
  21   12   13 2
  22   12   25 1
  23   13   14 1
  24   13   18 1
  25   15   16 1
  26   15   17 2
  27   16   26 1
  28   18   27 1
  29   18   28 1
  30   18   29 1

#	End of record

