#	Name: ASD10950006
#	Creating user name:	WinNT
#	Creation time:	15. 06. 2019 21:28

#	Modifying user name:	WinNT
#	Modification time:	15. 06. 2019 21:28

#	Program:	/corina/corina34_cracker 3.40 0067  02.08.2006

@<TRIPOS>MOLECULE
ASD10950006
  61   65    0    0    0
SMALL
NO_CHARGES


@<TRIPOS>ATOM
   1 C1             0.7367     1.3637    -2.2151 C.3     
   2 O2             0.6334    -0.0341    -1.8357 O.3     
   3 C3             1.1546    -0.3844    -0.6439 C.2     
   4 O4             1.6809     0.4548     0.0591 O.2     
   5 C5             1.0861    -1.7892    -0.1920 C.ar    
   6 C6             1.6253    -2.1557     1.0427 C.ar    
   7 C7             1.5580    -3.4693     1.4585 C.ar    
   8 C8             0.9578    -4.4227     0.6552 C.ar    
   9 C9             0.4214    -4.0663    -0.5695 C.ar    
  10 C10            0.4768    -2.7553    -0.9951 C.ar    
  11 C11            0.8884    -5.8558     1.1159 C.3     
  12 N12           -0.4710    -6.3786     0.9353 N.am    
  13 C13           -1.6858    -5.8580     1.5672 C.3     
  14 C14           -2.3048    -4.7819     0.6728 C.3     
  15 C15           -3.5545    -4.2463     1.3228 C.2     
  16 C16           -4.8122    -4.6562     1.0939 C.2     
  17 N17           -5.6843    -3.9398     1.8675 N.pl3   
  18 C18           -4.9915    -3.0284     2.6325 C.ar    
  19 C19           -3.6268    -3.1841     2.3290 C.ar    
  20 C20           -2.6761    -2.3821     2.9634 C.ar    
  21 C21           -3.0771    -1.4487     3.8771 C.ar    
  22 C22           -4.4227    -1.2915     4.1804 C.ar    
  23 C23           -5.3769    -2.0744     3.5689 C.ar    
  24 C24           -0.4042    -7.4206     0.0868 C.2     
  25 O25           -1.3541    -8.0839    -0.2791 O.2     
  26 C26            0.9958    -7.6389    -0.3348 C.2     
  27 C27            1.7888    -6.7196     0.2639 C.2     
  28 C28            3.2409    -6.5873     0.1140 C.2     
  29 O29            3.7150    -6.2671    -0.9597 O.2     
  30 C30            4.1296    -6.8429     1.2679 C.ar    
  31 C31            3.5926    -7.2643     2.4862 C.ar    
  32 C32            4.4250    -7.5023     3.5606 C.ar    
  33 C33            5.7906    -7.3250     3.4353 C.ar    
  34 C34            6.3339    -6.9057     2.2278 C.ar    
  35 C35            5.5090    -6.6695     1.1417 C.ar    
  36 O36            7.6769    -6.7328     2.1109 O.3     
  37 O37            1.4175    -8.6045    -1.1832 O.3     
  38 H38            1.7870     1.6517    -2.2587 H       
  39 H39            0.2790     1.5093    -3.1936 H       
  40 H40            0.2214     1.9793    -1.4777 H       
  41 H41            2.0944    -1.4126     1.6706 H       
  42 H42            1.9749    -3.7543     2.4132 H       
  43 H43           -0.0453    -4.8155    -1.1919 H       
  44 H44            0.0578    -2.4784    -1.9512 H       
  45 H45            1.1811    -5.9269     2.1635 H       
  46 H46           -2.3997    -6.6699     1.7060 H       
  47 H47           -1.4348    -5.4253     2.5356 H       
  48 H48           -1.5910    -3.9700     0.5340 H       
  49 H49           -2.5558    -5.2146    -0.2956 H       
  50 H50           -5.0939    -5.4354     0.4013 H       
  51 H51           -6.6472    -4.0564     1.8756 H       
  52 H52           -1.6275    -2.4993     2.7330 H       
  53 H53           -2.3413    -0.8286     4.3676 H       
  54 H54           -4.7241    -0.5496     4.9051 H       
  55 H55           -6.4212    -1.9444     3.8116 H       
  56 H56            2.5264    -7.4034     2.5875 H       
  57 H57            4.0086    -7.8277     4.5024 H       
  58 H58            6.4372    -7.5128     4.2798 H       
  59 H59            5.9303    -6.3439     0.2021 H       
  60 H60            8.1519    -7.5246     1.8237 H       
  61 H61            0.7093    -9.1733    -1.5150 H       
@<TRIPOS>BOND
   1    1    2 1
   2    1   38 1
   3    1   39 1
   4    1   40 1
   5    2    3 1
   6    3    4 2
   7    3    5 1
   8    5    6 ar
   9    5   10 ar
  10    6    7 ar
  11    6   41 1
  12    7    8 ar
  13    7   42 1
  14    8    9 ar
  15    8   11 1
  16    9   10 ar
  17    9   43 1
  18   10   44 1
  19   11   12 1
  20   11   27 1
  21   11   45 1
  22   12   13 1
  23   12   24 am
  24   13   14 1
  25   13   46 1
  26   13   47 1
  27   14   15 1
  28   14   48 1
  29   14   49 1
  30   15   16 2
  31   15   19 1
  32   16   17 1
  33   16   50 1
  34   17   18 1
  35   17   51 1
  36   18   19 ar
  37   18   23 ar
  38   19   20 ar
  39   20   21 ar
  40   20   52 1
  41   21   22 ar
  42   21   53 1
  43   22   23 ar
  44   22   54 1
  45   23   55 1
  46   24   25 2
  47   24   26 1
  48   26   27 2
  49   26   37 1
  50   27   28 1
  51   28   29 2
  52   28   30 1
  53   30   31 ar
  54   30   35 ar
  55   31   32 ar
  56   31   56 1
  57   32   33 ar
  58   32   57 1
  59   33   34 ar
  60   33   58 1
  61   34   35 ar
  62   34   36 1
  63   35   59 1
  64   36   60 1
  65   37   61 1

#	End of record

