#	Name: ASD10870002
#	Creating user name:	WinNT
#	Creation time:	15. 06. 2019 21:28

#	Modifying user name:	WinNT
#	Modification time:	15. 06. 2019 21:28

#	Program:	/corina/corina34_cracker 3.40 0067  02.08.2006

@<TRIPOS>MOLECULE
ASD10870002
  49   51    0    0    0
SMALL
NO_CHARGES


@<TRIPOS>ATOM
   1 C1            -0.1743     1.4993    -0.0101 C.ar    
   2 C2            -0.1633     0.1181    -0.1205 C.ar    
   3 C3             1.0326    -0.5699    -0.1624 C.ar    
   4 C4             2.2352     0.1206    -0.0939 C.ar    
   5 C5             2.2277     1.5190     0.0178 C.ar    
   6 C6             1.0094     2.2014     0.0590 C.ar    
   7 C7             3.4983     2.2642     0.0919 C.2     
   8 N8             3.4901     3.6119     0.0916 N.am    
   9 O9             4.5533     1.6626     0.1531 O.2     
  10 N10            3.4431    -0.5717    -0.1356 N.am    
  11 C11            3.5450    -1.7846     0.4432 C.2     
  12 C12            4.8770    -2.4878     0.4898 C.3     
  13 O13            2.5646    -2.3101     0.9264 O.2     
  14 C14            4.7176    -3.8362     1.1950 C.3     
  15 C15            6.0700    -4.5501     1.2423 C.3     
  16 C16            6.5770    -4.7770    -0.1833 C.3     
  17 C17            6.7365    -3.4286    -0.8885 C.3     
  18 C18            5.3841    -2.7147    -0.9358 C.3     
  19 C19            4.6814     4.3185     0.2847 C.ar    
  20 C20            4.8173     5.6052    -0.2207 C.ar    
  21 C21            5.7290     3.7374     0.9872 C.ar    
  22 C22            6.9042     4.4381     1.1766 C.ar    
  23 C23            7.0382     5.7167     0.6677 C.ar    
  24 C24            5.9948     6.3003    -0.0278 C.ar    
  25 C25            6.1433     7.6961    -0.5762 C.3     
  26 F26            5.7135     8.6214     0.3810 F       
  27 F27            7.4866     7.9351    -0.8855 F       
  28 F28            5.3678     7.8276    -1.7331 F       
  29 H29           -1.1153     2.0286     0.0174 H       
  30 H30           -1.0962    -0.4235    -0.1737 H       
  31 H31            1.0328    -1.6464    -0.2481 H       
  32 H32            0.9953     3.2779     0.1446 H       
  33 H33            2.6579     4.0918    -0.0426 H       
  34 H34            4.2110    -0.1809    -0.5811 H       
  35 H35            5.5929    -1.8741     1.0366 H       
  36 H36            4.3563    -3.6745     2.2106 H       
  37 H37            4.0017    -4.4498     0.6481 H       
  38 H38            6.7858    -3.9364     1.7892 H       
  39 H39            5.9563    -5.5107     1.7448 H       
  40 H40            7.5405    -5.2856    -0.1496 H       
  41 H41            5.8611    -5.3907    -0.7301 H       
  42 H42            7.4524    -2.8150    -0.3417 H       
  43 H43            7.0977    -3.5903    -1.9041 H       
  44 H44            4.6682    -3.3284    -1.4827 H       
  45 H45            5.4977    -1.7541    -1.4383 H       
  46 H46            4.0031     6.0613    -0.7642 H       
  47 H47            5.6249     2.7388     1.3852 H       
  48 H48            7.7192     3.9870     1.7231 H       
  49 H49            7.9580     6.2625     0.8172 H       
@<TRIPOS>BOND
   1    1    2 ar
   2    1    6 ar
   3    1   29 1
   4    2    3 ar
   5    2   30 1
   6    3    4 ar
   7    3   31 1
   8    4    5 ar
   9    4   10 1
  10    5    6 ar
  11    5    7 1
  12    6   32 1
  13    7    8 am
  14    7    9 2
  15    8   19 1
  16    8   33 1
  17   10   11 am
  18   10   34 1
  19   11   12 1
  20   11   13 2
  21   12   14 1
  22   12   18 1
  23   12   35 1
  24   14   15 1
  25   14   36 1
  26   14   37 1
  27   15   16 1
  28   15   38 1
  29   15   39 1
  30   16   17 1
  31   16   40 1
  32   16   41 1
  33   17   18 1
  34   17   42 1
  35   17   43 1
  36   18   44 1
  37   18   45 1
  38   19   21 ar
  39   19   20 ar
  40   20   24 ar
  41   20   46 1
  42   21   22 ar
  43   21   47 1
  44   22   23 ar
  45   22   48 1
  46   23   24 ar
  47   23   49 1
  48   24   25 1
  49   25   26 1
  50   25   27 1
  51   25   28 1

#	End of record

