#	Name: ASD10220012
#	Creating user name:	WinNT
#	Creation time:	15. 06. 2019 21:26

#	Modifying user name:	WinNT
#	Modification time:	15. 06. 2019 21:26

#	Program:	/corina/corina34_cracker 3.40 0067  02.08.2006

@<TRIPOS>MOLECULE
ASD10220012
  31   33    0    0    0
SMALL
NO_CHARGES


@<TRIPOS>ATOM
   1 C1            -0.0063     1.4605    -0.1713 C.2     
   2 C2             0.0236     0.0553    -0.3199 C.2     
   3 C3            -1.1134    -0.6728    -0.3765 C.2     
   4 C4            -2.4362    -0.0555    -0.2882 C.2     
   5 C5            -2.5499     1.3179    -0.1416 C.2     
   6 C6            -1.3369     2.1488    -0.0696 C.2     
   7 O7            -3.6787    -0.5737    -0.3205 O.3     
   8 C8            -4.6080     0.3767    -0.2038 C.2     
   9 C9            -3.9872     1.6034    -0.0858 C.2     
  10 O10           -1.4101     3.3527     0.0586 O.2     
  11 O11            1.0262     2.0994    -0.1218 O.2     
  12 C12           -4.6315     2.9201     0.0649 C.2     
  13 O13           -3.9534     3.9094     0.2681 O.2     
  14 C14           -6.0991     3.0386    -0.0308 C.ar    
  15 C15           -6.7674     4.0518     0.6633 C.ar    
  16 C16           -8.1368     4.1588     0.5713 C.ar    
  17 Br17          -0.9901    -2.5491    -0.5770 Br      
  18 C18           -8.8552     3.2611    -0.2105 C.ar    
  19 C19           -8.1947     2.2519    -0.9020 C.ar    
  20 C20           -6.8249     2.1416    -0.8205 C.ar    
  21 O21          -10.2050     3.3701    -0.2985 O.3     
  22 C22          -10.8808     2.4150    -1.1190 C.3     
  23 H23            0.9766    -0.4478    -0.3900 H       
  24 H24           -5.6753     0.2122    -0.2023 H       
  25 H25           -6.2101     4.7493     1.2711 H       
  26 H26           -8.6538     4.9409     1.1074 H       
  27 H27           -8.7565     1.5564    -1.5079 H       
  28 H28           -6.3125     1.3573    -1.3580 H       
  29 H29          -11.9522     2.6148    -1.1017 H       
  30 H30          -10.5135     2.4908    -2.1424 H       
  31 H31          -10.6922     1.4111    -0.7386 H       
@<TRIPOS>BOND
   1    1    2 1
   2    1   11 2
   3    1    6 1
   4    2    3 2
   5    2   23 1
   6    3    4 1
   7    3   17 1
   8    4    5 2
   9    4    7 1
  10    5    6 1
  11    5    9 1
  12    6   10 2
  13    7    8 1
  14    8    9 2
  15    8   24 1
  16    9   12 1
  17   12   13 2
  18   12   14 1
  19   14   15 ar
  20   14   20 ar
  21   15   16 ar
  22   15   25 1
  23   16   18 ar
  24   16   26 1
  25   18   19 ar
  26   18   21 1
  27   19   20 ar
  28   19   27 1
  29   20   28 1
  30   21   22 1
  31   22   29 1
  32   22   30 1
  33   22   31 1

#	End of record

