#	Name: ASD10420035
#	Creating user name:	WinNT
#	Creation time:	15. 06. 2019 21:27

#	Modifying user name:	WinNT
#	Modification time:	15. 06. 2019 21:27

#	Program:	/corina/corina34_cracker 3.40 0067  02.08.2006

@<TRIPOS>MOLECULE
ASD10420035
  39   42    0    0    0
SMALL
NO_CHARGES


@<TRIPOS>ATOM
   1 C1            -0.0053     1.4642    -0.1418 C.2     
   2 C2             0.0630     0.0575    -0.2049 C.2     
   3 C3             1.3634    -0.2901    -0.3155 C.2     
   4 N4             2.1340     0.8368    -0.3260 N.pl3   
   5 C5             3.4911     1.0108    -0.4200 C.2     
   6 C6             4.0286     2.2464    -0.4091 C.2     
   7 C7             3.2058     3.3815    -0.3014 C.2     
   8 C8             1.8568     3.2280    -0.2076 C.2     
   9 C9             1.3087     1.9329    -0.2197 C.2     
  10 C10           -1.2307     2.2849    -0.0226 C.ar    
  11 C11           -1.4658     3.0295     1.1343 C.ar    
  12 C12           -2.6102     3.7926     1.2390 C.ar    
  13 C13           -3.5240     3.8209     0.2004 C.ar    
  14 C14           -3.2969     3.0850    -0.9492 C.ar    
  15 C15           -2.1536     2.3223    -1.0689 C.ar    
  16 C16           -1.1075    -0.8905    -0.1566 C.3     
  17 C17           -0.6180    -2.3030    -0.3467 C.ar    
  18 C18           -0.2609    -3.0654     0.7510 C.ar    
  19 C19            0.1884    -4.3620     0.5760 C.ar    
  20 C20            0.2812    -4.8966    -0.6955 C.ar    
  21 C21           -0.0752    -4.1365    -1.7931 C.ar    
  22 C22           -0.5310    -2.8404    -1.6193 C.ar    
  23 F23           -0.8851    -2.0989    -2.6917 F       
  24 Cl24          -0.3760    -2.3947     2.3481 Cl      
  25 H25            1.7356    -1.3016    -0.3845 H       
  26 H26            4.1359     0.1483    -0.5033 H       
  27 H27            5.0994     2.3657    -0.4833 H       
  28 H28            3.6419     4.3695    -0.2928 H       
  29 H29            1.2140     4.0918    -0.1240 H       
  30 H30           -0.7535     3.0080     1.9458 H       
  31 H31           -2.7935     4.3690     2.1338 H       
  32 H32           -4.4186     4.4196     0.2876 H       
  33 H33           -4.0143     3.1111    -1.7561 H       
  34 H34           -1.9752     1.7522    -1.9687 H       
  35 H35           -1.6045    -0.8051     0.8097 H       
  36 H36           -1.8110    -0.6398    -0.9505 H       
  37 H37            0.4671    -4.9570     1.4332 H       
  38 H38            0.6327    -5.9087    -0.8311 H       
  39 H39           -0.0024    -4.5547    -2.7862 H       
@<TRIPOS>BOND
   1    1    2 1
   2    1    9 2
   3    1   10 1
   4    2    3 2
   5    2   16 1
   6    3    4 1
   7    3   25 1
   8    4    5 1
   9    4    9 1
  10    5    6 2
  11    5   26 1
  12    6    7 1
  13    6   27 1
  14    7    8 2
  15    7   28 1
  16    8    9 1
  17    8   29 1
  18   10   11 ar
  19   10   15 ar
  20   11   12 ar
  21   11   30 1
  22   12   13 ar
  23   12   31 1
  24   13   14 ar
  25   13   32 1
  26   14   15 ar
  27   14   33 1
  28   15   34 1
  29   16   17 1
  30   16   35 1
  31   16   36 1
  32   17   18 ar
  33   17   22 ar
  34   18   19 ar
  35   18   24 1
  36   19   20 ar
  37   19   37 1
  38   20   21 ar
  39   20   38 1
  40   21   22 ar
  41   21   39 1
  42   22   23 1

#	End of record

