#	Name: ASD10160338
#	Creating user name:	WinNT
#	Creation time:	15. 06. 2019 21:25

#	Modifying user name:	WinNT
#	Modification time:	15. 06. 2019 21:25

#	Program:	/corina/corina34_cracker 3.40 0067  02.08.2006

@<TRIPOS>MOLECULE
ASD10160338
  27   27    0    0    0
SMALL
NO_CHARGES


@<TRIPOS>ATOM
   1 C1            -0.0179     1.4701     0.0101 C.2     
   2 C2             0.0021    -0.0041     0.0020 C.ar    
   3 C3             1.2221    -0.6906    -0.0133 C.ar    
   4 C4             1.2325    -2.0720    -0.0204 C.ar    
   5 C5             0.0392    -2.7758    -0.0123 C.ar    
   6 C6            -1.1721    -2.0996     0.0025 C.ar    
   7 C7            -1.1967    -0.7223     0.0155 C.ar    
   8 O8             1.0260     2.0919     0.0035 O.2     
   9 O9            -1.1939     2.1279     0.0193 O.3     
  10 F10            0.0552    -4.1267    -0.0192 F       
  11 F11            2.3857    -0.0042    -0.0217 F       
  12 C12           -1.1376     3.5788     0.0269 C.3     
  13 C13           -0.4030     4.0673    -1.2232 C.3     
  14 C14           -2.5592     4.1443     0.0367 C.3     
  15 C15           -0.3912     4.0537     1.2752 C.3     
  16 H16            2.1723    -2.6040    -0.0325 H       
  17 H17           -2.0985    -2.6547     0.0080 H       
  18 H18           -2.1409    -0.1984     0.0314 H       
  19 H19           -0.9348     3.7290    -2.1125 H       
  20 H20           -0.3607     5.1564    -1.2175 H       
  21 H21            0.6098     3.6644    -1.2302 H       
  22 H22           -3.0825     3.7964     0.9273 H       
  23 H23           -2.5169     5.2335     0.0424 H       
  24 H24           -3.0909     3.8060    -0.8526 H       
  25 H25            0.6216     3.6508     1.2682 H       
  26 H26           -0.3489     5.1429     1.2809 H       
  27 H27           -0.9145     3.7057     2.1658 H       
@<TRIPOS>BOND
   1    1    2 1
   2    1    8 2
   3    1    9 1
   4    2    3 ar
   5    2    7 ar
   6    3    4 ar
   7    3   11 1
   8    4    5 ar
   9    4   16 1
  10    5    6 ar
  11    5   10 1
  12    6    7 ar
  13    6   17 1
  14    7   18 1
  15    9   12 1
  16   12   13 1
  17   12   15 1
  18   12   14 1
  19   13   19 1
  20   13   20 1
  21   13   21 1
  22   14   22 1
  23   14   23 1
  24   14   24 1
  25   15   25 1
  26   15   26 1
  27   15   27 1

#	End of record

