#	Name: ASD10160210
#	Creating user name:	WinNT
#	Creation time:	15. 06. 2019 21:25

#	Modifying user name:	WinNT
#	Modification time:	15. 06. 2019 21:25

#	Program:	/corina/corina34_cracker 3.40 0067  02.08.2006

@<TRIPOS>MOLECULE
ASD10160210
  34   35    0    0    0
SMALL
NO_CHARGES


@<TRIPOS>ATOM
   1 C1            -0.0398     1.4700     0.0146 C.2     
   2 C2            -0.0140    -0.0043     0.0054 C.ar    
   3 C3             1.2016    -0.6844    -0.1322 C.ar    
   4 C4             1.2205    -2.0648    -0.1398 C.ar    
   5 C5             0.0363    -2.7778    -0.0118 C.ar    
   6 C6            -1.1751    -2.1051     0.1248 C.ar    
   7 C7            -1.2032    -0.7273     0.1397 C.ar    
   8 O8             0.9962     2.0969    -0.0973 O.2     
   9 N9            -1.2121     2.1228     0.1415 N.am    
  10 S10           -1.2410     3.7785     0.1519 S.o2    
  11 O11           -2.6134     4.1039     0.3245 O.2     
  12 O12           -0.2740     4.1397     1.1285 O.2     
  13 C13           -0.6783     4.2514    -1.5065 C.3     
  14 O14            0.0594    -4.1352    -0.0202 O.3     
  15 C15           -0.6706    -4.6871    -3.4389 C.ar    
  16 N16           -0.4653    -4.0761    -2.2894 N.ar    
  17 C17           -0.1513    -4.7678    -1.2001 C.ar    
  18 C18           -0.0414    -6.1549    -1.2891 C.ar    
  19 C19           -0.2652    -6.7535    -2.5145 C.ar    
  20 N20           -0.5746    -5.9959    -3.5567 N.ar    
  21 C21           -0.1582    -8.2493    -2.6636 C.3     
  22 F22           -2.3245    -2.8043     0.2485 F       
  23 F23            2.3544     0.0088    -0.2576 F       
  24 H24            2.1578    -2.5907    -0.2458 H       
  25 H25           -2.1429    -0.2067     0.2505 H       
  26 H26           -2.0389     1.6227     0.2268 H       
  27 H27           -1.3568     3.8373    -2.2522 H       
  28 H28           -0.6662     5.3382    -1.5899 H       
  29 H29            0.3264     3.8630    -1.6738 H       
  30 H30           -0.9291    -4.0992    -4.3073 H       
  31 H31            0.2127    -6.7467    -0.4222 H       
  32 H32           -1.1300    -8.7040    -2.4713 H       
  33 H33            0.1622    -8.4914    -3.6769 H       
  34 H34            0.5706    -8.6344    -1.9503 H       
@<TRIPOS>BOND
   1    1    2 1
   2    1    8 2
   3    1    9 am
   4    2    3 ar
   5    2    7 ar
   6    3    4 ar
   7    3   23 1
   8    4    5 ar
   9    4   24 1
  10    5    6 ar
  11    5   14 1
  12    6    7 ar
  13    6   22 1
  14    7   25 1
  15    9   10 am
  16    9   26 1
  17   10   11 2
  18   10   12 2
  19   10   13 1
  20   13   27 1
  21   13   28 1
  22   13   29 1
  23   14   17 1
  24   15   16 ar
  25   15   20 ar
  26   15   30 1
  27   16   17 ar
  28   17   18 ar
  29   18   19 ar
  30   18   31 1
  31   19   20 ar
  32   19   21 1
  33   21   32 1
  34   21   33 1
  35   21   34 1

#	End of record

