#	Name: ASD14880004
#	Creating user name:	WinNT
#	Creation time:	15. 06. 2019 21:31

#	Modifying user name:	WinNT
#	Modification time:	15. 06. 2019 21:31

#	Program:	/corina/corina34_cracker 3.40 0067  02.08.2006

@<TRIPOS>MOLECULE
ASD14880004
  68   71    0    0    0
SMALL
NO_CHARGES


@<TRIPOS>ATOM
   1 C1             2.9639     2.7023     1.3347 C.3     
   2 C2             3.5951     1.3158     1.4819 C.3     
   3 N3             2.5983     0.2887     1.1485 N.3     
   4 C4             2.1110     0.4587    -0.2275 C.3     
   5 C5             1.4799     1.8453    -0.3747 C.3     
   6 N6             2.4767     2.8723    -0.0413 N.3     
   7 C7             3.1182    -0.9961     1.3413 C.ar    
   8 C8             2.3313    -2.1102     1.0813 C.ar    
   9 C9             2.8452    -3.3779     1.2718 C.ar    
  10 C10            4.1469    -3.5383     1.7232 C.ar    
  11 C11            4.9335    -2.4260     1.9836 C.ar    
  12 C12            4.4233    -1.1576     1.7872 C.ar    
  13 O13            4.6521    -4.7869     1.9110 O.3     
  14 C14            5.9997    -4.8782     2.3775 C.3     
  15 C15            1.9309     4.2210    -0.2437 C.3     
  16 C16            2.9659     5.2453     0.1445 C.2     
  17 C17            1.5642     4.4022    -1.6941 C.ar    
  18 C18            2.4396     3.9928    -2.6833 C.ar    
  19 C19            0.3507     4.9722    -2.0329 C.ar    
  20 C20            0.0111     5.1388    -3.3611 C.ar    
  21 C21            0.8904     4.7335    -4.3573 C.ar    
  22 C22            2.1067     4.1573    -4.0135 C.ar    
  23 N23            3.9353     6.8806     1.0852 N.2     
  24 N24            2.8218     6.2298     1.0510 N.pl3   
  25 N25            4.1831     5.3469    -0.3309 N.2     
  26 N26            4.7551     6.3448     0.2496 N.2     
  27 C27            1.6253     6.5100     1.8485 C.3     
  28 C28            1.8596     7.7612     2.6972 C.3     
  29 C29            0.4340     6.7415     0.9167 C.3     
  30 C30            1.3326     5.3199     2.7644 C.3     
  31 N31            0.5499     4.9001    -5.7016 N.pl3   
  32 C32           -0.7013     5.5711    -6.0626 C.3     
  33 C33            1.4441     4.4038    -6.7506 C.3     
  34 H34            2.1301     2.7980     2.0301 H       
  35 H35            3.7098     3.4665     1.5534 H       
  36 H36            4.4458     1.2298     0.8058 H       
  37 H37            3.9312     1.1764     2.5093 H       
  38 H38            2.9449     0.3631    -0.9229 H       
  39 H39            1.3652    -0.3054    -0.4462 H       
  40 H40            1.1438     1.9846    -1.4021 H       
  41 H41            0.6292     1.9312     0.3014 H       
  42 H42            1.3175    -1.9855     0.7305 H       
  43 H43            2.2333    -4.2445     1.0696 H       
  44 H44            5.9468    -2.5517     2.3353 H       
  45 H45            5.0376    -0.2917     1.9851 H       
  46 H46            6.6656    -4.3975     1.6607 H       
  47 H47            6.0845    -4.3796     3.3431 H       
  48 H48            6.2770    -5.9269     2.4844 H       
  49 H49            1.0425     4.3500     0.3745 H       
  50 H50            3.3847     3.5442    -2.4153 H       
  51 H51           -0.3324     5.2871    -1.2579 H       
  52 H52           -0.9371     5.5834    -3.6250 H       
  53 H53            2.7911     3.8380    -4.7855 H       
  54 H54            2.0681     8.6091     2.0447 H       
  55 H55            0.9694     7.9697     3.2906 H       
  56 H56            2.7083     7.5963     3.3611 H       
  57 H57            0.2023     5.8175     0.3869 H       
  58 H58           -0.4311     7.0508     1.5031 H       
  59 H59            0.6823     7.5210     0.1964 H       
  60 H60            2.1696     5.1722     3.4469 H       
  61 H61            0.4268     5.5168     3.3378 H       
  62 H62            1.1930     4.4228     2.1612 H       
  63 H63           -0.5234     6.6417    -6.1638 H       
  64 H64           -1.0674     5.1727    -7.0088 H       
  65 H65           -1.4442     5.3982    -5.2839 H       
  66 H66            2.2652     3.8496    -6.2959 H       
  67 H67            0.8891     3.7468    -7.4202 H       
  68 H68            1.8432     5.2458    -7.3161 H       
@<TRIPOS>BOND
   1    1    2 1
   2    1    6 1
   3    1   34 1
   4    1   35 1
   5    2    3 1
   6    2   36 1
   7    2   37 1
   8    3    4 1
   9    3    7 1
  10    4    5 1
  11    4   38 1
  12    4   39 1
  13    5    6 1
  14    5   40 1
  15    5   41 1
  16    6   15 1
  17    7    8 ar
  18    7   12 ar
  19    8    9 ar
  20    8   42 1
  21    9   10 ar
  22    9   43 1
  23   10   11 ar
  24   10   13 1
  25   11   12 ar
  26   11   44 1
  27   12   45 1
  28   13   14 1
  29   14   46 1
  30   14   47 1
  31   14   48 1
  32   15   16 1
  33   15   17 1
  34   15   49 1
  35   16   25 2
  36   16   24 1
  37   17   19 ar
  38   17   18 ar
  39   18   22 ar
  40   18   50 1
  41   19   20 ar
  42   19   51 1
  43   20   21 ar
  44   20   52 1
  45   21   22 ar
  46   21   31 1
  47   22   53 1
  48   23   24 1
  49   23   26 2
  50   24   27 1
  51   25   26 1
  52   27   28 1
  53   27   29 1
  54   27   30 1
  55   28   54 1
  56   28   55 1
  57   28   56 1
  58   29   57 1
  59   29   58 1
  60   29   59 1
  61   30   60 1
  62   30   61 1
  63   30   62 1
  64   31   32 1
  65   31   33 1
  66   32   63 1
  67   32   64 1
  68   32   65 1
  69   33   66 1
  70   33   67 1
  71   33   68 1

#	End of record

