#	Name: ASD14900001
#	Creating user name:	WinNT
#	Creation time:	15. 06. 2019 21:31

#	Modifying user name:	WinNT
#	Modification time:	15. 06. 2019 21:31

#	Program:	/corina/corina34_cracker 3.40 0067  02.08.2006

@<TRIPOS>MOLECULE
ASD14900001
  59   62    0    0    0
SMALL
NO_CHARGES


@<TRIPOS>ATOM
   1 C1             1.9133     5.8102     5.6036 C.ar    
   2 C2             2.5527     5.7870     6.8301 C.ar    
   3 C3             3.8162     5.2366     6.9525 C.ar    
   4 C4             4.4583     4.7019     5.8500 C.ar    
   5 C5             3.8298     4.7173     4.6088 C.ar    
   6 C6             2.5446     5.2765     4.4845 C.ar    
   7 C7             1.8777     5.2929     3.1644 C.2     
   8 C8             4.5009     4.1524     3.4180 C.2     
   9 C9             3.9597     4.4472     2.0816 C.ar    
  10 C10            2.6696     5.0084     1.9567 C.ar    
  11 C11            2.1592     5.2874     0.6861 C.ar    
  12 C12            4.7094     4.1795     0.9323 C.ar    
  13 C13            4.1745     4.4680    -0.3280 C.ar    
  14 C14            2.9297     5.0097    -0.4481 C.ar    
  15 O15            0.6896     5.5381     3.0779 O.2     
  16 O16            5.4884     3.4531     3.5417 O.2     
  17 N17            0.8944     5.8378     0.5500 N.pl3   
  18 S18            2.2834     5.3625    -2.0488 S.o2    
  19 O19            2.5613     6.7657    -2.3134 O.co2   
  20 O20            2.9716     4.4842    -2.9820 O.co2   
  21 O21            0.8555     5.0897    -1.9941 O.co2   
  22 N22            5.9770     3.6302     1.0409 N.pl3   
  23 C23            7.0689     4.4472     1.3521 C.ar    
  24 C24            6.8775     5.8033     1.5860 C.ar    
  25 C25            8.3441     3.9014     1.4330 C.ar    
  26 C26            9.4215     4.7073     1.7405 C.ar    
  27 C27            9.2310     6.0647     1.9688 C.ar    
  28 C28            7.9549     6.6096     1.8926 C.ar    
  29 S29           10.6063     7.0935     2.3619 S.3     
  30 C30           11.0686     7.7532     0.7948 C.ar    
  31 C31           12.4291     9.2283    -0.5187 C.ar    
  32 C32           12.0695     8.7135     0.7112 C.ar    
  33 C33           10.4369     7.3101    -0.3613 C.ar    
  34 C34           10.8016     7.8293    -1.5875 C.ar    
  35 C35           11.7945     8.7893    -1.6663 C.ar    
  36 C36           12.1895     9.3538    -3.0065 C.3     
  37 C37           10.1177     7.3492    -2.8416 C.3     
  38 H38            0.9252     6.2373     5.5159 H       
  39 H39            2.0622     6.2018     7.6983 H       
  40 H40            4.3048     5.2246     7.9156 H       
  41 H41            5.4447     4.2742     5.9524 H       
  42 H42            4.7550     4.2611    -1.2149 H       
  43 H43            0.6954     6.4157    -0.2032 H       
  44 H44            0.2083     5.6451     1.2080 H       
  45 H45            6.1070     2.6792     0.9011 H       
  46 H46            5.8857     6.2267     1.5274 H       
  47 H47            8.4921     2.8464     1.2556 H       
  48 H48           10.4126     4.2829     1.8041 H       
  49 H49            7.8063     7.6639     2.0737 H       
  50 H50           13.2069     9.9747    -0.5845 H       
  51 H51           12.5653     9.0571     1.6070 H       
  52 H52            9.6619     6.5604    -0.3006 H       
  53 H53           12.9881     8.7482    -3.4349 H       
  54 H54           11.3275     9.3430    -3.6737 H       
  55 H55           12.5385    10.3787    -2.8805 H       
  56 H56            9.2460     7.9724    -3.0413 H       
  57 H57           10.8104     7.4137    -3.6806 H       
  58 H58            9.8019     6.3143    -2.7098 H       
  59 Na59          18.2069    15.3787    12.9156 Du      
@<TRIPOS>BOND
   1    1    2 ar
   2    1    6 ar
   3    1   38 1
   4    2    3 ar
   5    2   39 1
   6    3    4 ar
   7    3   40 1
   8    4    5 ar
   9    4   41 1
  10    5    6 ar
  11    5    8 1
  12    6    7 1
  13    7   10 1
  14    7   15 2
  15    8    9 1
  16    8   16 2
  17    9   12 ar
  18    9   10 ar
  19   10   11 ar
  20   11   14 ar
  21   11   17 1
  22   12   13 ar
  23   12   22 1
  24   13   14 ar
  25   13   42 1
  26   14   18 1
  27   17   43 1
  28   17   44 1
  29   18   19 ar
  30   18   20 ar
  31   18   21 ar
  32   22   23 1
  33   22   45 1
  34   23   25 ar
  35   23   24 ar
  36   24   28 ar
  37   24   46 1
  38   25   26 ar
  39   25   47 1
  40   26   27 ar
  41   26   48 1
  42   27   28 ar
  43   27   29 1
  44   28   49 1
  45   29   30 1
  46   30   33 ar
  47   30   32 ar
  48   31   32 ar
  49   31   35 ar
  50   31   50 1
  51   32   51 1
  52   33   34 ar
  53   33   52 1
  54   34   35 ar
  55   34   37 1
  56   35   36 1
  57   36   53 1
  58   36   54 1
  59   36   55 1
  60   37   56 1
  61   37   57 1
  62   37   58 1

#	End of record

