#	Name: ASD10160050
#	Creating user name:	WinNT
#	Creation time:	15. 06. 2019 21:25

#	Modifying user name:	WinNT
#	Modification time:	15. 06. 2019 21:25

#	Program:	/corina/corina34_cracker 3.40 0067  02.08.2006

@<TRIPOS>MOLECULE
ASD10160050
  42   43    0    0    0
SMALL
NO_CHARGES


@<TRIPOS>ATOM
   1 C1             0.3705     1.1000     1.9616 C.2     
   2 C2             0.2883    -0.2780     1.4392 C.ar    
   3 C3             1.3726    -0.8331     0.7535 C.ar    
   4 C4             1.2915    -2.1205     0.2672 C.ar    
   5 C5             0.1313    -2.8661     0.4585 C.ar    
   6 C6            -0.9474    -2.3162     1.1397 C.ar    
   7 C7            -0.8711    -1.0325     1.6338 C.ar    
   8 O8             1.3822     1.7537     1.7957 O.2     
   9 N9            -0.6779     1.6356     2.6176 N.am    
  10 S10           -0.5857     3.1816     3.2038 S.o2    
  11 O11           -1.8378     3.3895     3.8426 O.2     
  12 O12            0.6271     3.2040     3.9440 O.2     
  13 C13           -0.4466     4.2197     1.7227 C.3     
  14 F14            2.3383    -2.6588    -0.3957 F       
  15 O15            0.0538    -4.1332    -0.0222 O.3     
  16 C16           -1.3992    -5.5724     1.2000 C.ar    
  17 C17           -1.1331    -4.7869     0.0898 C.ar    
  18 C18           -2.0962    -4.6750    -0.9092 C.ar    
  19 C19           -3.2906    -5.3580    -0.7529 C.ar    
  20 C20           -3.4864    -6.1268     0.3881 C.ar    
  21 N21           -2.5490    -6.2093     1.3166 N.ar    
  22 O22           -4.6539    -6.8005     0.5513 O.3     
  23 C23           -4.7955    -7.5735     1.7448 C.3     
  24 C24           -6.2714    -7.6291     2.1444 C.3     
  25 C25           -4.2804    -8.9928     1.4974 C.3     
  26 Cl26          -4.5277    -5.2547    -1.9663 Cl      
  27 H27            2.2721    -0.2543     0.6047 H       
  28 H28           -1.8458    -2.8976     1.2857 H       
  29 H29           -1.7088    -0.6082     2.1673 H       
  30 H30           -1.4865     1.1155     2.7465 H       
  31 H31           -1.3248     4.0747     1.0936 H       
  32 H32           -0.3799     5.2669     2.0178 H       
  33 H33            0.4486     3.9413     1.1666 H       
  34 H34           -0.6552    -5.6676     1.9771 H       
  35 H35           -1.9162    -4.0696    -1.7852 H       
  36 H36           -4.2191    -7.1124     2.5468 H       
  37 H37           -6.8478    -8.0902     1.3424 H       
  38 H38           -6.3794    -8.2186     3.0548 H       
  39 H39           -6.6384    -6.6179     2.3206 H       
  40 H40           -3.2289    -8.9532     1.2128 H       
  41 H41           -4.3884    -9.5824     2.4078 H       
  42 H42           -4.8568    -9.4539     0.6954 H       
@<TRIPOS>BOND
   1    1    2 1
   2    1    8 2
   3    1    9 am
   4    2    3 ar
   5    2    7 ar
   6    3    4 ar
   7    3   27 1
   8    4    5 ar
   9    4   14 1
  10    5    6 ar
  11    5   15 1
  12    6    7 ar
  13    6   28 1
  14    7   29 1
  15    9   10 am
  16    9   30 1
  17   10   11 2
  18   10   12 2
  19   10   13 1
  20   13   31 1
  21   13   32 1
  22   13   33 1
  23   15   17 1
  24   16   17 ar
  25   16   21 ar
  26   16   34 1
  27   17   18 ar
  28   18   19 ar
  29   18   35 1
  30   19   20 ar
  31   19   26 1
  32   20   21 ar
  33   20   22 1
  34   22   23 1
  35   23   24 1
  36   23   25 1
  37   23   36 1
  38   24   37 1
  39   24   38 1
  40   24   39 1
  41   25   40 1
  42   25   41 1
  43   25   42 1

#	End of record

