#	Name: ASD10420015
#	Creating user name:	WinNT
#	Creation time:	15. 06. 2019 21:27

#	Modifying user name:	WinNT
#	Modification time:	15. 06. 2019 21:27

#	Program:	/corina/corina34_cracker 3.40 0067  02.08.2006

@<TRIPOS>MOLECULE
ASD10420015
  65   69    0    0    0
SMALL
NO_CHARGES


@<TRIPOS>ATOM
   1 N1            -0.1768     0.2373    -0.6517 N.pl3   
   2 C2            -0.5994    -0.9917    -1.0860 C.2     
   3 C3            -2.0031    -0.9761    -1.1369 C.2     
   4 C4            -2.4199     0.2905    -0.7235 C.2     
   5 C5            -1.2873     1.0268    -0.4226 C.2     
   6 C6             1.1505     0.4961    -0.5103 C.2     
   7 C7             2.0854    -0.4708    -0.8012 C.2     
   8 C8             1.6638    -1.7456    -1.2510 C.2     
   9 C9             0.3353    -1.9972    -1.3901 C.2     
  10 C10           -1.2693     2.3683     0.0356 C.2     
  11 N11           -1.2265     3.3826    -0.8509 N.am    
  12 C12           -1.3227     4.7805    -0.4038 C.3     
  13 C13           -0.1587     5.5681    -1.0146 C.3     
  14 N14           -0.1562     5.3808    -2.4716 N.3     
  15 C15            0.0721     3.9740    -2.8276 C.3     
  16 C16           -1.0762     3.1212    -2.2905 C.3     
  17 O17           -1.2926     2.6041     1.2302 O.2     
  18 C18           -3.8454     0.7680    -0.6189 C.3     
  19 C19           -4.3686     0.4880     0.7664 C.ar    
  20 C20           -4.5426     1.5263     1.6621 C.ar    
  21 C21           -4.6796    -0.8062     1.1389 C.ar    
  22 C22           -5.1597    -1.0646     2.4095 C.ar    
  23 C23           -5.3296    -0.0290     3.3083 C.ar    
  24 C24           -5.0232     1.2687     2.9345 C.ar    
  25 C25           -2.8789    -2.0960    -1.5523 C.ar    
  26 C26           -2.9240    -3.2673    -0.7962 C.ar    
  27 C27           -3.7422    -4.3069    -1.1881 C.ar    
  28 C28           -4.5164    -4.1895    -2.3286 C.ar    
  29 C29           -4.4760    -3.0303    -3.0828 C.ar    
  30 C30           -3.6662    -1.9815    -2.6981 C.ar    
  31 C31           -4.2087     2.9379     1.2538 C.3     
  32 F32           -5.1885     2.2821     3.8126 F       
  33 C33            3.5239    -0.1797    -0.6453 C.2     
  34 O34            3.8842     0.9156    -0.2594 O.2     
  35 N35            4.4381    -1.1279    -0.9308 N.am    
  36 C36            5.8660    -0.8389    -0.7760 C.3     
  37 H37            1.4735     1.4679    -0.1673 H       
  38 H38            2.3908    -2.5103    -1.4816 H       
  39 H39           -0.0007    -2.9650    -1.7320 H       
  40 H40           -2.2686     5.2073    -0.7372 H       
  41 H41           -1.2621     4.8220     0.6838 H       
  42 H42           -0.2756     6.6271    -0.7843 H       
  43 H43            0.7823     5.2069    -0.5998 H       
  44 H44           -1.0121     5.7233    -2.8818 H       
  45 H45            0.1226     3.8768    -3.9121 H       
  46 H46            1.0099     3.6349    -2.3875 H       
  47 H47           -0.8552     2.0661    -2.4515 H       
  48 H48           -2.0006     3.3870    -2.8032 H       
  49 H49           -3.8846     1.8400    -0.8123 H       
  50 H50           -4.4588     0.2439    -1.3518 H       
  51 H51           -4.5478    -1.6162     0.4368 H       
  52 H52           -5.4024    -2.0763     2.6994 H       
  53 H53           -5.7053    -0.2310     4.3005 H       
  54 H54           -2.3196    -3.3604     0.0940 H       
  55 H55           -3.7781    -5.2143    -0.6035 H       
  56 H56           -5.1548    -5.0062    -2.6317 H       
  57 H57           -5.0824    -2.9447    -3.9723 H       
  58 H58           -3.6354    -1.0771    -3.2876 H       
  59 H59           -5.0615     3.3779     0.7367 H       
  60 H60           -3.9778     3.5278     2.1408 H       
  61 H61           -3.3454     2.9292     0.5884 H       
  62 H62            4.1507    -2.0017    -1.2386 H       
  63 H63            6.4468    -1.7192    -1.0516 H       
  64 H64            6.1402    -0.0056    -1.4229 H       
  65 H65            6.0733    -0.5771     0.2615 H       
@<TRIPOS>BOND
   1    1    2 1
   2    1    6 1
   3    1    5 1
   4    2    3 2
   5    2    9 1
   6    3    4 1
   7    3   25 1
   8    4    5 2
   9    4   18 1
  10    5   10 1
  11    6    7 2
  12    6   37 1
  13    7    8 1
  14    7   33 1
  15    8    9 2
  16    8   38 1
  17    9   39 1
  18   10   11 am
  19   10   17 2
  20   11   12 1
  21   11   16 1
  22   12   13 1
  23   12   40 1
  24   12   41 1
  25   13   14 1
  26   13   42 1
  27   13   43 1
  28   14   15 1
  29   14   44 1
  30   15   16 1
  31   15   45 1
  32   15   46 1
  33   16   47 1
  34   16   48 1
  35   18   19 1
  36   18   49 1
  37   18   50 1
  38   19   20 ar
  39   19   21 ar
  40   20   31 1
  41   20   24 ar
  42   21   22 ar
  43   21   51 1
  44   22   23 ar
  45   22   52 1
  46   23   24 ar
  47   23   53 1
  48   24   32 1
  49   25   26 ar
  50   25   30 ar
  51   26   27 ar
  52   26   54 1
  53   27   28 ar
  54   27   55 1
  55   28   29 ar
  56   28   56 1
  57   29   30 ar
  58   29   57 1
  59   30   58 1
  60   31   59 1
  61   31   60 1
  62   31   61 1
  63   33   34 2
  64   33   35 am
  65   35   36 1
  66   35   62 1
  67   36   63 1
  68   36   64 1
  69   36   65 1

#	End of record

