#	Name: ASD10438014
#	Creating user name:	WinNT
#	Creation time:	15. 06. 2019 21:27

#	Modifying user name:	WinNT
#	Modification time:	15. 06. 2019 21:27

#	Program:	/corina/corina34_cracker 3.40 0067  02.08.2006

@<TRIPOS>MOLECULE
ASD10438014
  31   32    0    0    0
SMALL
NO_CHARGES


@<TRIPOS>ATOM
   1 C1            -0.0167     1.3821     0.0096 C.ar    
   2 C2             0.0021    -0.0041     0.0020 C.ar    
   3 C3             1.2132    -0.6785    -0.0132 C.ar    
   4 C4             2.4034     0.0350    -0.0207 C.ar    
   5 C5             2.3820     1.4166    -0.0131 C.ar    
   6 C6             1.1762     2.0911     0.0021 C.ar    
   7 O7            -1.2024     2.0461     0.0189 O.3     
   8 O8             1.2349    -2.0373    -0.0202 O.3     
   9 C9             3.6760     2.1890    -0.0208 C.3     
  10 C10            4.1007     2.4582    -1.4658 C.3     
  11 C11            5.3947     3.2306    -1.4735 C.ar    
  12 C12            6.6013     2.5556    -1.4882 C.ar    
  13 C13            7.7888     3.2614    -1.4953 C.ar    
  14 C14            7.7700     4.6485    -1.4877 C.ar    
  15 C15            6.5580     5.3234    -1.4729 C.ar    
  16 C16            5.3732     4.6131    -1.4716 C.ar    
  17 O17            8.9369     5.3451    -1.4942 O.3     
  18 H18           -0.9253    -0.5576     0.0083 H       
  19 H19            3.3472    -0.4899    -0.0322 H       
  20 H20            1.1621     3.1710     0.0080 H       
  21 H21           -1.5414     2.2335     0.9049 H       
  22 H22            1.2325    -2.4261    -0.9056 H       
  23 H23            3.5366     3.1367     0.4994 H       
  24 H24            4.4488     1.6083     0.4829 H       
  25 H25            4.2401     1.5105    -1.9860 H       
  26 H26            3.3279     3.0389    -1.9695 H       
  27 H27            6.6154     1.4757    -1.4938 H       
  28 H28            8.7311     2.7337    -1.5064 H       
  29 H29            6.5408     6.4033    -1.4669 H       
  30 H30            4.4294     5.1380    -1.4649 H       
  31 H31            9.2669     5.5514    -2.3794 H       
@<TRIPOS>BOND
   1    1    2 ar
   2    1    6 ar
   3    1    7 1
   4    2    3 ar
   5    2   18 1
   6    3    4 ar
   7    3    8 1
   8    4    5 ar
   9    4   19 1
  10    5    6 ar
  11    5    9 1
  12    6   20 1
  13    7   21 1
  14    8   22 1
  15    9   10 1
  16    9   23 1
  17    9   24 1
  18   10   11 1
  19   10   25 1
  20   10   26 1
  21   11   12 ar
  22   11   16 ar
  23   12   13 ar
  24   12   27 1
  25   13   14 ar
  26   13   28 1
  27   14   15 ar
  28   14   17 1
  29   15   16 ar
  30   15   29 1
  31   16   30 1
  32   17   31 1

#	End of record

