#	Name: ASD11000159
#	Creating user name:	WinNT
#	Creation time:	15. 06. 2019 21:28

#	Modifying user name:	WinNT
#	Modification time:	15. 06. 2019 21:28

#	Program:	/corina/corina34_cracker 3.40 0067  02.08.2006

@<TRIPOS>MOLECULE
ASD11000159
  46   49    0    0    0
SMALL
NO_CHARGES


@<TRIPOS>ATOM
   1 N1            -0.0172     1.3215    -0.0112 N.ar    
   2 C2             0.0016    -0.0034    -0.0060 C.ar    
   3 N3             1.1403    -0.6810    -0.0155 N.ar    
   4 C4             2.3025    -0.0498    -0.0305 C.ar    
   5 C5             2.3192     1.3363    -0.0364 C.ar    
   6 C6             1.1098     2.0136    -0.0261 C.ar    
   7 C7             3.6238     2.0904    -0.0530 C.3     
   8 O8             4.0222     2.3233    -1.4054 O.3     
   9 C9             5.1874     2.9971    -1.5985 C.ar    
  10 C10            5.9295     3.4240    -0.5073 C.ar    
  11 C11            7.1139     4.1099    -0.6997 C.ar    
  12 C12            7.5580     4.3699    -1.9862 C.ar    
  13 C13            6.8137     3.9400    -3.0796 C.ar    
  14 C14            5.6355     3.2520    -2.8878 C.ar    
  15 N15           -1.1973    -0.6965     0.0102 N.pl3   
  16 C16           -1.2008    -2.0923    -0.1029 C.ar    
  17 C17           -2.1492    -2.8423     0.5800 C.ar    
  18 C18           -0.2595    -2.7268    -0.9027 C.ar    
  19 C19           -0.2639    -4.1032    -1.0141 C.ar    
  20 C20           -1.2086    -4.8520    -0.3278 C.ar    
  21 C21           -2.1523    -4.2186     0.4675 C.ar    
  22 O22           -1.2126    -6.2073    -0.4384 O.3     
  23 C23           -2.2134    -6.9153     0.2959 C.3     
  24 F24           -2.0650    -6.6500     1.6615 F       
  25 F25           -3.4815    -6.5001    -0.1247 F       
  26 N26            8.7538     5.0665    -2.2097 N.am    
  27 C27            9.0070     5.5788    -3.4312 C.2     
  28 O28            8.1129     5.4529    -4.4287 O.3     
  29 C29            7.3233     4.2328    -4.4684 C.3     
  30 O30           10.0543     6.1611    -3.6332 O.2     
  31 H31            3.2273    -0.6075    -0.0378 H       
  32 H32            1.0881     3.0934    -0.0307 H       
  33 H33            3.4983     3.0449     0.4583 H       
  34 H34            4.3891     1.5038     0.4553 H       
  35 H35            5.5811     3.2204     0.4945 H       
  36 H36            7.6914     4.4426     0.1502 H       
  37 H37            5.0580     2.9194    -3.7376 H       
  38 H38           -2.0347    -0.2151     0.0999 H       
  39 H39           -2.8840    -2.3493     1.1993 H       
  40 H40            0.4756    -2.1439    -1.4377 H       
  41 H41            0.4681    -4.5968    -1.6361 H       
  42 H42           -2.8875    -4.8023     1.0016 H       
  43 H43           -2.1045    -7.9854     0.1197 H       
  44 H44            9.3948     5.1795    -1.4905 H       
  45 H45            7.9451     3.4059    -4.8114 H       
  46 H46            6.4803     4.3648    -5.1467 H       
@<TRIPOS>BOND
   1    1    2 ar
   2    1    6 ar
   3    2    3 ar
   4    2   15 1
   5    3    4 ar
   6    4    5 ar
   7    4   31 1
   8    5    6 ar
   9    5    7 1
  10    6   32 1
  11    7    8 1
  12    7   33 1
  13    7   34 1
  14    8    9 1
  15    9   10 ar
  16    9   14 ar
  17   10   11 ar
  18   10   35 1
  19   11   12 ar
  20   11   36 1
  21   12   13 ar
  22   12   26 1
  23   13   14 ar
  24   13   29 1
  25   14   37 1
  26   15   16 1
  27   15   38 1
  28   16   17 ar
  29   16   18 ar
  30   17   21 ar
  31   17   39 1
  32   18   19 ar
  33   18   40 1
  34   19   20 ar
  35   19   41 1
  36   20   21 ar
  37   20   22 1
  38   21   42 1
  39   22   23 1
  40   23   24 1
  41   23   25 1
  42   23   43 1
  43   26   27 am
  44   26   44 1
  45   27   28 1
  46   27   30 2
  47   28   29 1
  48   29   45 1
  49   29   46 1

#	End of record

