#	Name: ASD13490012
#	Creating user name:	WinNT
#	Creation time:	15. 06. 2019 21:30

#	Modifying user name:	WinNT
#	Modification time:	15. 06. 2019 21:30

#	Program:	/corina/corina34_cracker 3.40 0067  02.08.2006

@<TRIPOS>MOLECULE
ASD13490012
  58   62    0    0    0
SMALL
NO_CHARGES


@<TRIPOS>ATOM
   1 C1             1.3024     0.9686    -1.4323 C.2     
   2 C2             1.4140    -0.3615    -1.2532 C.2     
   3 N3             2.3547    -0.5813    -0.3228 N.2     
   4 C4             2.8345     0.5619     0.0856 C.2     
   5 N5             2.2025     1.5603    -0.5843 N.pl3   
   6 C6             2.4283     2.9356    -0.4369 C.ar    
   7 C7             2.6441     3.7261    -1.5578 C.ar    
   8 C8             2.8666     5.0792    -1.4185 C.ar    
   9 C9             2.8749     5.6589    -0.1461 C.ar    
  10 C10            2.6571     4.8628     0.9828 C.ar    
  11 C11            2.4299     3.5079     0.8352 C.ar    
  12 C12            3.1129     7.1038     0.0048 C.2     
  13 O13            2.2126     2.7318     1.9301 O.3     
  14 C14            2.2281     3.3844     3.2013 C.3     
  15 C15            0.6192    -1.4200    -1.9736 C.3     
  16 C16            2.6873     7.9585    -0.9437 C.2     
  17 C17            1.8064     7.5295    -2.1079 C.3     
  18 C18            0.6445     8.5128    -2.2340 C.3     
  19 C19            1.1204     9.9357    -2.5025 C.3     
  20 N20            2.2086    10.3085    -1.6117 N.pl3   
  21 C21            3.0307     9.3993    -0.9409 C.2     
  22 N22            4.0255    10.0036    -0.3906 N.2     
  23 O23            3.9799    11.3946    -0.6810 O.3     
  24 C24            2.6675    11.6402    -1.2069 C.3     
  25 C25            2.7271    12.5803    -2.4125 C.3     
  26 C26            1.7748    12.2064    -0.1328 C.ar    
  27 C27            2.2654    13.1569     0.7430 C.ar    
  28 C28            1.4476    13.6772     1.7280 C.ar    
  29 C29            0.1364    13.2462     1.8376 C.ar    
  30 C30           -0.3539    12.2941     0.9599 C.ar    
  31 C31            0.4643    11.7791    -0.0277 C.ar    
  32 F32           -0.6638    13.7538     2.8005 F       
  33 O33            3.1767    13.8692    -1.9897 O.3     
  34 H34            0.6351     1.4722    -2.1160 H       
  35 H35            3.6047     0.6922     0.8314 H       
  36 H36            2.6379     3.2797    -2.5412 H       
  37 H37            3.0349     5.6915    -2.2920 H       
  38 H38            2.6627     5.3066     1.9674 H       
  39 H39            3.6291     7.4779     0.8766 H       
  40 H40            2.0421     2.6528     3.9876 H       
  41 H41            3.2016     3.8484     3.3597 H       
  42 H42            1.4525     4.1498     3.2263 H       
  43 H43            1.1451    -1.7139    -2.8820 H       
  44 H44            0.4997    -2.2884    -1.3258 H       
  45 H45           -0.3620    -1.0232    -2.2341 H       
  46 H46            2.3900     7.5335    -3.0285 H       
  47 H47            1.4188     6.5277    -1.9229 H       
  48 H48           -0.0004     8.1950    -3.0533 H       
  49 H49            0.0692     8.5011    -1.3083 H       
  50 H50            1.4637    10.0081    -3.5345 H       
  51 H51            0.2879    10.6238    -2.3558 H       
  52 H52            3.4193    12.1787    -3.1525 H       
  53 H53            1.7343    12.6685    -2.8538 H       
  54 H54            3.2883    13.4927     0.6575 H       
  55 H55            1.8312    14.4195     2.4123 H       
  56 H56           -1.3765    11.9572     1.0445 H       
  57 H57            0.0808    11.0395    -0.7150 H       
  58 H58            3.2386    14.5179    -2.7041 H       
@<TRIPOS>BOND
   1    1    2 2
   2    1    5 1
   3    1   34 1
   4    2    3 1
   5    2   15 1
   6    3    4 2
   7    4    5 1
   8    4   35 1
   9    5    6 1
  10    6    7 ar
  11    6   11 ar
  12    7    8 ar
  13    7   36 1
  14    8    9 ar
  15    8   37 1
  16    9   10 ar
  17    9   12 1
  18   10   11 ar
  19   10   38 1
  20   11   13 1
  21   12   16 2
  22   12   39 1
  23   13   14 1
  24   14   40 1
  25   14   41 1
  26   14   42 1
  27   15   43 1
  28   15   44 1
  29   15   45 1
  30   16   17 1
  31   16   21 1
  32   17   18 1
  33   17   46 1
  34   17   47 1
  35   18   19 1
  36   18   48 1
  37   18   49 1
  38   19   20 1
  39   19   50 1
  40   19   51 1
  41   20   24 1
  42   20   21 1
  43   21   22 2
  44   22   23 1
  45   23   24 1
  46   24   25 1
  47   24   26 1
  48   25   33 1
  49   25   52 1
  50   25   53 1
  51   26   27 ar
  52   26   31 ar
  53   27   28 ar
  54   27   54 1
  55   28   29 ar
  56   28   55 1
  57   29   30 ar
  58   29   32 1
  59   30   31 ar
  60   30   56 1
  61   31   57 1
  62   33   58 1

#	End of record

