#	Name: ASD13110010
#	Creating user name:	WinNT
#	Creation time:	15. 06. 2019 21:30

#	Modifying user name:	WinNT
#	Modification time:	15. 06. 2019 21:30

#	Program:	/corina/corina34_cracker 3.40 0067  02.08.2006

@<TRIPOS>MOLECULE
ASD13110010
  50   54    0    0    0
SMALL
NO_CHARGES


@<TRIPOS>ATOM
   1 H1            -2.6639    -0.6751    -1.7119 H       
   2 C2            -1.7258    -0.1608    -1.5028 C.3     
   3 C3            -1.7440     1.3267    -1.9202 C.3     
   4 C4            -0.4082     2.0032    -1.6199 C.3     
   5 C5            -0.6423     3.1689    -0.6570 C.3     
   6 C6             0.1759     2.5336    -2.9039 C.2     
   7 O7             1.2567     2.1383    -3.2872 O.2     
   8 N8            -0.5025     3.4471    -3.6261 N.am    
   9 C9             0.0844     4.0176    -4.7623 C.ar    
  10 C10           -0.1080     3.4388    -6.0104 C.ar    
  11 Cl11          -1.0769     2.0065    -6.1640 Cl      
  12 C12            0.4725     4.0051    -7.1301 C.ar    
  13 C13            1.2442     5.1457    -7.0086 C.ar    
  14 C14            1.4384     5.7244    -5.7676 C.ar    
  15 C15            2.2808     6.9674    -5.6403 C.3     
  16 C16            0.8560     5.1673    -4.6448 C.ar    
  17 Cl17           1.0940     5.8989    -3.0886 Cl      
  18 C18            0.5914     1.0127    -0.9819 C.3     
  19 H19            1.5592     1.4637    -0.7626 H       
  20 C20            0.6824    -0.1507    -1.9567 C.ar    
  21 C21            1.8350    -0.5916    -2.5406 C.ar    
  22 C22            1.7725    -1.6689    -3.4155 C.ar    
  23 C23            0.5634    -2.2809    -3.6877 C.ar    
  24 C24           -0.6056    -1.8271    -3.0899 C.ar    
  25 C25           -0.5372    -0.7682    -2.2310 C.ar    
  26 C26           -0.1092     0.4731     0.2549 C.ar    
  27 C27            0.3795     0.5552     1.5270 C.ar    
  28 C28           -0.3680     0.0177     2.5673 C.ar    
  29 C29           -1.5843    -0.5886     2.3152 C.ar    
  30 C30           -2.0755    -0.6688     1.0182 C.ar    
  31 C31           -1.3479    -0.1847    -0.0303 C.ar    
  32 H32           -1.9465     1.3951    -2.9891 H       
  33 H33           -2.5352     1.8409    -1.3746 H       
  34 H34           -1.0793     2.7937     0.2684 H       
  35 H35            0.3080     3.6562    -0.4387 H       
  36 H36           -1.3222     3.8874    -1.1148 H       
  37 H37           -1.3973     3.7095    -3.3589 H       
  38 H38            0.3234     3.5556    -8.1007 H       
  39 H39            1.6969     5.5857    -7.8849 H       
  40 H40            1.6479     7.8481    -5.7498 H       
  41 H41            2.7593     6.9833    -4.6611 H       
  42 H42            3.0445     6.9700    -6.4180 H       
  43 H43            2.7783    -0.1114    -2.3264 H       
  44 H44            2.6747    -2.0304    -3.8864 H       
  45 H45            0.5272    -3.1173    -4.3701 H       
  46 H46           -1.5517    -2.3032    -3.3012 H       
  47 H47            1.3303     1.0292     1.7211 H       
  48 H48            0.0039     0.0736     3.5797 H       
  49 H49           -2.1566    -1.0031     3.1320 H       
  50 H50           -3.0254    -1.1423     0.8184 H       
@<TRIPOS>BOND
   1    1    2 1
   2    2   25 1
   3    2   31 1
   4    2    3 1
   5    3    4 1
   6    3   32 1
   7    3   33 1
   8    4    5 1
   9    4    6 1
  10    4   18 1
  11    5   34 1
  12    5   35 1
  13    5   36 1
  14    6    7 2
  15    6    8 am
  16    8    9 1
  17    8   37 1
  18    9   16 ar
  19    9   10 ar
  20   10   11 1
  21   10   12 ar
  22   12   13 ar
  23   12   38 1
  24   13   14 ar
  25   13   39 1
  26   14   15 1
  27   14   16 ar
  28   15   40 1
  29   15   41 1
  30   15   42 1
  31   16   17 1
  32   18   19 1
  33   18   20 1
  34   18   26 1
  35   20   25 ar
  36   20   21 ar
  37   21   22 ar
  38   21   43 1
  39   22   23 ar
  40   22   44 1
  41   23   24 ar
  42   23   45 1
  43   24   25 ar
  44   24   46 1
  45   26   31 ar
  46   26   27 ar
  47   27   28 ar
  48   27   47 1
  49   28   29 ar
  50   28   48 1
  51   29   30 ar
  52   29   49 1
  53   30   31 ar
  54   30   50 1

#	End of record

