#	Name: ASD13680003
#	Creating user name:	WinNT
#	Creation time:	15. 06. 2019 21:30

#	Modifying user name:	WinNT
#	Modification time:	15. 06. 2019 21:30

#	Program:	/corina/corina34_cracker 3.40 0067  02.08.2006

@<TRIPOS>MOLECULE
ASD13680003
  49   52    0    0    0
SMALL
NO_CHARGES


@<TRIPOS>ATOM
   1 C1            -0.0190     1.5123     0.0242 C.3     
   2 C2             0.0025    -0.0020     0.0099 C.2     
   3 C3             0.7561    -0.7677     0.8045 C.2     
   4 C4             1.7300    -0.2380     1.8428 C.3     
   5 C5             1.8877     2.2211     1.4594 C.3     
   6 C6             1.4089     2.0561     0.0198 C.3     
   7 C7             1.2760     1.1319     2.3377 C.3     
   8 C8             0.5460    -2.1871     0.5654 C.2     
   9 C9            -0.3621    -2.4431    -0.4223 C.2     
  10 S10           -0.9725    -0.9921    -1.0681 S.3     
  11 N11           -0.7345    -3.7101    -0.8411 N.am    
  12 C12            1.2408    -3.2399     1.3116 C.2     
  13 O13            0.7541    -3.6826     2.3356 O.2     
  14 N14            2.4188    -3.7179     0.8639 N.am    
  15 C15            3.1317    -4.6399     1.6270 C.ar    
  16 N16            2.6964    -4.9693     2.8331 N.ar    
  17 C17            3.3409    -5.8382     3.5879 C.ar    
  18 C18            4.5020    -6.4389     3.1426 C.ar    
  19 C19            4.9921    -6.1207     1.8835 C.ar    
  20 C20            4.2907    -5.2101     1.1128 C.ar    
  21 C21           -1.6421    -3.8543    -1.8270 C.2     
  22 C22           -2.0390    -5.2045    -2.2733 C.ar    
  23 O23           -2.1339    -2.8725    -2.3488 O.2     
  24 C24           -1.4761    -6.3349    -1.6762 C.ar    
  25 C25           -1.8510    -7.5927    -2.0977 C.ar    
  26 C26           -2.7832    -7.7391    -3.1110 C.ar    
  27 C27           -3.3456    -6.6269    -3.7084 C.ar    
  28 C28           -2.9846    -5.3582    -3.2921 C.ar    
  29 F29           -3.5389    -4.2712    -3.8720 F       
  30 H30           -0.5467     1.8749    -0.8579 H       
  31 H31           -0.5349     1.8583     0.9199 H       
  32 H32            1.7734    -0.9299     2.6839 H       
  33 H33            2.7211    -0.1510     1.3975 H       
  34 H34            2.9745     2.1438     1.4907 H       
  35 H35            1.5845     3.1996     1.8320 H       
  36 H36            2.0626     1.3584    -0.5036 H       
  37 H37            1.4289     3.0227    -0.4836 H       
  38 H38            0.1889     1.1937     2.2886 H       
  39 H39            1.6012     1.2715     3.3687 H       
  40 H40           -0.3421    -4.4934    -0.4248 H       
  41 H41            2.7702    -3.4199     0.0103 H       
  42 H42            2.9559    -6.0826     4.5669 H       
  43 H43            5.0236    -7.1486     3.7677 H       
  44 H44            5.8982    -6.5763     1.5123 H       
  45 H45            4.6412    -4.9429     0.1268 H       
  46 H46           -0.7483    -6.2237    -0.8861 H       
  47 H47           -1.4160    -8.4668    -1.6362 H       
  48 H48           -3.0721    -8.7275    -3.4365 H       
  49 H49           -4.0715    -6.7487    -4.4987 H       
@<TRIPOS>BOND
   1    1    2 1
   2    1    6 1
   3    1   30 1
   4    1   31 1
   5    2   10 1
   6    2    3 2
   7    3    4 1
   8    3    8 1
   9    4    7 1
  10    4   32 1
  11    4   33 1
  12    5    6 1
  13    5    7 1
  14    5   34 1
  15    5   35 1
  16    6   36 1
  17    6   37 1
  18    7   38 1
  19    7   39 1
  20    8    9 2
  21    8   12 1
  22    9   10 1
  23    9   11 1
  24   11   21 am
  25   11   40 1
  26   12   13 2
  27   12   14 am
  28   14   15 1
  29   14   41 1
  30   15   16 ar
  31   15   20 ar
  32   16   17 ar
  33   17   18 ar
  34   17   42 1
  35   18   19 ar
  36   18   43 1
  37   19   20 ar
  38   19   44 1
  39   20   45 1
  40   21   22 1
  41   21   23 2
  42   22   24 ar
  43   22   28 ar
  44   24   25 ar
  45   24   46 1
  46   25   26 ar
  47   25   47 1
  48   26   27 ar
  49   26   48 1
  50   27   28 ar
  51   27   49 1
  52   28   29 1

#	End of record

