#	Name: ASD11710014
#	Creating user name:	WinNT
#	Creation time:	15. 06. 2019 21:29

#	Modifying user name:	WinNT
#	Modification time:	15. 06. 2019 21:29

#	Program:	/corina/corina34_cracker 3.40 0067  02.08.2006

@<TRIPOS>MOLECULE
ASD11710014
  55   57    0    0    0
SMALL
NO_CHARGES


@<TRIPOS>ATOM
   1 C1             2.9655     5.4281     2.6471 C.ar    
   2 C2             2.0799     6.4886     2.6900 C.ar    
   3 C3             1.0292     6.5484     1.7937 C.ar    
   4 C4             0.8643     5.5478     0.8543 C.ar    
   5 C5             1.7505     4.4877     0.8108 C.ar    
   6 C6             2.8004     4.4273     1.7079 C.ar    
   7 C7             1.5704     3.3967    -0.2131 C.3     
   8 N8             2.3067     3.7438    -1.4311 N.am    
   9 C9             3.5899     3.3577    -1.5760 C.2     
  10 C10            4.3004     3.6153    -2.8467 C.ar    
  11 O11            4.1630     2.7977    -0.6619 O.2     
  12 C12            4.0344     4.7755    -3.5757 C.ar    
  13 C13            5.2443     2.7023    -3.3195 C.ar    
  14 C14            5.9041     2.9489    -4.5057 C.ar    
  15 C15            5.6323     4.0986    -5.2260 C.ar    
  16 C16            4.7013     5.0100    -4.7604 C.ar    
  17 S17            6.4804     4.4064    -6.7395 S.o2    
  18 N18            5.5111     3.8577    -7.9649 N.am    
  19 C19            5.1783     2.5033    -8.0389 C.ar    
  20 C20            3.8653     2.1225    -8.2784 C.ar    
  21 C21            6.1624     1.5355    -7.8786 C.ar    
  22 C22            5.8342     0.1953    -7.9526 C.ar    
  23 C23            4.5275    -0.1871    -8.1856 C.ar    
  24 C24            3.5391     0.7759    -8.3516 C.ar    
  25 O25            6.5467     5.8187    -6.8821 O.2     
  26 O26            7.6299     3.5711    -6.7324 O.2     
  27 N27            2.2180     0.3884    -8.5867 N.pl3   
  28 C28            1.8734    -1.0337    -8.6584 C.3     
  29 C29            1.1768     1.4040    -8.7616 C.3     
  30 C30            1.6483     4.5104    -2.4917 C.3     
  31 H31            3.7890     5.3837     3.3444 H       
  32 H32            2.2087     7.2703     3.4240 H       
  33 H33            0.3369     7.3766     1.8277 H       
  34 H34            0.0430     5.5941     0.1545 H       
  35 H35            3.4929     3.5992     1.6737 H       
  36 H36            1.9516     2.4569     0.1865 H       
  37 H37            0.5113     3.2891    -0.4470 H       
  38 H38            3.3079     5.4877    -3.2134 H       
  39 H39            5.4579     1.8049    -2.7578 H       
  40 H40            6.6347     2.2433    -4.8727 H       
  41 H41            4.4936     5.9055    -5.3274 H       
  42 H42            5.1744     4.4770    -8.6313 H       
  43 H43            3.0991     2.8728    -8.4071 H       
  44 H44            7.1851     1.8312    -7.6963 H       
  45 H45            6.6012    -0.5549    -7.8283 H       
  46 H46            4.2744    -1.2354    -8.2432 H       
  47 H47            1.6102    -1.3944    -7.6640 H       
  48 H48            1.0257    -1.1688    -9.3301 H       
  49 H49            2.7281    -1.5961    -9.0344 H       
  50 H50            1.4229     2.0331    -9.6171 H       
  51 H51            0.2178     0.9154    -8.9339 H       
  52 H52            1.1149     2.0193    -7.8640 H       
  53 H53            1.8213     5.5747    -2.3317 H       
  54 H54            2.0566     4.2174    -3.4589 H       
  55 H55            0.5771     4.3097    -2.4737 H       
@<TRIPOS>BOND
   1    1    2 ar
   2    1    6 ar
   3    1   31 1
   4    2    3 ar
   5    2   32 1
   6    3    4 ar
   7    3   33 1
   8    4    5 ar
   9    4   34 1
  10    5    6 ar
  11    5    7 1
  12    6   35 1
  13    7    8 1
  14    7   36 1
  15    7   37 1
  16    8    9 am
  17    8   30 1
  18    9   10 1
  19    9   11 2
  20   10   12 ar
  21   10   13 ar
  22   12   16 ar
  23   12   38 1
  24   13   14 ar
  25   13   39 1
  26   14   15 ar
  27   14   40 1
  28   15   16 ar
  29   15   17 1
  30   16   41 1
  31   17   18 am
  32   17   25 2
  33   17   26 2
  34   18   19 1
  35   18   42 1
  36   19   20 ar
  37   19   21 ar
  38   20   24 ar
  39   20   43 1
  40   21   22 ar
  41   21   44 1
  42   22   23 ar
  43   22   45 1
  44   23   24 ar
  45   23   46 1
  46   24   27 1
  47   27   28 1
  48   27   29 1
  49   28   47 1
  50   28   48 1
  51   28   49 1
  52   29   50 1
  53   29   51 1
  54   29   52 1
  55   30   53 1
  56   30   54 1
  57   30   55 1

#	End of record

