#	Name: ASD11000174
#	Creating user name:	WinNT
#	Creation time:	15. 06. 2019 21:28

#	Modifying user name:	WinNT
#	Modification time:	15. 06. 2019 21:28

#	Program:	/corina/corina34_cracker 3.40 0067  02.08.2006

@<TRIPOS>MOLECULE
ASD11000174
  46   49    0    0    0
SMALL
NO_CHARGES


@<TRIPOS>ATOM
   1 N1            -0.0172     1.3215    -0.0112 N.ar    
   2 C2             0.0016    -0.0034    -0.0060 C.ar    
   3 N3             1.1403    -0.6810    -0.0155 N.ar    
   4 C4             2.3025    -0.0498    -0.0306 C.ar    
   5 C5             2.3192     1.3363    -0.0364 C.ar    
   6 C6             1.1098     2.0136    -0.0262 C.ar    
   7 C7             3.6238     2.0904    -0.0531 C.3     
   8 O8             4.0222     2.3233    -1.4055 O.3     
   9 C9             5.1877     2.9973    -1.5986 C.ar    
  10 C10            5.6248     3.2590    -2.8814 C.ar    
  11 N11           -1.1973    -0.6965     0.0102 N.pl3   
  12 C12           -1.2008    -2.0923    -0.1029 C.ar    
  13 C13           -2.1491    -2.8421     0.5799 C.ar    
  14 C14           -0.2594    -2.7269    -0.9028 C.ar    
  15 C15           -0.2638    -4.1031    -1.0143 C.ar    
  16 C16           -1.2086    -4.8520    -0.3278 C.ar    
  17 C17           -2.1521    -4.2187     0.4674 C.ar    
  18 O18           -1.2126    -6.2073    -0.4384 O.3     
  19 C19           -0.2155    -6.7926    -1.2783 C.3     
  20 F20           -0.3618    -6.3086    -2.5827 F       
  21 F21            1.0547    -6.4585    -0.7966 F       
  22 C22            5.9308     3.4248    -0.5006 C.ar    
  23 C23            7.1038     4.1031    -0.6718 C.ar    
  24 C24            7.5713     4.3763    -1.9544 C.ar    
  25 C25            6.8257     3.9535    -3.0715 C.ar    
  26 N26            8.6812     5.0194    -2.4419 N.pl3   
  27 N27            8.6429     5.0003    -3.8399 N.2     
  28 C28            7.5704     4.3852    -4.2498 C.2     
  29 Cl29           4.6936     2.7309    -4.2480 Cl      
  30 C30           -3.1780    -5.0332     1.2126 C.3     
  31 H31            3.2273    -0.6075    -0.0379 H       
  32 H32            1.0881     3.0934    -0.0307 H       
  33 H33            3.4983     3.0449     0.4582 H       
  34 H34            4.3891     1.5038     0.4553 H       
  35 H35           -2.0347    -0.2151     0.1000 H       
  36 H36           -2.8838    -2.3492     1.1992 H       
  37 H37            0.4757    -2.1440    -1.4378 H       
  38 H38            0.4682    -4.5967    -1.6362 H       
  39 H39           -0.3307    -7.8765    -1.2779 H       
  40 H40            5.5750     3.2176     0.4979 H       
  41 H41            7.6693     4.4284     0.1889 H       
  42 H42            9.3800     5.4227    -1.9034 H       
  43 H43            7.2839     4.2227    -5.2783 H       
  44 H44           -2.7897    -5.2935     2.1973 H       
  45 H45           -4.0925    -4.4508     1.3249 H       
  46 H46           -3.3937    -5.9443     0.6546 H       
@<TRIPOS>BOND
   1    1    2 ar
   2    1    6 ar
   3    2    3 ar
   4    2   11 1
   5    3    4 ar
   6    4    5 ar
   7    4   31 1
   8    5    6 ar
   9    5    7 1
  10    6   32 1
  11    7    8 1
  12    7   33 1
  13    7   34 1
  14    8    9 1
  15    9   22 ar
  16    9   10 ar
  17   10   29 1
  18   10   25 ar
  19   11   12 1
  20   11   35 1
  21   12   13 ar
  22   12   14 ar
  23   13   17 ar
  24   13   36 1
  25   14   15 ar
  26   14   37 1
  27   15   16 ar
  28   15   38 1
  29   16   17 ar
  30   16   18 1
  31   17   30 1
  32   18   19 1
  33   19   20 1
  34   19   21 1
  35   19   39 1
  36   22   23 ar
  37   22   40 1
  38   23   24 ar
  39   23   41 1
  40   24   25 ar
  41   24   26 1
  42   25   28 1
  43   26   27 1
  44   26   42 1
  45   27   28 2
  46   28   43 1
  47   30   44 1
  48   30   45 1
  49   30   46 1

#	End of record

