#	Name: ASD11000035
#	Creating user name:	WinNT
#	Creation time:	15. 06. 2019 21:28

#	Modifying user name:	WinNT
#	Modification time:	15. 06. 2019 21:28

#	Program:	/corina/corina34_cracker 3.40 0067  02.08.2006

@<TRIPOS>MOLECULE
ASD11000035
  59   62    0    0    0
SMALL
NO_CHARGES


@<TRIPOS>ATOM
   1 C1            -1.4267    -0.0234    -0.5434 C.ar    
   2 C2            -0.9194    -1.2880    -0.3169 C.ar    
   3 C3             0.4509    -1.5006    -0.3438 C.ar    
   4 C4             1.3119    -0.4433    -0.5977 C.ar    
   5 C5             0.8046     0.8214    -0.8242 C.ar    
   6 C6            -0.5657     1.0339    -0.7978 C.ar    
   7 O7            -1.0651     2.2788    -1.0212 O.3     
   8 C8            -2.4860     2.4250    -0.9790 C.3     
   9 O9             0.9503    -2.7456    -0.1208 O.3     
  10 C10            2.3712    -2.8919    -0.1635 C.3     
  11 C11            2.7421    -4.3511     0.1087 C.3     
  12 N12            2.2483    -4.7412     1.4336 N.am    
  13 C13            2.1193    -5.2323    -0.9453 C.ar    
  14 C14            1.4162    -6.3738    -0.6296 C.ar    
  15 C15            2.2757    -4.8591    -2.2735 C.ar    
  16 C16            0.8788    -7.1534    -1.6470 C.ar    
  17 C17            1.0352    -6.7884    -2.9712 C.ar    
  18 C18            1.7369    -5.6292    -3.2880 C.ar    
  19 C19            2.1929    -6.1808     1.7372 C.3     
  20 C20            1.1811    -6.8221     0.7890 C.3     
  21 C21            1.8614    -3.8189     2.3370 C.2     
  22 O22            2.0270    -2.6367     2.1077 O.2     
  23 C23            1.2354    -4.2450     3.6068 C.ar    
  24 C24            1.3677    -3.4583     4.7519 C.ar    
  25 C25            0.5047    -5.4329     3.6640 C.ar    
  26 C26           -0.0771    -5.8249     4.8527 C.ar    
  27 C27            0.0628    -5.0421     5.9863 C.ar    
  28 C28            0.7812    -3.8612     5.9341 C.ar    
  29 O29            1.8929    -5.2568    -4.5866 O.3     
  30 C30            2.6253    -4.0547    -4.8333 C.3     
  31 O31            0.5056    -7.5582    -3.9594 O.3     
  32 C32           -0.2018    -8.7331    -3.5579 C.3     
  33 Br33          -1.0675    -7.4338     4.9332 Br      
  34 H34           -2.4939     0.1413    -0.5268 H       
  35 H35           -1.5898    -2.1112    -0.1185 H       
  36 H36            2.3790    -0.6087    -0.6179 H       
  37 H37            1.4751     1.6447    -1.0216 H       
  38 H38           -2.7502     3.4645    -1.1732 H       
  39 H39           -2.9396     1.7870    -1.7375 H       
  40 H40           -2.8520     2.1350     0.0060 H       
  41 H41            2.7369    -2.6018    -1.1485 H       
  42 H42            2.8251    -2.2541     0.5950 H       
  43 H43            3.8260    -4.4615     0.0787 H       
  44 H44            2.8223    -3.9598    -2.5163 H       
  45 H45            0.3343    -8.0530    -1.4008 H       
  46 H46            3.1754    -6.6278     1.5854 H       
  47 H47            1.8756    -6.3280     2.7696 H       
  48 H48            0.1741    -6.5365     1.0930 H       
  49 H49            1.2769    -7.9066     0.8428 H       
  50 H50            1.9283    -2.5360     4.7129 H       
  51 H51            0.3946    -6.0437     2.7802 H       
  52 H52           -0.3946    -5.3527     6.9140 H       
  53 H53            0.8866    -3.2551     6.8218 H       
  54 H54            2.6754    -3.8737    -5.9070 H       
  55 H55            2.1244    -3.2178    -4.3468 H       
  56 H56            3.6346    -4.1558    -4.4344 H       
  57 H57            0.4688    -9.3892    -3.0031 H       
  58 H58           -1.0423    -8.4520    -2.9232 H       
  59 H59           -0.5716    -9.2541    -4.4409 H       
@<TRIPOS>BOND
   1    1    2 ar
   2    1    6 ar
   3    1   34 1
   4    2    3 ar
   5    2   35 1
   6    3    4 ar
   7    3    9 1
   8    4    5 ar
   9    4   36 1
  10    5    6 ar
  11    5   37 1
  12    6    7 1
  13    7    8 1
  14    8   38 1
  15    8   39 1
  16    8   40 1
  17    9   10 1
  18   10   11 1
  19   10   41 1
  20   10   42 1
  21   11   12 1
  22   11   13 1
  23   11   43 1
  24   12   19 1
  25   12   21 am
  26   13   14 ar
  27   13   15 ar
  28   14   16 ar
  29   14   20 1
  30   15   18 ar
  31   15   44 1
  32   16   17 ar
  33   16   45 1
  34   17   18 ar
  35   17   31 1
  36   18   29 1
  37   19   20 1
  38   19   46 1
  39   19   47 1
  40   20   48 1
  41   20   49 1
  42   21   22 2
  43   21   23 1
  44   23   24 ar
  45   23   25 ar
  46   24   28 ar
  47   24   50 1
  48   25   26 ar
  49   25   51 1
  50   26   27 ar
  51   26   33 1
  52   27   28 ar
  53   27   52 1
  54   28   53 1
  55   29   30 1
  56   30   54 1
  57   30   55 1
  58   30   56 1
  59   31   32 1
  60   32   57 1
  61   32   58 1
  62   32   59 1

#	End of record

