#	Name: ASD16940001
#	Creating user name:	WinNT
#	Creation time:	15. 06. 2019 21:31

#	Modifying user name:	WinNT
#	Modification time:	15. 06. 2019 21:31

#	Program:	/corina/corina34_cracker 3.40 0067  02.08.2006

@<TRIPOS>MOLECULE
ASD16940001
  34   37    0    0    0
SMALL
NO_CHARGES


@<TRIPOS>ATOM
   1 C1            -0.0158     1.3132     0.0093 C.ar    
   2 C2             1.1549    -0.6658    -0.0125 C.ar    
   3 C3             2.3583     0.0589    -0.0201 C.ar    
   4 C4             2.2883     1.4626    -0.0119 C.ar    
   5 S5             3.0861    -6.7232    -4.1673 S.3     
   6 P6             1.4034    -6.9664    -2.9010 P.3     
   7 O7             0.4999    -7.9998    -3.4544 O.2     
   8 O8             1.8875    -7.3933    -1.4114 O.3     
   9 C9             2.2740    -6.3787    -0.4533 C.3     
  10 C10            1.1701    -5.3420    -0.4444 C.3     
  11 O11            1.2654    -4.2981     0.5088 O.3     
  12 C12            0.5955    -3.1343    -0.0212 C.3     
  13 C13            0.1659    -3.4685    -1.4750 C.3     
  14 O14           -1.1944    -3.9039    -1.5209 O.3     
  15 C15            1.1393    -4.6094    -1.8121 C.3     
  16 O16            0.6081    -5.5497    -2.7526 O.3     
  17 N17            1.5110    -1.9906    -0.0230 N.pl3   
  18 C18            2.8731    -2.0477    -0.0363 C.2     
  19 N19            3.3683    -0.8442    -0.0346 N.2     
  20 N20            3.4406     2.2288    -0.0189 N.pl3   
  21 N21            1.0902     2.0371     0.0026 N.ar    
  22 Cl22          -1.5484     2.1284     0.0208 Cl      
  23 N23            0.0021    -0.0041     0.0020 N.ar    
  24 H24            2.3771    -6.8217     0.5373 H       
  25 H25            3.2145    -5.9189    -0.7566 H       
  26 H26            0.2165    -5.8514    -0.3059 H       
  27 H27           -0.2836    -2.9064     0.5816 H       
  28 H28            0.3249    -2.6163    -2.1358 H       
  29 H29           -1.8298    -3.2421    -1.2154 H       
  30 H30            2.1227    -4.2425    -2.1059 H       
  31 H31            3.4553    -2.9573    -0.0464 H       
  32 H32            4.3095     1.7979    -0.0295 H       
  33 H33            3.3794     3.1969    -0.0131 H       
  34 H34            3.6607    -7.9391    -4.1439 H       
@<TRIPOS>BOND
   1    1   23 ar
   2    1   21 ar
   3    1   22 1
   4    2   17 1
   5    2    3 ar
   6    2   23 ar
   7    3   19 1
   8    3    4 ar
   9    4   20 1
  10    4   21 ar
  11    5    6 1
  12    5   34 1
  13    6    8 1
  14    6    7 2
  15    6   16 1
  16    8    9 1
  17    9   10 1
  18    9   24 1
  19    9   25 1
  20   10   26 1
  21   10   15 1
  22   10   11 1
  23   11   12 1
  24   12   13 1
  25   12   27 1
  26   12   17 1
  27   13   15 1
  28   13   14 1
  29   13   28 1
  30   14   29 1
  31   15   16 1
  32   15   30 1
  33   17   18 1
  34   18   31 1
  35   18   19 2
  36   20   32 1
  37   20   33 1

#	End of record

