#	Name: ASD13490017
#	Creating user name:	WinNT
#	Creation time:	15. 06. 2019 21:30

#	Modifying user name:	WinNT
#	Modification time:	15. 06. 2019 21:30

#	Program:	/corina/corina34_cracker 3.40 0067  02.08.2006

@<TRIPOS>MOLECULE
ASD13490017
  58   61    0    0    0
SMALL
NO_CHARGES


@<TRIPOS>ATOM
   1 C1             0.6296     1.3025     0.5674 C.ar    
   2 C2             0.8822    -0.0442     0.7694 C.ar    
   3 C3             2.1956    -0.4977     0.8657 C.ar    
   4 C4             3.2480     0.3994     0.7592 C.ar    
   5 C5             2.9949     1.7420     0.5577 C.ar    
   6 C6             1.6858     2.1973     0.4613 C.ar    
   7 N7             2.4543    -1.8635     1.0712 N.pl3   
   8 C8             3.3196    -2.6448     0.3513 C.2     
   9 C9             3.2602    -3.8820     0.8812 C.2     
  10 N10            2.3836    -3.8580     1.8960 N.2     
  11 C11            1.9003    -2.6515     2.0201 C.2     
  12 C12            4.0420    -5.0830     0.4150 C.3     
  13 O13           -0.1504    -0.9222     0.8741 O.3     
  14 C14           -1.4708    -0.3866     0.7661 C.3     
  15 N15            1.4320     3.5568     0.2573 N.pl3   
  16 C16            2.5463     4.5013     0.1453 C.3     
  17 C17            3.0448     4.5189    -1.2712 C.2     
  18 C18            2.0703     5.8994     0.5474 C.3     
  19 C19            3.1576     6.9105     0.1640 C.3     
  20 C20            3.2504     6.9750    -1.3610 C.3     
  21 N21            3.3748     5.6353    -1.9216 N.am    
  22 C22            3.8953     5.5073    -3.2851 C.3     
  23 C23            5.3293     5.9691    -3.3207 C.ar    
  24 C24            6.1599     5.7272    -2.2425 C.ar    
  25 C25            5.8147     6.6295    -4.4340 C.ar    
  26 C26            7.1297     7.0532    -4.4681 C.ar    
  27 C27            7.9610     6.8164    -3.3864 C.ar    
  28 C28            7.4751     6.1503    -2.2741 C.ar    
  29 F29            9.2468     7.2296    -3.4188 F       
  30 C30            3.0584     6.3682    -4.2334 C.3     
  31 O31            3.1535     3.4613    -1.8547 O.2     
  32 H32           -0.3880     1.6556     0.4880 H       
  33 H33            4.2664     0.0477     0.8343 H       
  34 H34            3.8157     2.4391     0.4754 H       
  35 H35            3.9313    -2.3295    -0.4810 H       
  36 H36            1.1764    -2.3359     2.7568 H       
  37 H37            4.9892    -5.1308     0.9523 H       
  38 H38            3.4676    -5.9886     0.6101 H       
  39 H39            4.2348    -4.9984    -0.6544 H       
  40 H40           -2.1988    -1.1916     0.8670 H       
  41 H41           -1.6303     0.3485     1.5549 H       
  42 H42           -1.5905     0.0917    -0.2060 H       
  43 H43            0.5181     3.8748     0.1899 H       
  44 H44            3.3535     4.1891     0.8080 H       
  45 H45            1.1458     6.1376     0.0214 H       
  46 H46            1.9002     5.9338     1.6235 H       
  47 H47            2.8975     7.8935     0.5565 H       
  48 H48            4.1151     6.5914     0.5755 H       
  49 H49            2.3524     7.4493    -1.7569 H       
  50 H50            4.1212     7.5663    -1.6442 H       
  51 H51            3.8415     4.4645    -3.5980 H       
  52 H52            5.7807     5.2076    -1.3749 H       
  53 H53            5.1661     6.8141    -5.2776 H       
  54 H54            7.5089     7.5684    -5.3382 H       
  55 H55            8.1237     5.9614    -1.4314 H       
  56 H56            3.1122     7.4109    -3.9205 H       
  57 H57            3.4457     6.2729    -5.2478 H       
  58 H58            2.0212     6.0341    -4.2076 H       
@<TRIPOS>BOND
   1    1    2 ar
   2    1    6 ar
   3    1   32 1
   4    2    3 ar
   5    2   13 1
   6    3    4 ar
   7    3    7 1
   8    4    5 ar
   9    4   33 1
  10    5    6 ar
  11    5   34 1
  12    6   15 1
  13    7    8 1
  14    7   11 1
  15    8    9 2
  16    8   35 1
  17    9   10 1
  18    9   12 1
  19   10   11 2
  20   11   36 1
  21   12   37 1
  22   12   38 1
  23   12   39 1
  24   13   14 1
  25   14   40 1
  26   14   41 1
  27   14   42 1
  28   15   16 1
  29   15   43 1
  30   16   18 1
  31   16   17 1
  32   16   44 1
  33   17   21 am
  34   17   31 2
  35   18   19 1
  36   18   45 1
  37   18   46 1
  38   19   20 1
  39   19   47 1
  40   19   48 1
  41   20   21 1
  42   20   49 1
  43   20   50 1
  44   21   22 1
  45   22   23 1
  46   22   30 1
  47   22   51 1
  48   23   25 ar
  49   23   24 ar
  50   24   28 ar
  51   24   52 1
  52   25   26 ar
  53   25   53 1
  54   26   27 ar
  55   26   54 1
  56   27   28 ar
  57   27   29 1
  58   28   55 1
  59   30   56 1
  60   30   57 1
  61   30   58 1

#	End of record

