#	Name: ASD10410162
#	Creating user name:	WinNT
#	Creation time:	15. 06. 2019 21:27

#	Modifying user name:	WinNT
#	Modification time:	15. 06. 2019 21:27

#	Program:	/corina/corina34_cracker 3.40 0067  02.08.2006

@<TRIPOS>MOLECULE
ASD10410162
  78   84    0    0    0
SMALL
NO_CHARGES


@<TRIPOS>ATOM
   1 C1             0.2237     1.2707     0.0925 C.ar    
   2 C2             0.1518    -0.1060     0.2496 C.ar    
   3 C3             1.3123    -0.8430     0.4612 C.ar    
   4 C4             2.5362    -0.2034     0.5148 C.ar    
   5 C5             2.6064     1.1750     0.3573 C.ar    
   6 C6             1.4475     1.9098     0.1461 C.ar    
   7 F7             1.2429    -2.1835     0.6147 F       
   8 N8             3.8463     1.8235     0.4115 N.pl3   
   9 C9             4.0580     2.9862    -0.3287 C.2     
  10 N10            5.1361     3.7315    -0.2819 N.2     
  11 N11            3.1958     3.5161    -1.2043 N.2     
  12 C12            3.7085     4.6102    -1.7254 C.2     
  13 N13            4.9387     4.7958    -1.1766 N.pl3   
  14 C14            5.8260     5.8348    -1.4474 C.ar    
  15 N15            3.1056     5.4238    -2.6653 N.pl3   
  16 N16           -1.0897    -0.7536     0.1956 N.3     
  17 C17           -1.9905    -0.2538     1.2436 C.3     
  18 C18           -3.3577    -0.9267     1.1010 C.3     
  19 N19           -3.1963    -2.3840     1.2004 N.3     
  20 C20           -2.2955    -2.8839     0.1524 C.3     
  21 C21           -0.9283    -2.2109     0.2950 C.3     
  22 N22            6.0947     6.1820    -2.6931 N.ar    
  23 N23            6.9011     7.1286    -3.0000 N.ar    
  24 C24            7.5433     7.8510    -2.1099 C.ar    
  25 C25            7.3470     7.5847    -0.7430 C.ar    
  26 C26            6.4499     6.5396    -0.3954 C.ar    
  27 C27           -4.4977    -3.0630     1.1438 C.3     
  28 C28           -5.3836    -2.6421     2.3560 C.3     
  29 C29           -4.3165    -4.5898     1.3036 C.3     
  30 C30           -5.1098    -4.9476     2.5973 C.3     
  31 C31           -6.7880    -3.2411     2.0397 C.3     
  32 C32           -6.6068    -4.7679     2.1996 C.3     
  33 C33           -4.8779    -3.6494     3.4483 C.3     
  34 C34            6.2240     6.2397     0.9525 C.ar    
  35 C35            7.9926     8.3083     0.2679 C.ar    
  36 C36            7.7532     7.9942     1.5759 C.ar    
  37 C37            6.8712     6.9580     1.9183 C.ar    
  38 C38            8.4776     8.9493    -2.5478 C.3     
  39 O39            8.3785     8.6942     2.5585 O.3     
  40 C40            9.2655     9.7369     2.1485 C.3     
  41 O41            6.6527     6.6691     3.2282 O.3     
  42 C42            5.7443     5.6038     3.5148 C.3     
  43 H43           -0.6769     1.8425    -0.0762 H       
  44 H44            3.4376    -0.7749     0.6794 H       
  45 H45            1.5027     2.9813     0.0234 H       
  46 H46            4.5579     1.4639     0.9640 H       
  47 H47            2.2215     5.2059    -2.9998 H       
  48 H48            3.5663     6.2129    -2.9907 H       
  49 H49           -1.5721    -0.4845     2.2233 H       
  50 H50           -2.1040     0.8255     1.1412 H       
  51 H51           -4.0187    -0.5791     1.8949 H       
  52 H52           -3.7883    -0.6738     0.1321 H       
  53 H53           -2.1820    -3.9631     0.2548 H       
  54 H54           -2.7139    -2.6532    -0.8273 H       
  55 H55           -0.2673    -2.5586    -0.4990 H       
  56 H56           -0.4977    -2.4639     1.2639 H       
  57 H57           -5.0040    -2.8347     0.2058 H       
  58 H58           -5.3644    -1.5836     2.6154 H       
  59 H59           -4.7345    -5.1141     0.4443 H       
  60 H60           -3.2617    -4.8366     1.4242 H       
  61 H61           -4.8523    -5.8970     3.0670 H       
  62 H62           -7.5279    -2.8700     2.7490 H       
  63 H63           -7.0836    -2.9983     1.0191 H       
  64 H64           -6.8132    -5.2757     1.2575 H       
  65 H65           -7.2575    -5.1474     2.9874 H       
  66 H66           -3.8249    -3.4994     3.6865 H       
  67 H67           -5.5012    -3.6298     4.3423 H       
  68 H68            5.5436     5.4473     1.2274 H       
  69 H69            8.6739     9.1074     0.0155 H       
  70 H70            7.9239     9.8841    -2.6350 H       
  71 H71            9.2726     9.0653    -1.8110 H       
  72 H72            8.9123     8.6930    -3.5139 H       
  73 H73           10.0629     9.3156     1.5362 H       
  74 H74            8.7136    10.4761     1.5680 H       
  75 H75            9.6967    10.2141     3.0285 H       
  76 H76            6.1149     4.6807     3.0692 H       
  77 H77            5.6607     5.4782     4.5943 H       
  78 H78            4.7646     5.8401     3.0995 H       
@<TRIPOS>BOND
   1    1    2 ar
   2    1    6 ar
   3    1   43 1
   4    2    3 ar
   5    2   16 1
   6    3    4 ar
   7    3    7 1
   8    4    5 ar
   9    4   44 1
  10    5    6 ar
  11    5    8 1
  12    6   45 1
  13    8    9 1
  14    8   46 1
  15    9   10 2
  16    9   11 1
  17   10   13 1
  18   11   12 2
  19   12   13 1
  20   12   15 1
  21   13   14 1
  22   14   22 ar
  23   14   26 ar
  24   15   47 1
  25   15   48 1
  26   16   17 1
  27   16   21 1
  28   17   18 1
  29   17   49 1
  30   17   50 1
  31   18   19 1
  32   18   51 1
  33   18   52 1
  34   19   20 1
  35   19   27 1
  36   20   21 1
  37   20   53 1
  38   20   54 1
  39   21   55 1
  40   21   56 1
  41   22   23 ar
  42   23   24 ar
  43   24   25 ar
  44   24   38 1
  45   25   26 ar
  46   25   35 ar
  47   26   34 ar
  48   27   28 1
  49   27   29 1
  50   27   57 1
  51   28   31 1
  52   28   33 1
  53   28   58 1
  54   29   30 1
  55   29   59 1
  56   29   60 1
  57   30   32 1
  58   30   33 1
  59   30   61 1
  60   31   32 1
  61   31   62 1
  62   31   63 1
  63   32   64 1
  64   32   65 1
  65   33   66 1
  66   33   67 1
  67   34   37 ar
  68   34   68 1
  69   35   36 ar
  70   35   69 1
  71   36   37 ar
  72   36   39 1
  73   37   41 1
  74   38   70 1
  75   38   71 1
  76   38   72 1
  77   39   40 1
  78   40   73 1
  79   40   74 1
  80   40   75 1
  81   41   42 1
  82   42   76 1
  83   42   77 1
  84   42   78 1

#	End of record

