#	Name: ASD16830001
#	Creating user name:	WinNT
#	Creation time:	15. 06. 2019 21:31

#	Modifying user name:	WinNT
#	Modification time:	15. 06. 2019 21:31

#	Program:	/corina/corina34_cracker 3.40 0067  02.08.2006

@<TRIPOS>MOLECULE
ASD16830001
  45   48    0    0    0
SMALL
NO_CHARGES


@<TRIPOS>ATOM
   1 N1            -0.7246    -0.4799     3.8867 N.1     
   2 C2            -0.6615     0.5845     3.4949 C.1     
   3 C3            -0.5820     1.9263     3.0010 C.ar    
   4 C4             0.6381     2.6085     3.0250 C.ar    
   5 C5             0.7147     3.8886     2.5545 C.ar    
   6 C6            -1.7234     2.5513     2.4896 C.ar    
   7 C7            -1.6483     3.8310     2.0179 C.ar    
   8 C8            -0.4286     4.5171     2.0477 C.ar    
   9 C9            -0.3472     5.8959     1.5412 C.2     
  10 C10           -1.4488     6.5010     1.0531 C.2     
  11 C11           -1.3677     7.8738     0.5488 C.2     
  12 N12           -2.4828     8.4262    -0.0317 N.am    
  13 C13           -3.6612     7.6764    -0.1294 C.ar    
  14 C14           -4.6031     7.7259     0.8917 C.ar    
  15 C15           -5.7678     6.9873     0.8006 C.ar    
  16 C16           -6.0037     6.1954    -0.3049 C.ar    
  17 C17           -3.8909     6.8892    -1.2467 C.ar    
  18 C18           -5.0641     6.1390    -1.3363 C.ar    
  19 C19           -5.3138     5.2922    -2.5210 C.2     
  20 O20           -4.4951     5.2447    -3.4170 O.2     
  21 O21           -6.4495     4.5729    -2.6075 O.3     
  22 N22           -0.2340     8.5227     0.6768 N.2     
  23 C23           -0.0895     9.7864     0.2359 C.ar    
  24 C24            1.1208    10.4743     0.3739 C.ar    
  25 C25            1.2297    11.7559    -0.0863 C.ar    
  26 C26            0.1537    12.3919    -0.6923 C.ar    
  27 C27           -1.0516    11.7409    -0.8429 C.ar    
  28 C28           -1.1859    10.4329    -0.3810 C.ar    
  29 C29           -2.4488     9.6920    -0.5096 C.2     
  30 O30           -3.4277    10.1981    -1.0266 O.2     
  31 H31            1.5203     2.1234     3.4161 H       
  32 H32           -2.6645     2.0221     2.4672 H       
  33 H33            1.6571     4.4157     2.5738 H       
  34 H34           -2.5299     4.3135     1.6222 H       
  35 H35            0.5950     6.4234     1.5604 H       
  36 H36           -2.3910     5.9734     1.0340 H       
  37 H37           -4.4241     8.3434     1.7595 H       
  38 H38           -3.1623     6.8528    -2.0430 H       
  39 H39           -6.4957     7.0297     1.5973 H       
  40 H40           -6.9147     5.6192    -0.3721 H       
  41 H41           -6.5684     4.0339    -3.4014 H       
  42 H42            1.9665     9.9937     0.8431 H       
  43 H43            2.1662    12.2827     0.0230 H       
  44 H44            0.2625    13.4057    -1.0483 H       
  45 H45           -1.8850    12.2401    -1.3149 H       
@<TRIPOS>BOND
   1    1    2 3
   2    2    3 1
   3    3    4 ar
   4    3    6 ar
   5    4    5 ar
   6    4   31 1
   7    5    8 ar
   8    5   33 1
   9    6    7 ar
  10    6   32 1
  11    7    8 ar
  12    7   34 1
  13    8    9 1
  14    9   10 2
  15    9   35 1
  16   10   11 1
  17   10   36 1
  18   11   12 1
  19   11   22 2
  20   12   13 1
  21   12   29 am
  22   13   14 ar
  23   13   17 ar
  24   14   15 ar
  25   14   37 1
  26   15   16 ar
  27   15   39 1
  28   16   18 ar
  29   16   40 1
  30   17   18 ar
  31   17   38 1
  32   18   19 1
  33   19   20 2
  34   19   21 1
  35   21   41 1
  36   22   23 1
  37   23   24 ar
  38   23   28 ar
  39   24   25 ar
  40   24   42 1
  41   25   26 ar
  42   25   43 1
  43   26   27 ar
  44   26   44 1
  45   27   28 ar
  46   27   45 1
  47   28   29 1
  48   29   30 2

#	End of record

