#	Name: ASD10410042
#	Creating user name:	WinNT
#	Creation time:	15. 06. 2019 21:26

#	Modifying user name:	WinNT
#	Modification time:	15. 06. 2019 21:26

#	Program:	/corina/corina34_cracker 3.40 0067  02.08.2006

@<TRIPOS>MOLECULE
ASD10410042
  57   60    0    0    0
SMALL
NO_CHARGES


@<TRIPOS>ATOM
   1 N1             0.4155     1.0273     1.3684 N.pl3   
   2 C2             0.1566    -0.1457     0.6510 C.ar    
   3 C3            -0.6828    -1.1157     1.1838 C.ar    
   4 C4             1.6505     1.6475     1.2604 C.ar    
   5 N5             2.6303     1.0821     0.5625 N.ar    
   6 C6             1.8818     2.8786     1.8785 C.ar    
   7 C7             3.1275     3.4596     1.7440 C.ar    
   8 N8             4.0602     2.8372     1.0379 N.ar    
   9 C9             3.8114     1.6726     0.4577 C.ar    
  10 C10            0.7966     3.5577     2.6737 C.3     
  11 N11            4.8133     1.0539    -0.2720 N.pl3   
  12 C12            6.0315     1.7075    -0.4805 C.ar    
  13 C13            7.2095     0.9756    -0.5589 C.ar    
  14 C14            8.4112     1.6242    -0.7654 C.ar    
  15 C15            8.4425     3.0008    -0.8935 C.ar    
  16 C16            7.2717     3.7324    -0.8155 C.ar    
  17 C17            6.0659     3.0895    -0.6153 C.ar    
  18 C18            9.7557     3.7052    -1.1183 C.3     
  19 N19           10.0144     3.8104    -2.5605 N.3     
  20 C20           11.1584     4.6933    -2.8273 C.3     
  21 C21           11.4442     4.7133    -4.3307 C.3     
  22 N22           10.2477     5.1753    -5.0481 N.3     
  23 C23            9.1036     4.2924    -4.7813 C.3     
  24 C24            8.8178     4.2723    -3.2778 C.3     
  25 C25           10.5064     5.2805    -6.4903 C.3     
  26 C26            0.7339    -0.3391    -0.5968 C.ar    
  27 C27            0.4763    -1.4987    -1.3039 C.ar    
  28 C28           -0.3573    -2.4670    -0.7678 C.ar    
  29 C29           -0.9377    -2.2728     0.4742 C.ar    
  30 F30           -0.6082    -3.5997    -1.4601 F       
  31 Cl31           1.1970    -1.7415    -2.8645 Cl      
  32 H32           -0.2705     1.4087     1.9383 H       
  33 H33           -1.1356    -0.9653     2.1526 H       
  34 H34            3.3390     4.4111     2.2091 H       
  35 H35            0.8526     3.2358     3.7136 H       
  36 H36            0.9290     4.6383     2.6201 H       
  37 H37           -0.1767     3.2900     2.2624 H       
  38 H38            4.6696     0.1673    -0.6383 H       
  39 H39            7.1858    -0.0994    -0.4582 H       
  40 H40            9.3274     1.0558    -0.8265 H       
  41 H41            7.2997     4.8074    -0.9153 H       
  42 H42            5.1518     3.6614    -0.5548 H       
  43 H43            9.7115     4.7036    -0.6833 H       
  44 H44           10.5577     3.1381    -0.6457 H       
  45 H45           10.9258     5.7026    -2.4879 H       
  46 H46           12.0350     4.3234    -2.2954 H       
  47 H47           12.2741     5.3901    -4.5342 H       
  48 H48           11.7035     3.7088    -4.6650 H       
  49 H49            8.2270     4.6622    -5.3132 H       
  50 H50            9.3363     3.2830    -5.1207 H       
  51 H51            7.9880     3.5955    -3.0744 H       
  52 H52            8.5586     5.2769    -2.9435 H       
  53 H53           10.7924     4.3037    -6.8803 H       
  54 H54            9.6046     5.6243    -6.9970 H       
  55 H55           11.3141     5.9916    -6.6636 H       
  56 H56            1.3834     0.4158    -1.0148 H       
  57 H57           -1.5872    -3.0288     0.8903 H       
@<TRIPOS>BOND
   1    1    2 1
   2    1    4 1
   3    1   32 1
   4    2    3 ar
   5    2   26 ar
   6    3   29 ar
   7    3   33 1
   8    4    5 ar
   9    4    6 ar
  10    5    9 ar
  11    6    7 ar
  12    6   10 1
  13    7    8 ar
  14    7   34 1
  15    8    9 ar
  16    9   11 1
  17   10   35 1
  18   10   36 1
  19   10   37 1
  20   11   12 1
  21   11   38 1
  22   12   13 ar
  23   12   17 ar
  24   13   14 ar
  25   13   39 1
  26   14   15 ar
  27   14   40 1
  28   15   16 ar
  29   15   18 1
  30   16   17 ar
  31   16   41 1
  32   17   42 1
  33   18   19 1
  34   18   43 1
  35   18   44 1
  36   19   20 1
  37   19   24 1
  38   20   21 1
  39   20   45 1
  40   20   46 1
  41   21   22 1
  42   21   47 1
  43   21   48 1
  44   22   23 1
  45   22   25 1
  46   23   24 1
  47   23   49 1
  48   23   50 1
  49   24   51 1
  50   24   52 1
  51   25   53 1
  52   25   54 1
  53   25   55 1
  54   26   27 ar
  55   26   56 1
  56   27   28 ar
  57   27   31 1
  58   28   29 ar
  59   28   30 1
  60   29   57 1

#	End of record

