#	Name: ASD10410130
#	Creating user name:	WinNT
#	Creation time:	15. 06. 2019 21:26

#	Modifying user name:	WinNT
#	Modification time:	15. 06. 2019 21:26

#	Program:	/corina/corina34_cracker 3.40 0067  02.08.2006

@<TRIPOS>MOLECULE
ASD10410130
  64   70    0    0    0
SMALL
NO_CHARGES


@<TRIPOS>ATOM
   1 C1             0.1821     0.9627     0.6593 C.ar    
   2 C2             0.3506    -0.4140     0.5884 C.ar    
   3 C3             1.6209    -0.9505     0.4242 C.ar    
   4 C4             2.7164    -0.1152     0.3309 C.ar    
   5 C5             2.5478     1.2615     0.4013 C.ar    
   6 C6             1.2775     1.7980     0.5660 C.ar    
   7 N7             3.6589     2.1087     0.3071 N.pl3   
   8 C8             3.5238     3.3754    -0.2604 C.2     
   9 N9             4.4631     4.2889    -0.3128 N.2     
  10 N10            2.4167     3.8501    -0.8432 N.2     
  11 C11            2.6313     5.0754    -1.2720 C.2     
  12 N12            3.9135     5.4060    -0.9624 N.pl3   
  13 C13            4.5543     6.6124    -1.2356 C.ar    
  14 N14            1.7177     5.8814    -1.9234 N.pl3   
  15 N15           -0.7599    -1.2608     0.6830 N.3     
  16 C16           -0.3570    -2.6706     0.5843 C.3     
  17 C17           -1.5857    -3.5638     0.7715 C.3     
  18 N18           -2.5889    -3.2329    -0.2502 N.3     
  19 C19           -2.9917    -1.8231    -0.1515 C.3     
  20 C20           -1.7630    -0.9299    -0.3386 C.3     
  21 N21            3.9121     7.5908    -1.8608 N.ar    
  22 C22            4.5150     8.7365    -2.1223 C.ar    
  23 N23            5.7588     8.9714    -1.7868 N.ar    
  24 C24            6.4975     8.0380    -1.1464 C.ar    
  25 C25            5.8872     6.8152    -0.8492 C.ar    
  26 C26           -3.7543    -4.1216    -0.1509 C.3     
  27 C27           -3.3335    -5.6007    -0.4086 C.3     
  28 C28           -4.7713    -3.8038    -1.2709 C.3     
  29 C29           -4.8691    -5.1209    -2.0998 C.3     
  30 C30           -4.5980    -6.4360    -0.0415 C.3     
  31 C31           -5.6149    -6.1182    -1.1614 C.3     
  32 C32           -3.3972    -5.6516    -1.9760 C.3     
  33 C33            7.8297     8.0934    -0.7073 C.2     
  34 C34            8.2827     7.0061    -0.1037 C.2     
  35 S35            7.0361     5.7724    -0.0240 S.3     
  36 H36           -0.8063     1.3800     0.7828 H       
  37 H37            1.7521    -2.0211     0.3699 H       
  38 H38            3.7044    -0.5324     0.2035 H       
  39 H39            1.1464     2.8686     0.6207 H       
  40 H40            4.5225     1.8145     0.6366 H       
  41 H41            0.8223     5.5536    -2.1017 H       
  42 H42            1.9716     6.7750    -2.2024 H       
  43 H43            0.0812    -2.8558    -0.3964 H       
  44 H44            0.3766    -2.8943     1.3588 H       
  45 H45           -1.2942    -4.6091     0.6698 H       
  46 H46           -2.0079    -3.3984     1.7627 H       
  47 H47           -3.7253    -1.5994    -0.9260 H       
  48 H48           -3.4299    -1.6379     0.8293 H       
  49 H49           -2.0545     0.1155    -0.2370 H       
  50 H50           -1.3408    -1.0953    -1.3298 H       
  51 H51            3.9605     9.5097    -2.6332 H       
  52 H52           -4.2226    -4.0249     0.8286 H       
  53 H53           -2.4007    -5.9188     0.0570 H       
  54 H54           -5.7414    -3.5513    -0.8428 H       
  55 H55           -4.4065    -2.9882    -1.8952 H       
  56 H56           -5.2737    -5.0211    -3.1070 H       
  57 H57           -4.3615    -7.5000    -0.0336 H       
  58 H58           -4.9902    -6.1258     0.9271 H       
  59 H59           -6.5071    -5.6519    -0.7435 H       
  60 H60           -5.8784    -7.0260    -1.7042 H       
  61 H61           -2.6783    -4.9741    -2.4366 H       
  62 H62           -3.2958    -6.6680    -2.3565 H       
  63 H63            8.4462     8.9681    -0.8531 H       
  64 H64            9.2827     6.8939     0.2885 H       
@<TRIPOS>BOND
   1    1    2 ar
   2    1    6 ar
   3    1   36 1
   4    2    3 ar
   5    2   15 1
   6    3    4 ar
   7    3   37 1
   8    4    5 ar
   9    4   38 1
  10    5    6 ar
  11    5    7 1
  12    6   39 1
  13    7    8 1
  14    7   40 1
  15    8    9 2
  16    8   10 1
  17    9   12 1
  18   10   11 2
  19   11   12 1
  20   11   14 1
  21   12   13 1
  22   13   21 ar
  23   13   25 ar
  24   14   41 1
  25   14   42 1
  26   15   16 1
  27   15   20 1
  28   16   17 1
  29   16   43 1
  30   16   44 1
  31   17   18 1
  32   17   45 1
  33   17   46 1
  34   18   19 1
  35   18   26 1
  36   19   20 1
  37   19   47 1
  38   19   48 1
  39   20   49 1
  40   20   50 1
  41   21   22 ar
  42   22   23 ar
  43   22   51 1
  44   23   24 ar
  45   24   25 ar
  46   24   33 1
  47   25   35 1
  48   26   27 1
  49   26   28 1
  50   26   52 1
  51   27   30 1
  52   27   32 1
  53   27   53 1
  54   28   29 1
  55   28   54 1
  56   28   55 1
  57   29   31 1
  58   29   32 1
  59   29   56 1
  60   30   31 1
  61   30   57 1
  62   30   58 1
  63   31   59 1
  64   31   60 1
  65   32   61 1
  66   32   62 1
  67   33   34 2
  68   33   63 1
  69   34   35 1
  70   34   64 1

#	End of record

