#	Name: ASD10050001
#	Creating user name:	WinNT
#	Creation time:	15. 06. 2019 21:24

#	Modifying user name:	WinNT
#	Modification time:	15. 06. 2019 21:24

#	Program:	/corina/corina34_cracker 3.40 0067  02.08.2006

@<TRIPOS>MOLECULE
ASD10050001
 250  252    0    0    0
SMALL
NO_CHARGES


@<TRIPOS>ATOM
   1 C1            12.4635    -9.1639     1.0978 C.3     
   2 C2            13.4128    -8.1053     0.5328 C.3     
   3 C3            12.7821    -6.7430     0.6653 C.2     
   4 N4            14.6779    -8.1339     1.2787 N.3     
   5 O5            13.0799    -6.0249     1.5961 O.2     
   6 C6            11.2012    -9.2292     0.2358 C.3     
   7 C7            11.5635    -9.7359    -1.1617 C.3     
   8 C8            10.1932   -10.1837     0.8790 C.3     
   9 C9            37.0758    -2.3335     5.2065 C.3     
  10 C10           36.3520    -2.7592     6.4855 C.3     
  11 C11           37.0476    -2.1588     7.6800 C.2     
  12 N12           34.9650    -2.2895     6.4410 N.am    
  13 O13           36.4442    -1.4122     8.4211 O.2     
  14 C14           36.4471    -3.0416     4.0048 C.3     
  15 C15           37.1601    -2.6224     2.7451 C.2     
  16 O16           38.0805    -1.8347     2.8028 O.2     
  17 N17           36.7749    -3.1227     1.5544 N.am    
  18 C18           38.7403    -2.7268    10.3216 C.3     
  19 C19           39.0164    -1.8681     9.0858 C.3     
  20 C20           40.5007    -1.8182     8.8301 C.2     
  21 N21           38.3402    -2.4517     7.9246 N.am    
  22 O22           40.9495    -2.2297     7.7812 O.2     
  23 N23           35.5427    -3.4867    12.2094 N.pl3   
  24 C24           35.0549    -4.1867    13.2875 C.2     
  25 N25           35.8638    -4.8933    14.0258 N.2     
  26 N26           33.7138    -4.1413    13.5868 N.pl3   
  27 C27           37.2478    -2.6763    10.6547 C.3     
  28 C28           36.9717    -3.5350    11.8905 C.3     
  29 C29           30.1467    -4.4372     2.6998 C.3     
  30 C30           29.6133    -4.2867     4.1258 C.3     
  31 C31           30.4578    -3.2887     4.8754 C.2     
  32 N32           28.2263    -3.8170     4.0813 N.am    
  33 O33           29.9510    -2.2840     5.3278 O.2     
  34 C34           29.3690    -5.5396     1.9780 C.3     
  35 C35           29.8945    -5.6878     0.5734 C.2     
  36 O36           30.7983    -4.9840     0.1890 O.2     
  37 O37           29.3585    -6.6018    -0.2507 O.3     
  38 C38           23.0488    -7.2569     1.9483 C.3     
  39 C39           22.7037    -6.3412     3.1245 C.3     
  40 C40           23.6792    -5.1934     3.1705 C.2     
  41 N41           21.3448    -5.8206     2.9557 N.am    
  42 O42           23.3708    -4.1164     2.7059 O.2     
  43 C43           24.4178    -7.8976     2.1854 C.3     
  44 C44           24.3416    -8.8301     3.3960 C.3     
  45 C45           24.8264    -8.7001     0.9485 C.3     
  46 C46           16.2639    -9.5647     3.2589 C.3     
  47 C47           15.6964    -8.1584     3.4616 C.3     
  48 C48           16.6907    -7.1394     2.9675 C.2     
  49 N49           14.4420    -8.0234     2.7092 N.3     
  50 O50           16.3845    -6.3759     2.0763 O.2     
  51 N51           15.0061   -12.9731     4.3389 N.pl3   
  52 C52           15.3535   -14.3030     4.3677 C.2     
  53 N53           16.5018   -14.6872     3.8853 N.2     
  54 N54           14.4898   -15.2277     4.9054 N.pl3   
  55 C55           15.3027   -10.5937     3.8573 C.3     
  56 C56           15.9265   -11.9878     3.7659 C.3     
  57 C57           25.4594    -3.4890     5.1935 C.3     
  58 C58           25.7930    -4.2182     3.8904 C.3     
  59 C59           27.2197    -4.7014     3.9362 C.2     
  60 N60           24.8944    -5.3638     3.7281 N.am    
  61 O61           27.4620    -5.8860     3.8424 O.2     
  62 C62           24.0754    -2.9000     5.0994 C.ar    
  63 C63           22.9803    -3.6403     5.5038 C.ar    
  64 C64           21.7108    -3.1000     5.4175 C.ar    
  65 C65           21.5366    -1.8193     4.9272 C.ar    
  66 C66           22.6318    -1.0787     4.5237 C.ar    
  67 C67           23.9017    -1.6174     4.6141 C.ar    
  68 C68           32.5972    -2.5424     5.7715 C.3     
  69 C69           34.0239    -3.0256     5.8173 C.2     
  70 N70           31.7762    -3.5126     5.0429 N.am    
  71 O71           34.3253    -4.0769     5.2929 O.2     
  72 C72           43.0151     0.2286     8.8996 C.3     
  73 C73           42.7573    -1.1647     9.4766 C.3     
  74 C74           43.5494    -1.3369    10.7470 C.2     
  75 N75           41.3294    -1.3164     9.7671 N.am    
  76 O76           42.9790    -1.5822    11.7888 O.2     
  77 C77           42.4656     1.2872     9.8579 C.3     
  78 C78           43.2718     1.2657    11.1581 C.3     
  79 C79           42.3173     0.3565     7.5440 C.3     
  80 C80           45.9520    -2.9943    12.0303 C.3     
  81 C81           45.6710    -1.4934    11.9351 C.3     
  82 C82           46.9753    -0.7410    11.8745 C.2     
  83 N83           44.8918    -1.2181    10.7255 N.am    
  84 O84           47.2290    -0.0435    10.9153 O.2     
  85 C85           18.6568    -4.7570     3.7580 C.3     
  86 C86           18.8868    -6.0860     3.0356 C.3     
  87 C87           20.2855    -6.5732     3.3134 C.2     
  88 N88           17.9202    -7.0766     3.5160 N.am    
  89 O89           20.4580    -7.6426     3.8589 O.2     
  90 C90           17.3041    -4.2088     3.3827 C.ar    
  91 C91           16.1910    -4.5430     4.1311 C.ar    
  92 C92           14.9502    -4.0401     3.7868 C.ar    
  93 C93           14.8227    -3.2027     2.6943 C.ar    
  94 C94           15.9360    -2.8678     1.9465 C.ar    
  95 C95           17.1775    -3.3672     2.2934 C.ar    
  96 C96           49.7521     0.0108    14.1792 C.3     
  97 C97           49.1725    -0.2015    12.7792 C.3     
  98 C98           50.0984    -1.0821    11.9803 C.2     
  99 N99           47.8598    -0.8431    12.8862 N.am    
 100 O100          49.7010    -2.1414    11.5434 O.2     
 101 C101          48.8981     0.9981    14.9320 C.2     
 102 O102          47.8789     1.4167    14.4362 O.2     
 103 O103          49.2698     1.4126    16.1534 O.3     
 104 C104          53.3480    -0.7731    10.3178 C.3     
 105 C105          52.2999    -1.5951    11.0706 C.3     
 106 C106          52.9844    -2.4712    12.0879 C.2     
 107 N107          51.3682    -0.6925    11.7514 N.am    
 108 O108          52.7200    -2.3533    13.2656 O.2     
 109 C109          52.6751     0.0237     9.2300 C.2     
 110 N110          53.3864     0.9106     8.5061 N.am    
 111 O111          51.4935    -0.1332     9.0059 O.2     
 112 C112          55.0157    -5.5337    12.0075 C.3     
 113 C113          54.5557    -4.2376    12.6778 C.3     
 114 C114          55.7503    -3.5128    13.2425 C.2     
 115 N115          53.8903    -3.3858    11.6889 N.am    
 116 O116          56.0181    -2.3996    12.8585 O.2     
 117 C117          53.8123    -6.3178    11.5513 C.2     
 118 N118          53.2514    -6.2988    10.3029 N.pl3   
 119 C119          52.1975    -7.1429    10.3256 C.2     
 120 N120          52.1024    -7.6615    11.5193 N.2     
 121 C121          53.0856    -7.1762    12.2920 C.2     
 122 C122          10.8858    -4.5185    -1.5634 C.3     
 123 C123          11.3422    -4.9651    -0.1730 C.3     
 124 C124          10.1674    -4.9486     0.7707 C.2     
 125 N125          11.8872    -6.3228    -0.2506 N.am    
 126 O126           9.8211    -5.9658     1.3216 O.2     
 127 O127           9.7976    -5.3386    -1.9938 O.3     
 128 H128          12.9579   -10.1353     1.0923 H       
 129 H129          12.1922    -8.9001     2.1200 H       
 130 H130          13.6064    -8.3153    -0.5192 H       
 131 H131          15.2064    -8.9658     1.0626 H       
 132 H132          10.7618    -8.2346     0.1590 H       
 133 H133          11.9313   -10.7597    -1.0929 H       
 134 H134          10.6791    -9.7095    -1.7983 H       
 135 H135          12.3382    -9.0995    -1.5894 H       
 136 H136           9.9350    -9.8227     1.8745 H       
 137 H137           9.2938   -10.2302     0.2648 H       
 138 H138          10.6325   -11.1783     0.9557 H       
 139 H139          36.9862    -1.2546     5.0803 H       
 140 H140          38.1292    -2.6047     5.2778 H       
 141 H141          36.3651    -3.8462     6.5658 H       
 142 H142          34.7240    -1.4487     6.8604 H       
 143 H143          36.5367    -4.1206     4.1311 H       
 144 H144          35.3937    -2.7704     3.9336 H       
 145 H145          36.0387    -3.7526     1.5083 H       
 146 H146          37.2338    -2.8528     0.7436 H       
 147 H147          39.0330    -3.7574    10.1208 H       
 148 H148          39.3141    -2.3440    11.1656 H       
 149 H149          38.6426    -0.8581     9.2542 H       
 150 H150          38.8227    -3.0489     7.3318 H       
 151 H151          34.9407    -2.9608    11.6600 H       
 152 H152          35.5197    -5.3872    14.7864 H       
 153 H153          33.1118    -3.6154    13.0373 H       
 154 H154          33.3696    -4.6351    14.3474 H       
 155 H155          36.9551    -1.6457    10.8555 H       
 156 H156          36.6740    -3.0591     9.8107 H       
 157 H157          37.5455    -3.1522    12.7345 H       
 158 H158          37.2645    -4.5656    11.6896 H       
 159 H159          30.0237    -3.4957     2.1645 H       
 160 H160          31.2039    -4.7007     2.7332 H       
 161 H161          29.6543    -5.2508     4.6327 H       
 162 H162          28.0325    -2.8695     4.1563 H       
 163 H163          29.4921    -6.4811     2.5132 H       
 164 H164          28.3119    -5.2761     1.9445 H       
 165 H165          29.7287    -6.6599    -1.1421 H       
 166 H166          22.2926    -8.0371     1.8613 H       
 167 H167          23.0755    -6.6726     1.0286 H       
 168 H168          22.7634    -6.9063     4.0546 H       
 169 H169          21.2074    -4.9342     2.5864 H       
 170 H170          25.1562    -7.1181     2.3731 H       
 171 H171          25.3317    -9.2350     3.6056 H       
 172 H172          23.9863    -8.2724     4.2625 H       
 173 H173          23.6527    -9.6474     3.1824 H       
 174 H174          24.8806    -8.0357     0.0860 H       
 175 H175          25.8017    -9.1565     1.1174 H       
 176 H176          24.0880    -9.4796     0.7608 H       
 177 H177          16.3850    -9.7575     2.1929 H       
 178 H178          17.2320    -9.6408     3.7541 H       
 179 H179          15.5038    -7.9937     4.5217 H       
 180 H180          13.9776    -7.1561     2.9332 H       
 181 H181          14.1515   -12.6872     4.6979 H       
 182 H182          16.7470   -15.6255     3.9056 H       
 183 H183          13.6353   -14.9418     5.2644 H       
 184 H184          14.7350   -16.1660     4.9257 H       
 185 H185          15.1124   -10.3486     4.9022 H       
 186 H186          14.3638   -10.5788     3.3037 H       
 187 H187          16.8654   -12.0028     4.3195 H       
 188 H188          16.1168   -12.2330     2.7210 H       
 189 H189          25.4988    -4.1935     6.0243 H       
 190 H190          26.1834    -2.6912     5.3590 H       
 191 H191          25.6672    -3.5358     3.0498 H       
 192 H192          25.1740    -6.2450     4.0218 H       
 193 H193          23.1164    -4.6408     5.8869 H       
 194 H194          20.8551    -3.6786     5.7328 H       
 195 H195          20.5447    -1.3975     4.8591 H       
 196 H196          22.4956    -0.0783     4.1403 H       
 197 H197          24.7577    -1.0374     4.3023 H       
 198 H198          32.2172    -2.4352     6.7875 H       
 199 H199          32.5562    -1.5784     5.2646 H       
 200 H200          32.1815    -4.3162     4.6810 H       
 201 H201          44.0875     0.3761     8.7716 H       
 202 H202          43.0630    -1.9201     8.7526 H       
 203 H203          40.9804    -1.0557    10.6337 H       
 204 H204          42.5460     2.2715     9.3968 H       
 205 H205          41.4194     1.0722    10.0755 H       
 206 H206          43.0161     2.1387    11.7586 H       
 207 H207          43.0370     0.3594    11.7163 H       
 208 H208          44.3366     1.2838    10.9258 H       
 209 H209          41.2492     0.1775     7.6669 H       
 210 H210          42.4744     1.3596     7.1477 H       
 211 H211          42.7313    -0.3766     6.8517 H       
 212 H212          46.5158    -3.3147    11.1542 H       
 213 H213          46.5317    -3.1991    12.9303 H       
 214 H214          45.0085    -3.5385    12.0741 H       
 215 H215          45.1071    -1.1730    12.8112 H       
 216 H216          45.3420    -0.9505     9.9090 H       
 217 H217          18.6977    -4.9173     4.8354 H       
 218 H218          19.4304    -4.0465     3.4668 H       
 219 H219          18.7581    -5.9433     1.9627 H       
 220 H220          18.1651    -7.6872     4.2288 H       
 221 H221          16.2906    -5.1972     4.9845 H       
 222 H222          14.0804    -4.3018     4.3710 H       
 223 H223          13.8532    -2.8104     2.4249 H       
 224 H224          15.8363    -2.2138     1.0928 H       
 225 H225          18.0479    -3.1025     1.7114 H       
 226 H226          49.7669    -0.9388    14.7141 H       
 227 H227          50.7679     0.3974    14.0971 H       
 228 H228          49.0665     0.7617    12.2800 H       
 229 H229          47.6273    -1.3415    13.6853 H       
 230 H230          48.6898     2.0464    16.5973 H       
 231 H231          53.8442    -0.0943    11.0114 H       
 232 H232          54.0852    -1.4426     9.8747 H       
 233 H233          51.7513    -2.2185    10.3645 H       
 234 H234          51.6652     0.1855    12.0374 H       
 235 H235          54.3314     1.0360     8.6853 H       
 236 H236          52.9532     1.4235     7.8059 H       
 237 H237          55.6416    -5.2957    11.1475 H       
 238 H238          55.5878    -6.1280    12.7200 H       
 239 H239          53.8592    -4.4721    13.4827 H       
 240 H240          56.3668    -3.9888    13.9906 H       
 241 H241          54.1018    -3.4801    10.7469 H       
 242 H242          53.5544    -5.7767     9.5436 H       
 243 H243          51.5416    -7.3535     9.4937 H       
 244 H244          53.2618    -7.4278    13.3274 H       
 245 H245          10.5630    -3.4782    -1.5231 H       
 246 H246          11.7136    -4.6151    -2.2659 H       
 247 H247          12.1116    -4.2851     0.1927 H       
 248 H248           9.6352    -4.0269     0.9543 H       
 249 H249          11.6039    -6.9192    -0.9612 H       
 250 H250           9.4565    -5.1116    -2.8697 H       
@<TRIPOS>BOND
   1    1    6 1
   2    1    2 1
   3    1  128 1
   4    1  129 1
   5    2    4 1
   6    2    3 1
   7    2  130 1
   8    3    5 2
   9    3  125 am
  10    4   49 1
  11    4  131 1
  12    6    7 1
  13    6    8 1
  14    6  132 1
  15    7  133 1
  16    7  134 1
  17    7  135 1
  18    8  136 1
  19    8  137 1
  20    8  138 1
  21    9   14 1
  22    9   10 1
  23    9  139 1
  24    9  140 1
  25   10   12 1
  26   10   11 1
  27   10  141 1
  28   11   13 2
  29   11   21 am
  30   12   69 am
  31   12  142 1
  32   14   15 1
  33   14  143 1
  34   14  144 1
  35   15   16 2
  36   15   17 am
  37   17  145 1
  38   17  146 1
  39   18   27 1
  40   18   19 1
  41   18  147 1
  42   18  148 1
  43   19   21 1
  44   19   20 1
  45   19  149 1
  46   20   22 2
  47   20   75 am
  48   21  150 1
  49   23   28 1
  50   23   24 1
  51   23  151 1
  52   24   25 2
  53   24   26 1
  54   25  152 1
  55   26  153 1
  56   26  154 1
  57   27   28 1
  58   27  155 1
  59   27  156 1
  60   28  157 1
  61   28  158 1
  62   29   34 1
  63   29   30 1
  64   29  159 1
  65   29  160 1
  66   30   32 1
  67   30   31 1
  68   30  161 1
  69   31   33 2
  70   31   70 am
  71   32   59 am
  72   32  162 1
  73   34   35 1
  74   34  163 1
  75   34  164 1
  76   35   36 2
  77   35   37 1
  78   37  165 1
  79   38   43 1
  80   38   39 1
  81   38  166 1
  82   38  167 1
  83   39   41 1
  84   39   40 1
  85   39  168 1
  86   40   42 2
  87   40   60 am
  88   41   87 am
  89   41  169 1
  90   43   44 1
  91   43   45 1
  92   43  170 1
  93   44  171 1
  94   44  172 1
  95   44  173 1
  96   45  174 1
  97   45  175 1
  98   45  176 1
  99   46   55 1
 100   46   47 1
 101   46  177 1
 102   46  178 1
 103   47   49 1
 104   47   48 1
 105   47  179 1
 106   48   50 2
 107   48   88 am
 108   49  180 1
 109   51   56 1
 110   51   52 1
 111   51  181 1
 112   52   53 2
 113   52   54 1
 114   53  182 1
 115   54  183 1
 116   54  184 1
 117   55   56 1
 118   55  185 1
 119   55  186 1
 120   56  187 1
 121   56  188 1
 122   57   62 1
 123   57   58 1
 124   57  189 1
 125   57  190 1
 126   58   59 1
 127   58   60 1
 128   58  191 1
 129   59   61 2
 130   60  192 1
 131   62   63 ar
 132   62   67 ar
 133   63   64 ar
 134   63  193 1
 135   64   65 ar
 136   64  194 1
 137   65   66 ar
 138   65  195 1
 139   66   67 ar
 140   66  196 1
 141   67  197 1
 142   68   69 1
 143   68   70 1
 144   68  198 1
 145   68  199 1
 146   69   71 2
 147   70  200 1
 148   72   73 1
 149   72   77 1
 150   72   79 1
 151   72  201 1
 152   73   74 1
 153   73   75 1
 154   73  202 1
 155   74   76 2
 156   74   83 am
 157   75  203 1
 158   77   78 1
 159   77  204 1
 160   77  205 1
 161   78  206 1
 162   78  207 1
 163   78  208 1
 164   79  209 1
 165   79  210 1
 166   79  211 1
 167   80   81 1
 168   80  212 1
 169   80  213 1
 170   80  214 1
 171   81   82 1
 172   81   83 1
 173   81  215 1
 174   82   84 2
 175   82   99 am
 176   83  216 1
 177   85   90 1
 178   85   86 1
 179   85  217 1
 180   85  218 1
 181   86   87 1
 182   86   88 1
 183   86  219 1
 184   87   89 2
 185   88  220 1
 186   90   91 ar
 187   90   95 ar
 188   91   92 ar
 189   91  221 1
 190   92   93 ar
 191   92  222 1
 192   93   94 ar
 193   93  223 1
 194   94   95 ar
 195   94  224 1
 196   95  225 1
 197   96  101 1
 198   96   97 1
 199   96  226 1
 200   96  227 1
 201   97   98 1
 202   97   99 1
 203   97  228 1
 204   98  100 2
 205   98  107 am
 206   99  229 1
 207  101  102 2
 208  101  103 1
 209  103  230 1
 210  104  109 1
 211  104  105 1
 212  104  231 1
 213  104  232 1
 214  105  107 1
 215  105  106 1
 216  105  233 1
 217  106  108 2
 218  106  115 am
 219  107  234 1
 220  109  110 am
 221  109  111 2
 222  110  235 1
 223  110  236 1
 224  112  117 1
 225  112  113 1
 226  112  237 1
 227  112  238 1
 228  113  114 1
 229  113  115 1
 230  113  239 1
 231  114  116 2
 232  114  240 1
 233  115  241 1
 234  117  118 1
 235  117  121 2
 236  118  119 1
 237  118  242 1
 238  119  120 2
 239  119  243 1
 240  120  121 1
 241  121  244 1
 242  122  127 1
 243  122  123 1
 244  122  245 1
 245  122  246 1
 246  123  125 1
 247  123  124 1
 248  123  247 1
 249  124  126 2
 250  124  248 1
 251  125  249 1
 252  127  250 1

#	End of record

