#	Name: ASD11000109
#	Creating user name:	WinNT
#	Creation time:	15. 06. 2019 21:28

#	Modifying user name:	WinNT
#	Modification time:	15. 06. 2019 21:28

#	Program:	/corina/corina34_cracker 3.40 0067  02.08.2006

@<TRIPOS>MOLECULE
ASD11000109
  59   62    0    0    0
SMALL
NO_CHARGES


@<TRIPOS>ATOM
   1 C1            -0.0752     1.4355    -0.0462 C.2     
   2 C2             0.1198    -0.0550     0.0614 C.3     
   3 N3            -0.5382    -0.5467     1.2765 N.am    
   4 C4            -0.4786    -0.7281    -1.1485 C.ar    
   5 C5            -1.3176    -1.8157    -1.0467 C.ar    
   6 C6            -0.1560    -0.2156    -2.3980 C.ar    
   7 C7            -1.8252    -2.4025    -2.1998 C.ar    
   8 C8            -1.5041    -1.8984    -3.4464 C.ar    
   9 C9            -0.6644    -0.7932    -3.5471 C.ar    
  10 C10           -0.7636    -1.9978     1.3828 C.3     
  11 C11           -1.7344    -2.4047     0.2755 C.3     
  12 C12           -0.9208     0.2957     2.2565 C.2     
  13 O13           -0.6264     1.4735     2.1947 O.2     
  14 C14           -1.6984    -0.2126     3.4066 C.ar    
  15 C15           -1.3925     0.2102     4.7012 C.ar    
  16 C16            0.9772     2.2418    -0.0699 C.2     
  17 C17            0.7860     3.7033    -0.1754 C.ar    
  18 C18            1.8925     4.5537    -0.2004 C.ar    
  19 C19           -0.5014     4.2365    -0.2562 C.ar    
  20 C20           -0.6756     5.6004    -0.3550 C.ar    
  21 C21            0.4276     6.4435    -0.3748 C.ar    
  22 C22            1.7101     5.9165    -0.2995 C.ar    
  23 O23            0.2518     7.7871    -0.4732 O.3     
  24 C24            1.4297     8.5961    -0.4880 C.3     
  25 C25           -2.7451    -1.1127     3.2019 C.ar    
  26 C26           -3.4672    -1.5837     4.2792 C.ar    
  27 C27           -3.1559    -1.1657     5.5605 C.ar    
  28 C28           -2.1225    -0.2684     5.7705 C.ar    
  29 Br29          -1.7053     0.2965     7.5263 Br      
  30 C30           -2.8612    -3.6101    -4.3868 C.3     
  31 O31           -2.0063    -2.4795    -4.5687 O.3     
  32 O32           -0.3454    -0.2848    -4.7675 O.3     
  33 C33            0.5219     0.8506    -4.7908 C.3     
  34 H34           -1.0719     1.8466    -0.1086 H       
  35 H35            1.1855    -0.2787     0.1102 H       
  36 H36            0.4971     0.6413    -2.4730 H       
  37 H37           -2.4763    -3.2606    -2.1213 H       
  38 H38            0.1807    -2.5278     1.2584 H       
  39 H39           -1.1943    -2.2338     2.3559 H       
  40 H40           -2.7339    -2.0497     0.5268 H       
  41 H41           -1.7507    -3.4915     0.1946 H       
  42 H42           -0.5864     0.9097     4.8659 H       
  43 H43            1.9741     1.8304    -0.0120 H       
  44 H44            2.8903     4.1446    -0.1419 H       
  45 H45           -1.3599     3.5814    -0.2416 H       
  46 H46           -1.6714     6.0138    -0.4175 H       
  47 H47            2.5657     6.5754    -0.3151 H       
  48 H48            1.1484     9.6460    -0.5699 H       
  49 H49            1.9889     8.4407     0.4347 H       
  50 H50            2.0503     8.3187    -1.3400 H       
  51 H51           -2.9896    -1.4398     2.2021 H       
  52 H52           -4.2776    -2.2800     4.1217 H       
  53 H53           -3.7245    -1.5371     6.4003 H       
  54 H54           -2.3158    -4.3983    -3.8678 H       
  55 H55           -3.7287    -3.3181    -3.7949 H       
  56 H56           -3.1913    -3.9761    -5.3590 H       
  57 H57            0.0600     1.6720    -4.2429 H       
  58 H58            1.4722     0.5915    -4.3240 H       
  59 H59            0.6951     1.1544    -5.8231 H       
@<TRIPOS>BOND
   1    1    2 1
   2    1   16 2
   3    1   34 1
   4    2    3 1
   5    2    4 1
   6    2   35 1
   7    3   10 1
   8    3   12 am
   9    4    5 ar
  10    4    6 ar
  11    5    7 ar
  12    5   11 1
  13    6    9 ar
  14    6   36 1
  15    7    8 ar
  16    7   37 1
  17    8    9 ar
  18    8   31 1
  19    9   32 1
  20   10   11 1
  21   10   38 1
  22   10   39 1
  23   11   40 1
  24   11   41 1
  25   12   13 2
  26   12   14 1
  27   14   15 ar
  28   14   25 ar
  29   15   28 ar
  30   15   42 1
  31   16   17 1
  32   16   43 1
  33   17   18 ar
  34   17   19 ar
  35   18   22 ar
  36   18   44 1
  37   19   20 ar
  38   19   45 1
  39   20   21 ar
  40   20   46 1
  41   21   22 ar
  42   21   23 1
  43   22   47 1
  44   23   24 1
  45   24   48 1
  46   24   49 1
  47   24   50 1
  48   25   26 ar
  49   25   51 1
  50   26   27 ar
  51   26   52 1
  52   27   28 ar
  53   27   53 1
  54   28   29 1
  55   30   31 1
  56   30   54 1
  57   30   55 1
  58   30   56 1
  59   32   33 1
  60   33   57 1
  61   33   58 1
  62   33   59 1

#	End of record

