#	Name: ASD11940007
#	Creating user name:	WinNT
#	Creation time:	15. 06. 2019 21:29

#	Modifying user name:	WinNT
#	Modification time:	15. 06. 2019 21:29

#	Program:	/corina/corina34_cracker 3.40 0067  02.08.2006

@<TRIPOS>MOLECULE
ASD11940007
  25   26    0    0    0
SMALL
NO_CHARGES


@<TRIPOS>ATOM
   1 C1            -0.0168     1.3847     0.0097 C.ar    
   2 C2             0.0021    -0.0041     0.0020 C.ar    
   3 C3            -1.1827    -0.7171     0.0095 C.ar    
   4 C4            -2.3923    -0.0538     0.0242 C.ar    
   5 C5            -2.4218     1.3429     0.0319 C.ar    
   6 C6            -1.2240     2.0612     0.0306 C.ar    
   7 C7            -3.7146     2.0571     0.0471 C.2     
   8 O8            -3.7375     3.2720     0.0538 O.2     
   9 C9            -4.9823     1.2929     0.0541 C.2     
  10 C10           -6.3727     1.8035     0.0690 C.2     
  11 N11           -7.0822     0.6987     0.0693 N.2     
  12 O12           -6.3416    -0.2560     0.0577 O.3     
  13 N13           -5.1580    -0.0115     0.0428 N.2     
  14 O14            1.1511     2.0798     0.0022 O.3     
  15 C15            2.3597     1.3174    -0.0134 C.3     
  16 N16           -6.8144     3.1192     0.0800 N.pl3   
  17 H17            0.9458    -0.5291    -0.0102 H       
  18 H18           -1.1610    -1.7969     0.0035 H       
  19 H19           -3.3157    -0.6138     0.0292 H       
  20 H20           -1.2399     3.1411     0.0365 H       
  21 H21            2.4013     0.6842     0.8728 H       
  22 H22            2.3844     0.6938    -0.9070 H       
  23 H23            3.2153     1.9928    -0.0179 H       
  24 H24           -6.1724     3.8464     0.0782 H       
  25 H25           -7.7651     3.3115     0.0893 H       
@<TRIPOS>BOND
   1    1    2 ar
   2    1   14 1
   3    1    6 ar
   4    2    3 ar
   5    2   17 1
   6    3    4 ar
   7    3   18 1
   8    4    5 ar
   9    4   19 1
  10    5    6 ar
  11    5    7 1
  12    6   20 1
  13    7    8 2
  14    7    9 1
  15    9   10 1
  16    9   13 2
  17   10   11 2
  18   10   16 1
  19   11   12 1
  20   12   13 1
  21   14   15 1
  22   15   21 1
  23   15   22 1
  24   15   23 1
  25   16   24 1
  26   16   25 1

#	End of record

