#	Name: ASD16440001
#	Creating user name:	WinNT
#	Creation time:	15. 06. 2019 21:31

#	Modifying user name:	WinNT
#	Modification time:	15. 06. 2019 21:31

#	Program:	/corina/corina34_cracker 3.40 0067  02.08.2006

@<TRIPOS>MOLECULE
ASD16440001
  54   56    0    0    0
SMALL
NO_CHARGES


@<TRIPOS>ATOM
   1 C1            -0.0167     1.3799     0.0096 C.ar    
   2 C2             0.0021    -0.0041     0.0020 C.ar    
   3 C3             1.2089    -0.6846    -0.0127 C.ar    
   4 O4             1.2219    -2.0409    -0.0196 O.3     
   5 O5             6.2196    -1.8116     0.9561 O.2     
   6 O6             7.5952    -1.1755    -4.9876 O.3     
   7 C7             6.5357    -3.0594    -3.9938 C.ar    
   8 C8             5.9728    -3.6627    -2.8856 C.ar    
   9 C9             5.9025    -2.9792    -1.6860 C.ar    
  10 C10            2.4024     1.4242    -0.0132 C.ar    
  11 C11            1.1886     2.1015     0.0020 C.ar    
  12 C12            1.1660     3.5783     0.0096 C.2     
  13 C13            1.8775     4.3680     0.8591 C.2     
  14 C14            1.6957     5.7175     0.6777 C.2     
  15 C15            0.8322     6.0456    -0.3238 C.2     
  16 C16            0.4800     7.3804    -0.7047 C.1     
  17 C17            0.1912     8.4746    -1.0169 C.1     
  18 C18           -0.1708     9.8466    -1.4084 C.3     
  19 O19            3.7138    -1.9114    -0.0431 O.2     
  20 C20            3.7014    -0.6953    -0.0365 C.2     
  21 N21            4.8617    -0.0096    -0.0434 N.am    
  22 S22            6.3041    -0.8229    -0.0610 S.o2    
  23 O23            7.3226     0.1672    -0.0997 O.2     
  24 C24            6.3950    -1.6905    -1.5919 C.ar    
  25 C25            7.0356    -1.7689    -3.9005 C.ar    
  26 C26            7.6354    -1.9392    -6.1947 C.3     
  27 C27            6.9587    -1.0829    -2.6969 C.ar    
  28 C28            2.4181     0.0283    -0.0208 C.ar    
  29 C29           -0.0450    -2.7019    -0.0111 C.3     
  30 O30           -1.2014     2.0409     0.0188 O.3     
  31 C31           -2.3883     1.2450     0.0201 C.3     
  32 S32            0.2216     4.5817    -1.0826 S.3     
  33 O33           -1.0990     9.8030    -2.4940 O.3     
  34 H34           -0.9267    -0.5552     0.0079 H       
  35 H35            6.5903    -3.5938    -4.9307 H       
  36 H36            5.5871    -4.6690    -2.9566 H       
  37 H37            5.4618    -3.4524    -0.8209 H       
  38 H38            3.3306     1.9764    -0.0195 H       
  39 H39            2.5335     3.9655     1.6168 H       
  40 H40            2.1972     6.4596     1.2812 H       
  41 H41           -0.6269    10.3580    -0.5607 H       
  42 H42            0.7253    10.3846    -1.7180 H       
  43 H43            4.8518     0.9604    -0.0381 H       
  44 H44            8.1058    -1.3499    -6.9819 H       
  45 H45            8.2110    -2.8499    -6.0295 H       
  46 H46            6.6202    -2.2001    -6.4936 H       
  47 H47            7.3429    -0.0763    -2.6230 H       
  48 H48           -0.5965    -2.4189     0.8855 H       
  49 H49           -0.6131    -2.4099    -0.8944 H       
  50 H50            0.1081    -3.7811    -0.0180 H       
  51 H51           -2.3997     0.6111     0.9067 H       
  52 H52           -3.2624     1.8962     0.0278 H       
  53 H53           -2.4081     0.6208    -0.8732 H       
  54 H54           -1.3821    10.6738    -2.8048 H       
@<TRIPOS>BOND
   1    1    2 ar
   2    1   11 ar
   3    1   30 1
   4    2    3 ar
   5    2   34 1
   6    3    4 1
   7    3   28 ar
   8    4   29 1
   9    5   22 2
  10    6   25 1
  11    6   26 1
  12    7   35 1
  13    7    8 ar
  14    7   25 ar
  15    8   36 1
  16    8    9 ar
  17    9   37 1
  18    9   24 ar
  19   10   28 ar
  20   10   38 1
  21   10   11 ar
  22   11   12 1
  23   12   13 2
  24   12   32 1
  25   13   39 1
  26   13   14 1
  27   14   40 1
  28   14   15 2
  29   15   32 1
  30   15   16 1
  31   16   17 3
  32   17   18 1
  33   18   33 1
  34   18   41 1
  35   18   42 1
  36   19   20 2
  37   20   21 am
  38   20   28 1
  39   21   22 am
  40   21   43 1
  41   22   24 1
  42   22   23 2
  43   24   27 ar
  44   25   27 ar
  45   26   44 1
  46   26   45 1
  47   26   46 1
  48   27   47 1
  49   29   48 1
  50   29   49 1
  51   29   50 1
  52   30   31 1
  53   31   51 1
  54   31   52 1
  55   31   53 1
  56   33   54 1

#	End of record

