#	Name: ASD13010045
#	Creating user name:	WinNT
#	Creation time:	15. 06. 2019 21:30

#	Modifying user name:	WinNT
#	Modification time:	15. 06. 2019 21:30

#	Program:	/corina/corina34_cracker 3.40 0067  02.08.2006

@<TRIPOS>MOLECULE
ASD13010045
  38   41    0    0    0
SMALL
NO_CHARGES


@<TRIPOS>ATOM
   1 C1            -0.0166     1.3727     0.0096 C.ar    
   2 C2             0.0021    -0.0041     0.0020 C.ar    
   3 C3             1.2065    -0.6957    -0.0127 C.ar    
   4 C4             2.3946    -0.0227    -0.0200 C.ar    
   5 C5             1.1823     2.0793     0.0019 C.ar    
   6 N6             1.4975     3.4168     0.0057 N.pl3   
   7 C7             2.4010     1.3746    -0.0130 C.ar    
   8 C8             3.4599     2.3856    -0.0184 C.2     
   9 N9             2.8887     3.5599    -0.0071 N.2     
  10 C10            0.5773     4.4640     0.0192 C.ar    
  11 O11            4.7969     2.1453    -0.0319 O.3     
  12 C12            5.6373     3.2136    -0.0350 C.ar    
  13 C13            6.0516     3.7690    -1.2379 C.ar    
  14 C14            6.0784     3.7550     1.1647 C.ar    
  15 C15            6.9328     4.8419     1.1583 C.ar    
  16 C16            7.3476     5.3900    -0.0414 C.ar    
  17 C17            6.9061     4.8559    -1.2379 C.ar    
  18 C18           -1.2746     6.4644    -0.0034 C.ar    
  19 C19           -0.0810     6.6553     0.6942 C.ar    
  20 C20            0.8605     5.6430     0.7076 C.ar    
  21 C21           -0.6346     4.3470    -0.6602 C.ar    
  22 N22           -1.5069     5.3286    -0.6526 N.ar    
  23 C23           -2.2888     7.5390    -0.0245 C.2     
  24 O24           -2.0813     8.5816     0.5632 O.2     
  25 O25           -3.4435     7.3623    -0.6957 O.3     
  26 Cl26           5.4978     3.0992    -2.7407 Cl      
  27 Cl27           5.5574     3.0683     2.6716 Cl      
  28 H28           -0.9579     1.9021     0.0169 H       
  29 H29           -0.9289    -0.5515     0.0080 H       
  30 H30            1.2032    -1.7756    -0.0182 H       
  31 H31            3.3264    -0.5686    -0.0308 H       
  32 H32            7.2764     5.2636     2.0914 H       
  33 H33            8.0144     6.2395    -0.0439 H       
  34 H34            7.2287     5.2885    -2.1734 H       
  35 H35            0.1032     7.5806     1.2199 H       
  36 H36            1.7931     5.7625     1.2390 H       
  37 H37           -0.8585     3.4385    -1.1995 H       
  38 H38           -4.0762     8.0935    -0.6808 H       
@<TRIPOS>BOND
   1    1    2 ar
   2    1    5 ar
   3    1   28 1
   4    2    3 ar
   5    2   29 1
   6    3    4 ar
   7    3   30 1
   8    4    7 ar
   9    4   31 1
  10    5    7 ar
  11    5    6 1
  12    6    9 1
  13    6   10 1
  14    7    8 1
  15    8    9 2
  16    8   11 1
  17   10   21 ar
  18   10   20 ar
  19   11   12 1
  20   12   14 ar
  21   12   13 ar
  22   13   17 ar
  23   13   26 1
  24   14   15 ar
  25   14   27 1
  26   15   16 ar
  27   15   32 1
  28   16   17 ar
  29   16   33 1
  30   17   34 1
  31   18   19 ar
  32   18   22 ar
  33   18   23 1
  34   19   20 ar
  35   19   35 1
  36   20   36 1
  37   21   22 ar
  38   21   37 1
  39   23   24 2
  40   23   25 1
  41   25   38 1

#	End of record

