#	Name: ASD10950030
#	Creating user name:	WinNT
#	Creation time:	15. 06. 2019 21:28

#	Modifying user name:	WinNT
#	Modification time:	15. 06. 2019 21:28

#	Program:	/corina/corina34_cracker 3.40 0067  02.08.2006

@<TRIPOS>MOLECULE
ASD10950030
  56   60    0    0    0
SMALL
NO_CHARGES


@<TRIPOS>ATOM
   1 O1             0.4058     0.2757    -1.2834 O.2     
   2 C2             0.4704     0.9821    -0.2950 C.2     
   3 C3             1.5515     1.9635    -0.1648 C.2     
   4 C4             2.8725     1.6971    -0.0369 C.2     
   5 O5             3.4239     0.4622    -0.0073 O.3     
   6 C6             3.6168     2.9703     0.0649 C.2     
   7 O7             4.8217     3.0657     0.1880 O.2     
   8 N8             2.7627     4.0078     0.0002 N.am    
   9 C9             1.4070     3.4674    -0.1542 C.3     
  10 C10            0.8023     3.9469    -1.4486 C.ar    
  11 C11           -0.4735     4.4790    -1.4602 C.ar    
  12 C12           -1.0281     4.9189    -2.6475 C.ar    
  13 C13           -0.3068     4.8271    -3.8232 C.ar    
  14 C14            0.9693     4.2959    -3.8114 C.ar    
  15 C15            1.5256     3.8600    -2.6234 C.ar    
  16 C16           -0.9119     5.3057    -5.1177 C.3     
  17 F17           -0.6009     6.6566    -5.3065 F       
  18 F18           -0.3952     4.5554    -6.1795 F       
  19 F19           -2.3013     5.1495    -5.0690 F       
  20 C20            3.1229     5.4263     0.0669 C.3     
  21 C21            3.3933     5.9507    -1.3448 C.3     
  22 C22            3.7638     7.4099    -1.2761 C.2     
  23 C23            2.9331     8.4528    -1.4319 C.2     
  24 N24            3.6267     9.6251    -1.3019 N.pl3   
  25 C25            4.9544     9.3582    -1.0530 C.ar    
  26 C26            5.0975     7.9592    -1.0204 C.ar    
  27 C27            6.3514     7.3925    -0.7833 C.ar    
  28 C28            7.4344     8.2012    -0.5838 C.ar    
  29 C29            7.2983     9.5825    -0.6145 C.ar    
  30 C30            6.0700    10.1625    -0.8434 C.ar    
  31 C31           -0.5451     0.8551     0.7722 C.ar    
  32 C32           -1.6495     0.0098     0.6074 C.ar    
  33 C33           -2.5707    -0.0736     1.6364 C.ar    
  34 C34           -2.3736     0.6733     2.7841 C.ar    
  35 N35           -1.3232     1.4619     2.9120 N.ar    
  36 C36           -0.4163     1.5715     1.9639 C.ar    
  37 H37            4.3860     0.4632     0.0900 H       
  38 H38            0.7841     3.7722     0.6867 H       
  39 H39           -1.0370     4.5507    -0.5417 H       
  40 H40           -2.0252     5.3339    -2.6567 H       
  41 H41            1.5327     4.2238    -4.7300 H       
  42 H42            2.5227     3.4450    -2.6142 H       
  43 H43            2.3025     5.9889     0.5125 H       
  44 H44            4.0185     5.5455     0.6766 H       
  45 H45            4.2137     5.3882    -1.7904 H       
  46 H46            2.4977     5.8315    -1.9544 H       
  47 H47            1.8743     8.3777    -1.6310 H       
  48 H48            3.2407    10.5120    -1.3746 H       
  49 H49            6.4647     6.3188    -0.7573 H       
  50 H50            8.4040     7.7624    -0.4005 H       
  51 H51            8.1637    10.2085    -0.4547 H       
  52 H52            5.9745    11.2381    -0.8654 H       
  53 H53           -1.7790    -0.5620    -0.2997 H       
  54 H54           -3.4349    -0.7148     1.5445 H       
  55 H55           -3.0914     0.6102     3.5885 H       
  56 H56            0.4298     2.2276     2.1056 H       
@<TRIPOS>BOND
   1    1    2 2
   2    2    3 1
   3    2   31 1
   4    3    4 2
   5    3    9 1
   6    4    5 1
   7    4    6 1
   8    5   37 1
   9    6    7 2
  10    6    8 am
  11    8    9 1
  12    8   20 1
  13    9   10 1
  14    9   38 1
  15   10   11 ar
  16   10   15 ar
  17   11   12 ar
  18   11   39 1
  19   12   13 ar
  20   12   40 1
  21   13   14 ar
  22   13   16 1
  23   14   15 ar
  24   14   41 1
  25   15   42 1
  26   16   17 1
  27   16   18 1
  28   16   19 1
  29   20   21 1
  30   20   43 1
  31   20   44 1
  32   21   22 1
  33   21   45 1
  34   21   46 1
  35   22   23 2
  36   22   26 1
  37   23   24 1
  38   23   47 1
  39   24   25 1
  40   24   48 1
  41   25   26 ar
  42   25   30 ar
  43   26   27 ar
  44   27   28 ar
  45   27   49 1
  46   28   29 ar
  47   28   50 1
  48   29   30 ar
  49   29   51 1
  50   30   52 1
  51   31   32 ar
  52   31   36 ar
  53   32   33 ar
  54   32   53 1
  55   33   34 ar
  56   33   54 1
  57   34   35 ar
  58   34   55 1
  59   35   36 ar
  60   36   56 1

#	End of record

