#	Name: ASD10420043
#	Creating user name:	WinNT
#	Creation time:	15. 06. 2019 21:27

#	Modifying user name:	WinNT
#	Modification time:	15. 06. 2019 21:27

#	Program:	/corina/corina34_cracker 3.40 0067  02.08.2006

@<TRIPOS>MOLECULE
ASD10420043
  76   80    0    0    0
SMALL
NO_CHARGES


@<TRIPOS>ATOM
   1 C1             0.4446     1.3661    -0.0527 C.2     
   2 C2             0.3406    -0.0067    -0.2759 C.2     
   3 C3             1.6229    -0.5023    -0.4440 C.2     
   4 N4             2.5162     0.5380    -0.3290 N.pl3   
   5 C5             3.8810     0.5646    -0.4160 C.2     
   6 C6             4.5649     1.7152    -0.2695 C.2     
   7 C7             3.8740     2.9267    -0.0207 C.2     
   8 C8             2.4892     2.9068     0.0688 C.2     
   9 C9             1.8133     1.6900    -0.0893 C.2     
  10 C10            4.6162     4.1914     0.1415 C.2     
  11 O11            4.0149     5.2256     0.3547 O.2     
  12 O12            5.9609     4.1997     0.0532 O.3     
  13 C13           -0.6759     2.3074     0.1739 C.ar    
  14 C14           -0.8384     2.9163     1.4185 C.ar    
  15 C15           -1.8841     3.7928     1.6232 C.ar    
  16 C16           -2.7708     4.0679     0.5974 C.ar    
  17 C17           -2.6150     3.4672    -0.6392 C.ar    
  18 C18           -1.5700     2.5934    -0.8581 C.ar    
  19 C19           -0.9359    -0.8062    -0.3247 C.3     
  20 C20           -1.2005    -1.4132     1.0290 C.ar    
  21 C21           -2.0856    -0.8038     1.8984 C.ar    
  22 C22           -2.3288    -1.3619     3.1417 C.ar    
  23 C23           -1.6849    -2.5304     3.5129 C.ar    
  24 C24           -0.8005    -3.1378     2.6422 C.ar    
  25 C25           -0.5624    -2.5823     1.3986 C.ar    
  26 C26           -2.7851     0.4680     1.4931 C.3     
  27 F27           -3.1933    -0.7669     3.9924 F       
  28 C28            1.9702    -1.9007    -0.7007 C.2     
  29 O29            2.1876    -2.6547     0.2301 O.2     
  30 N30            2.0495    -2.3538    -1.9676 N.am    
  31 C31            2.5033    -3.7238    -2.2449 C.3     
  32 C32            1.4325    -4.4348    -3.0816 C.3     
  33 N33            1.0662    -3.5678    -4.2104 N.am    
  34 C34            0.6124    -2.1978    -3.9330 C.3     
  35 C35            1.6779    -1.4886    -3.0960 C.3     
  36 C36            1.1454    -4.0209    -5.4772 C.2     
  37 O37            1.5225    -5.1555    -5.6942 O.2     
  38 O38            0.8069    -3.2164    -6.5023 O.3     
  39 C39            0.9168    -3.7710    -7.8397 C.3     
  40 C40            0.0073    -4.9955    -7.9604 C.3     
  41 C41            0.4926    -2.7177    -8.8651 C.3     
  42 C42            2.3662    -4.1844    -8.1029 C.3     
  43 H43            4.4190    -0.3526    -0.6050 H       
  44 H44            5.6425     1.7144    -0.3415 H       
  45 H45            1.9400     3.8172     0.2582 H       
  46 H46            6.4031     5.0523     0.1664 H       
  47 H47           -0.1472     2.7018     2.2202 H       
  48 H48           -2.0109     4.2648     2.5863 H       
  49 H49           -3.5882     4.7541     0.7628 H       
  50 H50           -3.3105     3.6860    -1.4360 H       
  51 H51           -1.4470     2.1283    -1.8250 H       
  52 H52           -1.7640    -0.1522    -0.5977 H       
  53 H53           -0.8397    -1.5994    -1.0660 H       
  54 H54           -1.8736    -2.9665     4.4828 H       
  55 H55           -0.2982    -4.0491     2.9315 H       
  56 H56            0.1256    -3.0602     0.7169 H       
  57 H57           -3.7670     0.2284     1.0850 H       
  58 H58           -2.9013     1.1123     2.3646 H       
  59 H59           -2.1930     0.9832     0.7367 H       
  60 H60            3.4408    -3.6933    -2.8002 H       
  61 H61            2.6485    -4.2582    -1.3061 H       
  62 H62            1.8289    -5.3777    -3.4582 H       
  63 H63            0.5534    -4.6246    -2.4658 H       
  64 H64            0.4672    -1.6634    -4.8718 H       
  65 H65           -0.3251    -2.2283    -3.3778 H       
  66 H66            1.2781    -0.5473    -2.7190 H       
  67 H67            2.5552    -1.2953    -3.7132 H       
  68 H68           -1.0252    -4.7010    -7.7729 H       
  69 H69            0.0899    -5.4118    -8.9643 H       
  70 H70            0.3095    -5.7459    -7.2298 H       
  71 H71            1.1406    -1.8454    -8.7792 H       
  72 H72            0.5752    -3.1340    -9.8691 H       
  73 H73           -0.5399    -2.4232    -8.6776 H       
  74 H74            2.6684    -4.9348    -7.3724 H       
  75 H75            2.4487    -4.6007    -9.1068 H       
  76 H76            3.0141    -3.3120    -8.0169 H       
@<TRIPOS>BOND
   1    1    2 1
   2    1    9 2
   3    1   13 1
   4    2    3 2
   5    2   19 1
   6    3    4 1
   7    3   28 1
   8    4    5 1
   9    4    9 1
  10    5    6 2
  11    5   43 1
  12    6    7 1
  13    6   44 1
  14    7    8 2
  15    7   10 1
  16    8    9 1
  17    8   45 1
  18   10   11 2
  19   10   12 1
  20   12   46 1
  21   13   14 ar
  22   13   18 ar
  23   14   15 ar
  24   14   47 1
  25   15   16 ar
  26   15   48 1
  27   16   17 ar
  28   16   49 1
  29   17   18 ar
  30   17   50 1
  31   18   51 1
  32   19   20 1
  33   19   52 1
  34   19   53 1
  35   20   21 ar
  36   20   25 ar
  37   21   22 ar
  38   21   26 1
  39   22   23 ar
  40   22   27 1
  41   23   24 ar
  42   23   54 1
  43   24   25 ar
  44   24   55 1
  45   25   56 1
  46   26   57 1
  47   26   58 1
  48   26   59 1
  49   28   29 2
  50   28   30 am
  51   30   31 1
  52   30   35 1
  53   31   32 1
  54   31   60 1
  55   31   61 1
  56   32   33 1
  57   32   62 1
  58   32   63 1
  59   33   34 1
  60   33   36 am
  61   34   35 1
  62   34   64 1
  63   34   65 1
  64   35   66 1
  65   35   67 1
  66   36   37 2
  67   36   38 1
  68   38   39 1
  69   39   40 1
  70   39   42 1
  71   39   41 1
  72   40   68 1
  73   40   69 1
  74   40   70 1
  75   41   71 1
  76   41   72 1
  77   41   73 1
  78   42   74 1
  79   42   75 1
  80   42   76 1

#	End of record

