#	Name: ASD13750005
#	Creating user name:	WinNT
#	Creation time:	15. 06. 2019 21:30

#	Modifying user name:	WinNT
#	Modification time:	15. 06. 2019 21:30

#	Program:	/corina/corina34_cracker 3.40 0067  02.08.2006

@<TRIPOS>MOLECULE
ASD13750005
  28   30    0    0    0
SMALL
NO_CHARGES


@<TRIPOS>ATOM
   1 C1            -0.0164     1.3573     0.0095 C.ar    
   2 C2             0.0021    -0.0041     0.0020 C.ar    
   3 C3             1.2013    -0.7045    -0.0132 C.ar    
   4 C4             2.3974    -0.0212    -0.0209 C.ar    
   5 C5             2.3969     1.3683    -0.0134 C.ar    
   6 C6             1.1893     2.0878     0.0019 C.ar    
   7 S7             3.6887     2.5706    -0.0199 S.3     
   8 N8             2.6846     3.9334    -0.0032 N.am    
   9 C9             1.4151     3.5274     0.0083 C.2     
  10 C10            3.1150     5.2628    -0.0003 C.ar    
  11 C11            4.3611     5.5923    -0.5191 C.ar    
  12 C12            4.7831     6.9072    -0.5150 C.ar    
  13 C13            3.9670     7.8954     0.0045 C.ar    
  14 C14            2.7262     7.5709     0.5220 C.ar    
  15 C15            2.2955     6.2589     0.5160 C.ar    
  16 O16            0.4895     4.3204     0.0210 O.2     
  17 C17            4.4310     9.3292     0.0071 C.3     
  18 H18           -0.9609     1.8810     0.0168 H       
  19 H19           -0.9309    -0.5481     0.0083 H       
  20 H20            1.1961    -1.7845    -0.0186 H       
  21 H21            3.3315    -0.5631    -0.0324 H       
  22 H22            4.9990     4.8210    -0.9246 H       
  23 H23            5.7517     7.1640    -0.9178 H       
  24 H24            2.0916     8.3451     0.9273 H       
  25 H25            1.3245     6.0068     0.9159 H       
  26 H26            4.1205     9.8133    -0.9189 H       
  27 H27            3.9903     9.8522     0.8559 H       
  28 H28            5.5177     9.3593     0.0862 H       
@<TRIPOS>BOND
   1    1    2 ar
   2    1    6 ar
   3    1   18 1
   4    2    3 ar
   5    2   19 1
   6    3    4 ar
   7    3   20 1
   8    4    5 ar
   9    4   21 1
  10    5    7 1
  11    5    6 ar
  12    6    9 1
  13    7    8 1
  14    8    9 am
  15    8   10 1
  16    9   16 2
  17   10   11 ar
  18   10   15 ar
  19   11   12 ar
  20   11   22 1
  21   12   13 ar
  22   12   23 1
  23   13   14 ar
  24   13   17 1
  25   14   15 ar
  26   14   24 1
  27   15   25 1
  28   17   26 1
  29   17   27 1
  30   17   28 1

#	End of record

