#	Name: ASD11000027
#	Creating user name:	WinNT
#	Creation time:	15. 06. 2019 21:28

#	Modifying user name:	WinNT
#	Modification time:	15. 06. 2019 21:28

#	Program:	/corina/corina34_cracker 3.40 0067  02.08.2006

@<TRIPOS>MOLECULE
ASD11000027
  63   66    0    0    0
SMALL
NO_CHARGES


@<TRIPOS>ATOM
   1 C1            -1.4296    -0.0283    -0.5462 C.ar    
   2 C2            -0.9211    -1.2923    -0.3189 C.ar    
   3 C3             0.4495    -1.5035    -0.3453 C.ar    
   4 C4             1.3094    -0.4454    -0.5996 C.ar    
   5 C5             0.8009     0.8186    -0.8269 C.ar    
   6 C6            -0.5697     1.0297    -0.8010 C.ar    
   7 O7            -1.0703     2.2740    -1.0252 O.3     
   8 C8            -2.4914     2.4188    -0.9834 C.3     
   9 O9             0.9501    -2.7478    -0.1215 O.3     
  10 C10            2.3711    -2.8927    -0.1638 C.3     
  11 C11            2.7434    -4.3514     0.1093 C.3     
  12 N12            2.2496    -4.7412     1.4343 N.am    
  13 C13            2.1220    -5.2337    -0.9445 C.ar    
  14 C14            1.4199    -6.3758    -0.6285 C.ar    
  15 C15            2.2784    -4.8610    -2.2728 C.ar    
  16 C16            0.8837    -7.1565    -1.6456 C.ar    
  17 C17            1.0402    -6.7920    -2.9700 C.ar    
  18 C18            1.7408    -5.6322    -3.2871 C.ar    
  19 C19            2.1956    -6.1807     1.7386 C.3     
  20 C20            1.1848    -6.8236     0.7903 C.3     
  21 C21            1.8614    -3.8189     2.3370 C.2     
  22 O22            2.0259    -2.6363     2.1071 O.2     
  23 C23            1.2364    -4.2443     3.6047 C.ar    
  24 C24            1.3696    -3.4557     4.7506 C.ar    
  25 C25            0.5052    -5.4337     3.6607 C.ar    
  26 C26           -0.0767    -5.8269     4.8451 C.ar    
  27 C27            0.0625    -5.0423     5.9841 C.ar    
  28 C28            0.7847    -3.8558     5.9312 C.ar    
  29 O29            1.8969    -5.2603    -4.5859 O.3     
  30 C30            2.6281    -4.0576    -4.8329 C.3     
  31 O31            0.5118    -7.5629    -3.9579 O.3     
  32 C32           -0.1946    -8.7383    -3.5560 C.3     
  33 C33           -0.3299    -4.5800     8.2812 C.3     
  34 O34           -0.5125    -5.4332     7.1495 O.3     
  35 H35           -2.4970     0.1353    -0.5301 H       
  36 H36           -1.5907    -2.1160    -0.1202 H       
  37 H37            2.3767    -0.6097    -0.6195 H       
  38 H38            1.4705     1.6426    -1.0245 H       
  39 H39           -2.7566     3.4579    -1.1783 H       
  40 H40           -2.9441     1.7799    -1.7417 H       
  41 H41           -2.8573     2.1289     0.0016 H       
  42 H42            2.7368    -2.6027    -1.1488 H       
  43 H43            2.8241    -2.2540     0.5945 H       
  44 H44            3.8275    -4.4606     0.0797 H       
  45 H45            2.8242    -3.9613    -2.5159 H       
  46 H46            0.3401    -8.0566    -1.3992 H       
  47 H47            3.1786    -6.6268     1.5873 H       
  48 H48            1.8781    -6.3278     2.7709 H       
  49 H49            0.1774    -6.5390     1.0938 H       
  50 H50            1.2817    -7.9079     0.8447 H       
  51 H51            1.9308    -2.5339     4.7104 H       
  52 H52            0.3963    -6.0436     2.7761 H       
  53 H53           -0.6423    -6.7458     4.8892 H       
  54 H54            0.8906    -3.2490     6.8183 H       
  55 H55            2.6784    -3.8771    -5.9067 H       
  56 H56            2.1261    -3.2210    -4.3470 H       
  57 H57            3.6373    -4.1575    -4.4336 H       
  58 H58           -0.5635    -9.2602    -4.4390 H       
  59 H59            0.4766    -9.3934    -3.0007 H       
  60 H60           -1.0356    -8.4578    -2.9219 H       
  61 H61           -0.8390    -5.0080     9.1448 H       
  62 H62            0.7344    -4.4855     8.4970 H       
  63 H63           -0.7457    -3.5959     8.0652 H       
@<TRIPOS>BOND
   1    1    2 ar
   2    1    6 ar
   3    1   35 1
   4    2    3 ar
   5    2   36 1
   6    3    4 ar
   7    3    9 1
   8    4    5 ar
   9    4   37 1
  10    5    6 ar
  11    5   38 1
  12    6    7 1
  13    7    8 1
  14    8   39 1
  15    8   40 1
  16    8   41 1
  17    9   10 1
  18   10   11 1
  19   10   42 1
  20   10   43 1
  21   11   12 1
  22   11   13 1
  23   11   44 1
  24   12   19 1
  25   12   21 am
  26   13   14 ar
  27   13   15 ar
  28   14   16 ar
  29   14   20 1
  30   15   18 ar
  31   15   45 1
  32   16   17 ar
  33   16   46 1
  34   17   18 ar
  35   17   31 1
  36   18   29 1
  37   19   20 1
  38   19   47 1
  39   19   48 1
  40   20   49 1
  41   20   50 1
  42   21   22 2
  43   21   23 1
  44   23   24 ar
  45   23   25 ar
  46   24   28 ar
  47   24   51 1
  48   25   26 ar
  49   25   52 1
  50   26   27 ar
  51   26   53 1
  52   27   28 ar
  53   27   34 1
  54   28   54 1
  55   29   30 1
  56   30   55 1
  57   30   56 1
  58   30   57 1
  59   31   32 1
  60   32   58 1
  61   32   59 1
  62   32   60 1
  63   33   34 1
  64   33   61 1
  65   33   62 1
  66   33   63 1

#	End of record

