#	Name: ASD10160077
#	Creating user name:	WinNT
#	Creation time:	15. 06. 2019 21:25

#	Modifying user name:	WinNT
#	Modification time:	15. 06. 2019 21:25

#	Program:	/corina/corina34_cracker 3.40 0067  02.08.2006

@<TRIPOS>MOLECULE
ASD10160077
  49   51    0    0    0
SMALL
NO_CHARGES


@<TRIPOS>ATOM
   1 C1            -2.2282    -2.6062     4.8633 C.2     
   2 C2            -1.6268    -3.0083     3.5785 C.ar    
   3 C3            -0.3021    -3.4587     3.5338 C.ar    
   4 C4             0.2564    -3.8339     2.3285 C.ar    
   5 C5            -0.4938    -3.7650     1.1622 C.ar    
   6 C6            -1.8118    -3.3170     1.2024 C.ar    
   7 C7            -2.3797    -2.9463     2.4019 C.ar    
   8 O8            -1.5733    -2.6656     5.8862 O.2     
   9 N9            -3.5020    -2.1677     4.9032 N.am    
  10 S10           -4.1774    -1.7161     6.3462 S.o2    
  11 O11           -5.5069    -1.3441     6.0096 O.2     
  12 O12           -3.9206    -2.8133     7.2119 O.2     
  13 C13           -3.2203    -0.2630     6.8589 C.3     
  14 F14           -2.5366    -3.2512     0.0642 F       
  15 F15            0.4285    -3.5256     4.6682 F       
  16 O16            0.0593    -4.1349    -0.0209 O.3     
  17 C17            2.4218    -3.8528    -0.1445 C.ar    
  18 C18            1.3101    -4.6677    -0.0019 C.ar    
  19 C19            1.4897    -6.0385     0.1616 C.ar    
  20 C20            2.7815    -6.5371     0.1752 C.ar    
  21 C21            3.8478    -5.6584     0.0263 C.ar    
  22 N22            3.6389    -4.3620    -0.1268 N.ar    
  23 O23            5.1185    -6.1368     0.0387 O.3     
  24 C24            6.1719    -5.1841    -0.1189 C.3     
  25 C25            7.4172    -5.6734     0.6231 C.3     
  26 C26            8.5451    -4.6534     0.4543 C.3     
  27 C27            8.8680    -4.4914    -1.0324 C.3     
  28 C28            7.6226    -4.0021    -1.7744 C.3     
  29 C29            6.4948    -5.0221    -1.6056 C.3     
  30 F30            9.8992    -3.5587    -1.1867 F       
  31 F31            9.2707    -5.7233    -1.5591 F       
  32 Cl32           3.0653    -8.2379     0.3763 Cl      
  33 H33            1.2784    -4.1812     2.2926 H       
  34 H34           -3.4036    -2.6039     2.4325 H       
  35 H35           -4.0231    -2.1165     4.0866 H       
  36 H36           -3.3129     0.5179     6.1042 H       
  37 H37           -3.6011     0.1053     7.8115 H       
  38 H38           -2.1716    -0.5391     6.9692 H       
  39 H39            2.2903    -2.7890    -0.2763 H       
  40 H40            0.6416    -6.6974     0.2754 H       
  41 H41            5.8581    -4.2243     0.2915 H       
  42 H42            7.1872    -5.7888     1.6823 H       
  43 H43            7.7310    -6.6332     0.2128 H       
  44 H44            8.2313    -3.6936     0.8647 H       
  45 H45            9.4323    -5.0020     0.9830 H       
  46 H46            7.3088    -3.0423    -1.3640 H       
  47 H47            7.8526    -3.8867    -2.8336 H       
  48 H48            6.8085    -5.9819    -2.0160 H       
  49 H49            5.6075    -4.6735    -2.1342 H       
@<TRIPOS>BOND
   1    1    2 1
   2    1    8 2
   3    1    9 am
   4    2    3 ar
   5    2    7 ar
   6    3    4 ar
   7    3   15 1
   8    4    5 ar
   9    4   33 1
  10    5    6 ar
  11    5   16 1
  12    6    7 ar
  13    6   14 1
  14    7   34 1
  15    9   10 am
  16    9   35 1
  17   10   11 2
  18   10   12 2
  19   10   13 1
  20   13   36 1
  21   13   37 1
  22   13   38 1
  23   16   18 1
  24   17   18 ar
  25   17   22 ar
  26   17   39 1
  27   18   19 ar
  28   19   20 ar
  29   19   40 1
  30   20   21 ar
  31   20   32 1
  32   21   22 ar
  33   21   23 1
  34   23   24 1
  35   24   25 1
  36   24   29 1
  37   24   41 1
  38   25   26 1
  39   25   42 1
  40   25   43 1
  41   26   27 1
  42   26   44 1
  43   26   45 1
  44   27   28 1
  45   27   30 1
  46   27   31 1
  47   28   29 1
  48   28   46 1
  49   28   47 1
  50   29   48 1
  51   29   49 1

#	End of record

