#	Name: ASD14830001
#	Creating user name:	WinNT
#	Creation time:	15. 06. 2019 21:31

#	Modifying user name:	WinNT
#	Modification time:	15. 06. 2019 21:31

#	Program:	/corina/corina34_cracker 3.40 0067  02.08.2006

@<TRIPOS>MOLECULE
ASD14830001
  65   69    0    0    0
SMALL
NO_CHARGES


@<TRIPOS>ATOM
   1 C1             0.0124     1.9318    -0.3062 C.ar    
   2 C2             0.0747     0.6633     0.2688 C.ar    
   3 N3             1.2399     0.0693     0.4871 N.ar    
   4 C4             2.3801     0.6477     0.1725 C.ar    
   5 C5             2.3938     1.9200    -0.4071 C.ar    
   6 C6             1.1721     2.5715    -0.6496 C.ar    
   7 C7             3.6662     2.5664    -0.7575 C.2     
   8 C8             4.8338     1.9314    -0.5202 C.2     
   9 C9             6.0998     2.5745    -0.8688 C.2     
  10 N10            7.2653     1.9407    -0.6319 N.am    
  11 O11            6.1010     3.6824    -1.3731 O.2     
  12 C12            8.5338     2.5850    -0.9812 C.3     
  13 C13            9.6947     1.6597    -0.6114 C.3     
  14 C14           11.0544     0.1802    -1.6959 C.ar    
  15 O15            9.7540     0.5352    -1.5048 O.3     
  16 C16           11.0525     2.3610    -0.8519 C.3     
  17 C17           11.9149     1.2135    -1.3418 C.ar    
  18 C18           12.9551    -1.1666    -2.2979 C.ar    
  19 C19           11.5915    -1.0157    -2.1734 C.ar    
  20 C20           13.2766     1.0725    -1.4654 C.ar    
  21 C21           13.8114    -0.1235    -1.9465 C.ar    
  22 C22           15.2784    -0.2839    -2.0826 C.ar    
  23 C23           15.8071    -1.4824    -2.5638 C.ar    
  24 C24           17.1694    -1.6325    -2.6901 C.ar    
  25 C25           18.0231    -0.5842    -2.3367 C.ar    
  26 C26           17.4926     0.6156    -1.8553 C.ar    
  27 C27           16.1298     0.7656    -1.7347 C.ar    
  28 C28           19.4850    -0.7444    -2.4714 C.2     
  29 O29           19.9572    -1.1669    -3.5090 O.2     
  30 N30           20.2956    -0.4223    -1.4440 N.am    
  31 C31           21.7469    -0.6458    -1.5288 C.3     
  32 C32           19.7533     0.1677    -0.2107 C.3     
  33 C33           20.2744    -0.6376     0.9843 C.3     
  34 N34           21.7404    -0.7076     0.9217 N.3     
  35 C35           22.1935    -1.4208    -0.2845 C.3     
  36 N36           -1.0982     0.0138     0.6177 N.pl3   
  37 Cl37          10.5351    -2.3212    -2.6131 Cl      
  38 H38           -0.9429     2.4034    -0.4831 H       
  39 H39            3.3117     0.1358     0.3639 H       
  40 H40            1.1494     3.5543    -1.0967 H       
  41 H41            3.6673     3.5494    -1.2050 H       
  42 H42            4.8327     0.9484    -0.0728 H       
  43 H43            7.2643     1.0578    -0.2300 H       
  44 H44            8.5563     2.7860    -2.0523 H       
  45 H45            8.6279     3.5227    -0.4335 H       
  46 H46            9.6088     1.3296     0.4239 H       
  47 H47           10.9620     3.1338    -1.6153 H       
  48 H48           11.4464     2.7760     0.0758 H       
  49 H49           13.3623    -2.0958    -2.6684 H       
  50 H50           13.9317     1.8861    -1.1909 H       
  51 H51           15.1471    -2.2924    -2.8369 H       
  52 H52           17.5784    -2.5603    -3.0619 H       
  53 H53           18.1516     1.4262    -1.5816 H       
  54 H54           15.7194     1.6943    -1.3669 H       
  55 H55           21.9765    -1.2252    -2.4230 H       
  56 H56           22.2634     0.3133    -1.5678 H       
  57 H57           20.0816     1.2036    -0.1253 H       
  58 H58           18.6643     0.1265    -0.2332 H       
  59 H59           19.9728    -0.1496     1.9111 H       
  60 H60           19.8605    -1.6454     0.9520 H       
  61 H61           22.1487     0.2140     0.9665 H       
  62 H62           21.7563    -2.4191    -0.3014 H       
  63 H63           23.2807    -1.4995    -0.2758 H       
  64 H64           -1.9545     0.4419     0.4615 H       
  65 H65           -1.0631    -0.8689     1.0183 H       
@<TRIPOS>BOND
   1    1    2 ar
   2    1    6 ar
   3    1   38 1
   4    2    3 ar
   5    2   36 1
   6    3    4 ar
   7    4    5 ar
   8    4   39 1
   9    5    6 ar
  10    5    7 1
  11    6   40 1
  12    7    8 2
  13    7   41 1
  14    8    9 1
  15    8   42 1
  16    9   10 am
  17    9   11 2
  18   10   12 1
  19   10   43 1
  20   12   13 1
  21   12   44 1
  22   12   45 1
  23   13   16 1
  24   13   15 1
  25   13   46 1
  26   14   15 1
  27   14   17 ar
  28   14   19 ar
  29   16   17 1
  30   16   47 1
  31   16   48 1
  32   17   20 ar
  33   18   19 ar
  34   18   21 ar
  35   18   49 1
  36   19   37 1
  37   20   21 ar
  38   20   50 1
  39   21   22 1
  40   22   23 ar
  41   22   27 ar
  42   23   24 ar
  43   23   51 1
  44   24   25 ar
  45   24   52 1
  46   25   26 ar
  47   25   28 1
  48   26   27 ar
  49   26   53 1
  50   27   54 1
  51   28   29 2
  52   28   30 am
  53   30   32 1
  54   30   31 1
  55   31   35 1
  56   31   55 1
  57   31   56 1
  58   32   33 1
  59   32   57 1
  60   32   58 1
  61   33   34 1
  62   33   59 1
  63   33   60 1
  64   34   35 1
  65   34   61 1
  66   35   62 1
  67   35   63 1
  68   36   64 1
  69   36   65 1

#	End of record

