#	Name: ASD10950078
#	Creating user name:	WinNT
#	Creation time:	15. 06. 2019 21:28

#	Modifying user name:	WinNT
#	Modification time:	15. 06. 2019 21:28

#	Program:	/corina/corina34_cracker 3.40 0067  02.08.2006

@<TRIPOS>MOLECULE
ASD10950078
  52   56    0    0    0
SMALL
NO_CHARGES


@<TRIPOS>ATOM
   1 O1            -0.4137     0.4364    -0.7582 O.2     
   2 C2            -0.1317     1.2294     0.1203 C.2     
   3 C3             1.1481     1.9430     0.0803 C.2     
   4 C4             2.3808     1.3977     0.2051 C.2     
   5 O5             2.6414     0.0833     0.3905 O.3     
   6 C6             3.3968     2.4670     0.1062 C.2     
   7 O7             4.5976     2.2967     0.1792 O.2     
   8 N8             2.7954     3.6563    -0.0774 N.am    
   9 C9             1.3461     3.4281    -0.1148 C.3     
  10 C10            0.7872     3.8631    -1.4450 C.ar    
  11 C11           -0.1153     4.9081    -1.4978 C.ar    
  12 C12           -0.6236     5.3006    -2.7269 C.ar    
  13 C13           -0.2029     4.6240    -3.8613 C.ar    
  14 C14            0.7028     3.5880    -3.7306 C.ar    
  15 N15            1.1693     3.2455    -2.5459 N.ar    
  16 C16            3.4683     4.9498    -0.2199 C.3     
  17 C17            3.8848     5.1500    -1.6785 C.3     
  18 C18            4.6853     6.4208    -1.8024 C.2     
  19 C19            4.2146     7.6310    -2.1425 C.2     
  20 N20            5.2347     8.5429    -2.1503 N.pl3   
  21 C21            6.4167     7.9260    -1.8067 C.ar    
  22 C22            6.1236     6.5709    -1.5684 C.ar    
  23 C23            7.1433     5.6924    -1.1971 C.ar    
  24 C24            8.4225     6.1543    -1.0669 C.ar    
  25 C25            8.7169     7.4908    -1.3005 C.ar    
  26 C26            7.7257     8.3753    -1.6645 C.ar    
  27 C27           -1.0825     1.4779     1.2251 C.ar    
  28 C28           -2.3585     0.9007     1.2100 C.ar    
  29 C29           -3.2100     1.1646     2.2682 C.ar    
  30 C30           -2.7783     1.9820     3.2974 C.ar    
  31 N31           -1.5700     2.5126     3.2853 N.ar    
  32 C32           -0.7215     2.2875     2.3041 C.ar    
  33 H33            3.5832    -0.1251     0.4583 H       
  34 H34            0.8597     3.9745     0.6933 H       
  35 H35           -0.4212     5.4127    -0.5932 H       
  36 H36           -1.3306     6.1139    -2.7985 H       
  37 H37           -0.5783     4.9026    -4.8349 H       
  38 H38            1.0353     3.0556    -4.6095 H       
  39 H39            2.7878     5.7480     0.0764 H       
  40 H40            4.3528     4.9713     0.4167 H       
  41 H41            4.4923     4.3048    -2.0021 H       
  42 H42            2.9950     5.2186    -2.3043 H       
  43 H43            3.1836     7.8521    -2.3759 H       
  44 H44            5.1395     9.4838    -2.3660 H       
  45 H45            6.9217     4.6516    -1.0130 H       
  46 H46            9.2110     5.4744    -0.7796 H       
  47 H47            9.7329     7.8410    -1.1932 H       
  48 H48            7.9648     9.4131    -1.8441 H       
  49 H49           -2.6699     0.2664     0.3932 H       
  50 H50           -4.2015     0.7371     2.2903 H       
  51 H51           -3.4412     2.1897     4.1243 H       
  52 H52            0.2589     2.7397     2.3297 H       
@<TRIPOS>BOND
   1    1    2 2
   2    2    3 1
   3    2   27 1
   4    3    4 2
   5    3    9 1
   6    4    5 1
   7    4    6 1
   8    5   33 1
   9    6    7 2
  10    6    8 am
  11    8    9 1
  12    8   16 1
  13    9   10 1
  14    9   34 1
  15   10   11 ar
  16   10   15 ar
  17   11   12 ar
  18   11   35 1
  19   12   13 ar
  20   12   36 1
  21   13   14 ar
  22   13   37 1
  23   14   15 ar
  24   14   38 1
  25   16   17 1
  26   16   39 1
  27   16   40 1
  28   17   18 1
  29   17   41 1
  30   17   42 1
  31   18   19 2
  32   18   22 1
  33   19   20 1
  34   19   43 1
  35   20   21 1
  36   20   44 1
  37   21   22 ar
  38   21   26 ar
  39   22   23 ar
  40   23   24 ar
  41   23   45 1
  42   24   25 ar
  43   24   46 1
  44   25   26 ar
  45   25   47 1
  46   26   48 1
  47   27   28 ar
  48   27   32 ar
  49   28   29 ar
  50   28   49 1
  51   29   30 ar
  52   29   50 1
  53   30   31 ar
  54   30   51 1
  55   31   32 ar
  56   32   52 1

#	End of record

