#	Name: ASD10420112
#	Creating user name:	WinNT
#	Creation time:	15. 06. 2019 21:27

#	Modifying user name:	WinNT
#	Modification time:	15. 06. 2019 21:27

#	Program:	/corina/corina34_cracker 3.40 0067  02.08.2006

@<TRIPOS>MOLECULE
ASD10420112
  72   77    0    0    0
SMALL
NO_CHARGES


@<TRIPOS>ATOM
   1 N1             0.3325     1.0144    -0.0068 N.pl3   
   2 C2             0.3228    -0.3424    -0.1886 C.2     
   3 C3            -1.0104    -0.7468    -0.3936 C.2     
   4 C4            -1.8048     0.3968    -0.3313 C.2     
   5 C5            -0.9695     1.4756    -0.0873 C.2     
   6 C6             1.5082     1.6721     0.2140 C.2     
   7 C7             2.6795     1.0047     0.2574 C.2     
   8 C8             2.7068    -0.3910     0.0742 C.2     
   9 C9             1.5228    -1.0646    -0.1483 C.2     
  10 C10           -1.3785     2.8232     0.0478 C.2     
  11 O11           -1.5331     3.5151    -0.9431 O.2     
  12 C12           -3.3020     0.4499    -0.4944 C.3     
  13 C13           -3.9624     0.1210     0.8197 C.ar    
  14 C14           -4.4436     1.1366     1.6243 C.ar    
  15 C15           -4.0916    -1.1965     1.2173 C.ar    
  16 C16           -4.6973    -1.4997     2.4226 C.ar    
  17 C17           -5.1745    -0.4858     3.2311 C.ar    
  18 C18           -1.4812    -2.1303    -0.6312 C.ar    
  19 C19           -1.3463    -3.0971     0.3657 C.ar    
  20 C20           -1.7869    -4.3846     0.1381 C.ar    
  21 C21           -2.3610    -4.7179    -1.0758 C.ar    
  22 C22           -2.4975    -3.7638    -2.0684 C.ar    
  23 C23           -2.0666    -2.4713    -1.8508 C.ar    
  24 C24           -4.3084     2.5726     1.1875 C.3     
  25 C25           -5.0502     0.8342     2.8314 C.ar    
  26 F26           -5.5160     1.8264     3.6212 F       
  27 O27            3.8831    -1.0660     0.1168 O.3     
  28 N28           -1.5971     3.3416     1.2725 N.am    
  29 C29           -1.5113     2.4993     2.4751 C.3     
  30 C30           -0.5855     3.1856     3.4850 C.3     
  31 N31           -1.0539     4.5579     3.7200 N.3     
  32 C32           -0.9856     5.3618     2.4924 C.3     
  33 C33           -1.9219     4.7660     1.4423 C.3     
  34 C34           -0.9408     1.1292     2.1033 C.3     
  35 C35           -0.7647     0.3029     3.3512 C.ar    
  36 C36           -1.7558    -0.5776     3.7428 C.ar    
  37 C37           -1.5942    -1.3355     4.8875 C.ar    
  38 C38           -0.4414    -1.2132     5.6404 C.ar    
  39 C39            0.5501    -0.3333     5.2484 C.ar    
  40 C40            0.3904     0.4214     4.1013 C.ar    
  41 H41            1.5004     2.7427     0.3557 H       
  42 H42            3.5994     1.5427     0.4330 H       
  43 H43            1.5215    -2.1351    -0.2910 H       
  44 H44           -3.5978     1.4506    -0.8093 H       
  45 H45           -3.6113    -0.2744    -1.2478 H       
  46 H46           -3.7196    -1.9896     0.5857 H       
  47 H47           -4.7978    -2.5295     2.7322 H       
  48 H48           -5.6482    -0.7230     4.1722 H       
  49 H49           -0.8977    -2.8382     1.3134 H       
  50 H50           -1.6831    -5.1338     0.9090 H       
  51 H51           -2.7037    -5.7273    -1.2493 H       
  52 H52           -2.9465    -4.0302    -3.0138 H       
  53 H53           -2.1737    -1.7274    -2.6264 H       
  54 H54           -5.2296     2.8924     0.7004 H       
  55 H55           -4.1207     3.2011     2.0581 H       
  56 H56           -3.4773     2.6629     0.4881 H       
  57 H57            4.6533    -0.5042     0.2786 H       
  58 H58           -2.5036     2.3801     2.9102 H       
  59 H59           -0.5968     2.6316     4.4237 H       
  60 H60            0.4298     3.2105     3.0892 H       
  61 H61           -1.9875     4.5608     4.1027 H       
  62 H62           -1.2872     6.3862     2.7112 H       
  63 H63            0.0352     5.3565     2.1104 H       
  64 H64           -1.7868     5.2879     0.4949 H       
  65 H65           -2.9544     4.8689     1.7762 H       
  66 H66           -1.6271     0.6217     1.4254 H       
  67 H67            0.0245     1.2582     1.6137 H       
  68 H68           -2.6565    -0.6731     3.1546 H       
  69 H69           -2.3689    -2.0228     5.1938 H       
  70 H70           -0.3155    -1.8048     6.5352 H       
  71 H71            1.4507    -0.2375     5.8368 H       
  72 H72            1.1667     1.1061     3.7929 H       
@<TRIPOS>BOND
   1    1    2 1
   2    1    6 1
   3    1    5 1
   4    2    3 2
   5    2    9 1
   6    3    4 1
   7    3   18 1
   8    4    5 2
   9    4   12 1
  10    5   10 1
  11    6    7 2
  12    6   41 1
  13    7    8 1
  14    7   42 1
  15    8    9 2
  16    8   27 1
  17    9   43 1
  18   10   11 2
  19   10   28 am
  20   12   13 1
  21   12   44 1
  22   12   45 1
  23   13   14 ar
  24   13   15 ar
  25   14   24 1
  26   14   25 ar
  27   15   16 ar
  28   15   46 1
  29   16   17 ar
  30   16   47 1
  31   17   25 ar
  32   17   48 1
  33   18   19 ar
  34   18   23 ar
  35   19   20 ar
  36   19   49 1
  37   20   21 ar
  38   20   50 1
  39   21   22 ar
  40   21   51 1
  41   22   23 ar
  42   22   52 1
  43   23   53 1
  44   24   54 1
  45   24   55 1
  46   24   56 1
  47   25   26 1
  48   27   57 1
  49   28   29 1
  50   28   33 1
  51   29   30 1
  52   29   34 1
  53   29   58 1
  54   30   31 1
  55   30   59 1
  56   30   60 1
  57   31   32 1
  58   31   61 1
  59   32   33 1
  60   32   62 1
  61   32   63 1
  62   33   64 1
  63   33   65 1
  64   34   35 1
  65   34   66 1
  66   34   67 1
  67   35   36 ar
  68   35   40 ar
  69   36   37 ar
  70   36   68 1
  71   37   38 ar
  72   37   69 1
  73   38   39 ar
  74   38   70 1
  75   39   40 ar
  76   39   71 1
  77   40   72 1

#	End of record

