#	Name: ASD11000089
#	Creating user name:	WinNT
#	Creation time:	15. 06. 2019 21:28

#	Modifying user name:	WinNT
#	Modification time:	15. 06. 2019 21:28

#	Program:	/corina/corina34_cracker 3.40 0067  02.08.2006

@<TRIPOS>MOLECULE
ASD11000089
  58   61    0    0    0
SMALL
NO_CHARGES


@<TRIPOS>ATOM
   1 C1            -1.4017     0.0198    -0.5150 C.ar    
   2 C2            -0.9054    -1.2505    -0.2960 C.ar    
   3 C3             0.4629    -1.4755    -0.3285 C.ar    
   4 C4             1.3327    -0.4250    -0.5804 C.ar    
   5 C5             0.8363     0.8453    -0.7993 C.ar    
   6 C6            -0.5320     1.0703    -0.7673 C.ar    
   7 O7            -1.0207     2.3207    -0.9833 O.3     
   8 C8            -2.4400     2.4798    -0.9357 C.3     
   9 O9             0.9515    -2.7261    -0.1129 O.3     
  10 C10            2.3708    -2.8852    -0.1610 C.3     
  11 C11            2.7292    -4.3490     0.1032 C.3     
  12 N12            2.2366    -4.7405     1.4281 N.am    
  13 C13            2.0946    -5.2195    -0.9526 C.ar    
  14 C14            1.3820    -6.3559    -0.6396 C.ar    
  15 C15            2.2497    -4.8417    -2.2796 C.ar    
  16 C16            0.8339    -7.1259    -1.6586 C.ar    
  17 C17            0.9889    -6.7563    -2.9817 C.ar    
  18 C18            1.7002    -5.6021    -3.2957 C.ar    
  19 C19            2.1690    -6.1810     1.7253 C.3     
  20 C20            1.1479    -6.8086     0.7778 C.3     
  21 C21            1.8614    -3.8189     2.3370 C.2     
  22 O22            2.0376    -2.6376     2.1128 O.2     
  23 C23            1.2341    -4.2458     3.6094 C.ar    
  24 C24            1.3562    -3.4704     4.7664 C.ar    
  25 C25            0.4987    -5.4326     3.6852 C.ar    
  26 C26           -0.0692    -5.7927     4.8919 C.ar    
  27 N27            0.0746    -5.0347     5.9607 N.ar    
  28 C28            0.7552    -3.9063     5.9314 C.ar    
  29 O29            1.8550    -5.2252    -4.5932 O.3     
  30 C30            2.5975    -4.0288    -4.8370 C.3     
  31 O31            0.4487    -7.5166    -3.9714 O.3     
  32 C32           -0.2681    -8.6867    -3.5727 C.3     
  33 H33           -2.4674     0.1942    -0.4941 H       
  34 H34           -1.5826    -2.0684    -0.0992 H       
  35 H35            2.3981    -0.6001    -0.6050 H       
  36 H36            1.5136     1.6634    -0.9951 H       
  37 H37           -2.8054     2.1886     0.0491 H       
  38 H38           -2.6953     3.5225    -1.1243 H       
  39 H39           -2.9019     1.8495    -1.6956 H       
  40 H40            2.7359    -2.5938    -1.1459 H       
  41 H41            2.8330    -2.2551     0.5989 H       
  42 H42            3.8120    -4.4692     0.0687 H       
  43 H43            2.8037    -3.9464    -2.5203 H       
  44 H44            0.2820    -8.0216    -1.4146 H       
  45 H45            3.1467    -6.6363     1.5678 H       
  46 H46            1.8540    -6.3300     2.7581 H       
  47 H47            0.1446    -6.5151     1.0867 H       
  48 H48            1.2339    -7.8941     0.8263 H       
  49 H49            1.9124    -2.5447     4.7497 H       
  50 H50            0.3762    -6.0581     2.8133 H       
  51 H51           -0.6391    -6.7076     4.9605 H       
  52 H52            0.8475    -3.3164     6.8314 H       
  53 H53            2.1061    -3.1896    -4.3449 H       
  54 H54            3.6073    -4.1411    -4.4422 H       
  55 H55            2.6455    -3.8434    -5.9101 H       
  56 H56            0.3985    -9.3516    -3.0234 H       
  57 H57           -1.1037    -8.4009    -2.9338 H       
  58 H58           -0.6458    -9.2003    -4.4568 H       
@<TRIPOS>BOND
   1    1    2 ar
   2    1    6 ar
   3    1   33 1
   4    2    3 ar
   5    2   34 1
   6    3    4 ar
   7    3    9 1
   8    4    5 ar
   9    4   35 1
  10    5    6 ar
  11    5   36 1
  12    6    7 1
  13    7    8 1
  14    8   37 1
  15    8   38 1
  16    8   39 1
  17    9   10 1
  18   10   11 1
  19   10   40 1
  20   10   41 1
  21   11   12 1
  22   11   13 1
  23   11   42 1
  24   12   19 1
  25   12   21 am
  26   13   14 ar
  27   13   15 ar
  28   14   16 ar
  29   14   20 1
  30   15   18 ar
  31   15   43 1
  32   16   17 ar
  33   16   44 1
  34   17   18 ar
  35   17   31 1
  36   18   29 1
  37   19   20 1
  38   19   45 1
  39   19   46 1
  40   20   47 1
  41   20   48 1
  42   21   22 2
  43   21   23 1
  44   23   24 ar
  45   23   25 ar
  46   24   28 ar
  47   24   49 1
  48   25   26 ar
  49   25   50 1
  50   26   27 ar
  51   26   51 1
  52   27   28 ar
  53   28   52 1
  54   29   30 1
  55   30   53 1
  56   30   54 1
  57   30   55 1
  58   31   32 1
  59   32   56 1
  60   32   57 1
  61   32   58 1

#	End of record

