#	Name: ASD10160038
#	Creating user name:	WinNT
#	Creation time:	15. 06. 2019 21:25

#	Modifying user name:	WinNT
#	Modification time:	15. 06. 2019 21:25

#	Program:	/corina/corina34_cracker 3.40 0067  02.08.2006

@<TRIPOS>MOLECULE
ASD10160038
  39   41    0    0    0
SMALL
NO_CHARGES


@<TRIPOS>ATOM
   1 C1             0.0728     1.0295    -1.4445 C.ar    
   2 C2             0.0497    -0.1974    -0.7749 C.ar    
   3 C3             1.2899     1.6945    -1.6362 C.ar    
   4 C4             2.4602     1.1359    -1.1635 C.ar    
   5 C5             2.4307    -0.0834    -0.4994 C.ar    
   6 C6             1.2226    -0.7468    -0.3068 C.ar    
   7 C7            -1.1798     1.6185    -1.9527 C.2     
   8 N8            -2.3495     0.9739    -1.7718 N.am    
   9 O9            -1.1574     2.6859    -2.5349 O.2     
  10 S10           -3.7563     1.6354    -2.3425 S.o2    
  11 O11           -4.7618     0.7097    -1.9536 O.2     
  12 O12           -3.7488     2.9638    -1.8381 O.2     
  13 O13            3.5838    -0.6297    -0.0369 O.3     
  14 C14            4.7251     0.0993    -0.1489 C.ar    
  15 C15            5.1013     0.9805     0.8601 C.ar    
  16 C16            5.5346    -0.0287    -1.2683 C.ar    
  17 N17            6.6433     0.6756    -1.3815 N.ar    
  18 C18            7.0265     1.5229    -0.4468 C.ar    
  19 C19            6.2743     1.7020     0.7008 C.ar    
  20 Cl20           1.1941    -2.2704     0.5249 Cl      
  21 F21            1.3188     2.8803    -2.2830 F       
  22 C22            8.3035     2.3024    -0.6282 C.3     
  23 C23            9.6014     1.5066    -0.7800 C.3     
  24 C24            8.9947     2.2189    -1.9906 C.3     
  25 Cl25           6.7901     2.8213     1.9235 Cl      
  26 C26           -3.5565     1.6380    -4.1455 C.3     
  27 H27           -0.8870    -0.7136    -0.6245 H       
  28 H28            3.3999     1.6475    -1.3105 H       
  29 H29           -2.3673     0.1225    -1.3074 H       
  30 H30            4.4943     1.0996     1.7454 H       
  31 H31            5.2537    -0.7129    -2.0553 H       
  32 H32            8.3545     3.2516    -0.0949 H       
  33 H33           10.5065     1.9326    -0.3469 H       
  34 H34            9.5317     0.4193    -0.7487 H       
  35 H35            8.5259     1.6001    -2.7557 H       
  36 H36            9.5006     3.1134    -2.3539 H       
  37 H37           -3.4155     0.6159    -4.4969 H       
  38 H38           -4.4472     2.0621    -4.6092 H       
  39 H39           -2.6867     2.2377    -4.4138 H       
@<TRIPOS>BOND
   1    1    2 ar
   2    1    3 ar
   3    1    7 1
   4    2    6 ar
   5    2   27 1
   6    3    4 ar
   7    3   21 1
   8    4    5 ar
   9    4   28 1
  10    5    6 ar
  11    5   13 1
  12    6   20 1
  13    7    8 am
  14    7    9 2
  15    8   10 am
  16    8   29 1
  17   10   11 2
  18   10   12 2
  19   10   26 1
  20   13   14 1
  21   14   15 ar
  22   14   16 ar
  23   15   19 ar
  24   15   30 1
  25   16   17 ar
  26   16   31 1
  27   17   18 ar
  28   18   19 ar
  29   18   22 1
  30   19   25 1
  31   22   23 1
  32   22   24 1
  33   22   32 1
  34   23   24 1
  35   23   33 1
  36   23   34 1
  37   24   35 1
  38   24   36 1
  39   26   37 1
  40   26   38 1
  41   26   39 1

#	End of record

