#	Name: ASD10420065
#	Creating user name:	WinNT
#	Creation time:	15. 06. 2019 21:27

#	Modifying user name:	WinNT
#	Modification time:	15. 06. 2019 21:27

#	Program:	/corina/corina34_cracker 3.40 0067  02.08.2006

@<TRIPOS>MOLECULE
ASD10420065
  45   47    0    0    0
SMALL
NO_CHARGES


@<TRIPOS>ATOM
   1 N1            -0.0166     1.3727     0.0096 N.pl3   
   2 C2             0.0021    -0.0041     0.0020 C.2     
   3 C3             1.3364    -0.4004    -0.0129 C.2     
   4 C4             2.1092     0.7776    -0.0139 C.2     
   5 C5             1.2603     1.8292    -0.0002 C.2     
   6 C6            -1.1636    -0.8863     0.0088 C.2     
   7 O7            -1.0129    -2.0935     0.0013 O.2     
   8 O8            -2.4068    -0.3616     0.0235 O.3     
   9 C9             1.8454    -1.7918    -0.0252 C.ar    
  10 C10            1.5972    -2.6183    -1.1206 C.ar    
  11 C11            2.0738    -3.9133    -1.1263 C.ar    
  12 C12            2.7961    -4.3922    -0.0480 C.ar    
  13 C13            3.0452    -3.5771     1.0418 C.ar    
  14 C14            2.5795    -2.2783     1.0561 C.ar    
  15 C15            3.6143     0.8519    -0.0271 C.3     
  16 C16            4.1094     0.7601    -1.4475 C.ar    
  17 C17            4.1784     1.8974    -2.2299 C.ar    
  18 C18            4.6337     1.8129    -3.5346 C.ar    
  19 C19            5.0193     0.5886    -4.0542 C.ar    
  20 C20            4.9494    -0.5471    -3.2702 C.ar    
  21 C21            4.4995    -0.4605    -1.9656 C.ar    
  22 C22            3.7579     3.2290    -1.6631 C.3     
  23 F23            4.7012     2.9238    -4.3004 F       
  24 C24           -3.4995    -1.2824     0.0294 C.3     
  25 C25           -4.8189    -0.5080     0.0460 C.3     
  26 H26           -0.8133     1.9259     0.0165 H       
  27 H27            1.5527     2.8689     0.0021 H       
  28 H28            1.0329    -2.2458    -1.9627 H       
  29 H29            1.8823    -4.5543    -1.9741 H       
  30 H30            3.1668    -5.4065    -0.0568 H       
  31 H31            3.6093    -3.9567     1.8809 H       
  32 H32            2.7789    -1.6413     1.9052 H       
  33 H33            3.9353     1.7979     0.4091 H       
  34 H34            4.0240     0.0261     0.5545 H       
  35 H35            5.3743     0.5214    -5.0720 H       
  36 H36            5.2501    -1.5020    -3.6753 H       
  37 H37            4.4495    -1.3480    -1.3521 H       
  38 H38            4.6174     3.7151    -1.2015 H       
  39 H39            3.3709     3.8589    -2.4640 H       
  40 H40            2.9813     3.0759    -0.9138 H       
  41 H41           -3.4549    -1.9050    -0.8642 H       
  42 H42           -3.4377    -1.9139     0.9157 H       
  43 H43           -5.6525    -1.2104     0.0505 H       
  44 H44           -4.8636     0.1146     0.9396 H       
  45 H45           -4.8808     0.1235    -0.8402 H       
@<TRIPOS>BOND
   1    1    2 1
   2    1    5 1
   3    1   26 1
   4    2    3 2
   5    2    6 1
   6    3    4 1
   7    3    9 1
   8    4    5 2
   9    4   15 1
  10    5   27 1
  11    6    7 2
  12    6    8 1
  13    8   24 1
  14    9   10 ar
  15    9   14 ar
  16   10   11 ar
  17   10   28 1
  18   11   12 ar
  19   11   29 1
  20   12   13 ar
  21   12   30 1
  22   13   14 ar
  23   13   31 1
  24   14   32 1
  25   15   16 1
  26   15   33 1
  27   15   34 1
  28   16   17 ar
  29   16   21 ar
  30   17   18 ar
  31   17   22 1
  32   18   19 ar
  33   18   23 1
  34   19   20 ar
  35   19   35 1
  36   20   21 ar
  37   20   36 1
  38   21   37 1
  39   22   38 1
  40   22   39 1
  41   22   40 1
  42   24   25 1
  43   24   41 1
  44   24   42 1
  45   25   43 1
  46   25   44 1
  47   25   45 1

#	End of record

