#	Name: ASD14740009
#	Creating user name:	WinNT
#	Creation time:	15. 06. 2019 21:31

#	Modifying user name:	WinNT
#	Modification time:	15. 06. 2019 21:31

#	Program:	/corina/corina34_cracker 3.40 0067  02.08.2006

@<TRIPOS>MOLECULE
ASD14740009
  66   70    0    0    0
SMALL
NO_CHARGES


@<TRIPOS>ATOM
   1 S1             0.3035     1.4145    -0.0536 S.o2    
   2 F2           -11.1147   -10.2980   -13.1938 F       
   3 O3            -0.3696     4.1290    -4.3238 O.3     
   4 O4            -9.2883    -5.0232   -11.5145 O.2     
   5 O5             0.1645     0.0133     0.1374 O.2     
   6 O6             1.5855     2.0109    -0.1953 O.2     
   7 N7            -4.6901     0.4691    -7.0619 N.pl3   
   8 N8            -9.6670    -2.8948   -12.0135 N.am    
   9 N9            -2.3821     2.4494    -5.2409 N.pl3   
  10 N10           -3.8705     1.5997    -6.9330 N.2     
  11 N11           -3.6776     0.4093    -5.1388 N.2     
  12 C12          -10.8867    -4.6791   -13.2165 C.3     
  13 C13           -6.2139    -1.1291    -7.9005 C.2     
  14 C14          -10.9478    -6.1849   -13.2104 C.ar    
  15 C15           -7.1202    -1.5925    -8.9803 C.ar    
  16 C16           -9.8899    -4.2127   -12.1870 C.2     
  17 C17           -4.5366    -0.2498    -5.9106 C.2     
  18 C18           -8.8127    -2.4581   -10.9957 C.ar    
  19 C19           -5.5208     0.0366    -8.0444 C.2     
  20 C20          -12.2678    -4.1114   -12.8830 C.3     
  21 C21           -1.7473     2.2060    -4.0169 C.ar    
  22 C22           -6.0705    -1.8931    -6.7219 C.2     
  23 C23           -0.4924     1.7241    -1.5948 C.ar    
  24 C24           -6.8385    -2.7702    -9.6704 C.ar    
  25 C25           -8.2574    -0.8536    -9.3020 C.ar    
  26 C26           -3.2811     1.5181    -5.7569 C.2     
  27 C27           -5.2410    -1.4555    -5.7369 C.2     
  28 C28           -7.6823    -3.1991   -10.6731 C.ar    
  29 C29           -9.0983    -1.2863   -10.3054 C.ar    
  30 C30           -0.7397     3.0586    -3.5709 C.ar    
  31 C31          -10.6351    -6.8935   -14.3555 C.ar    
  32 C32          -11.3110    -6.8568   -12.0581 C.ar    
  33 C33           -0.1154     2.8131    -2.3590 C.ar    
  34 C34           -2.1238     1.1183    -3.2422 C.ar    
  35 C35           -1.4960     0.8805    -2.0342 C.ar    
  36 C36          -10.6908    -8.2743   -14.3511 C.ar    
  37 C37          -11.3669    -8.2376   -12.0512 C.ar    
  38 C38           -0.6911     2.3242     1.1603 C.3     
  39 C39          -11.0595    -8.9481   -13.1991 C.ar    
  40 C40            0.6704     4.9595    -3.8036 C.3     
  41 H41          -10.5797    -4.3319   -14.2030 H       
  42 H42           -5.6339     0.6199    -8.9463 H       
  43 H43          -12.5749    -4.4586   -11.8965 H       
  44 H44          -12.2236    -3.0223   -12.8874 H       
  45 H45          -12.9888    -4.4488   -13.6277 H       
  46 H46          -10.0989    -2.2493   -12.5945 H       
  47 H47           -6.6184    -2.8160    -6.6017 H       
  48 H48           -5.9599    -3.3463    -9.4203 H       
  49 H49           -8.4800     0.0569    -8.7655 H       
  50 H50           -5.1237    -2.0288    -4.8291 H       
  51 H51           -7.4624    -4.1096   -11.2107 H       
  52 H52           -9.9774    -0.7120   -10.5578 H       
  53 H53           -2.1962     3.2664    -5.7296 H       
  54 H54            0.6657     3.4725    -2.0107 H       
  55 H55          -10.3476    -6.3677   -15.2540 H       
  56 H56          -11.5507    -6.3024   -11.1628 H       
  57 H57           -2.9076     0.4580    -3.5828 H       
  58 H58           -1.7870     0.0312    -1.4338 H       
  59 H59          -10.4471    -8.8276   -15.2460 H       
  60 H60          -11.6510    -8.7623   -11.1509 H       
  61 H61           -0.2657     2.1872     2.1545 H       
  62 H62           -0.6914     3.3847     0.9083 H       
  63 H63           -1.7138     1.9474     1.1477 H       
  64 H64            0.3609     5.3704    -2.8426 H       
  65 H65            1.5761     4.3676    -3.6710 H       
  66 H66            0.8677     5.7742    -4.5004 H       
@<TRIPOS>BOND
   1    1    5 2
   2    1    6 2
   3    1   23 1
   4    1   38 1
   5    2   39 1
   6    3   30 1
   7    3   40 1
   8    4   16 2
   9    7   10 1
  10    7   17 1
  11    7   19 1
  12    8   16 am
  13    8   18 1
  14    8   46 1
  15    9   21 1
  16    9   26 1
  17    9   53 1
  18   10   26 2
  19   11   17 2
  20   11   26 1
  21   12   14 1
  22   12   16 1
  23   12   20 1
  24   12   41 1
  25   13   15 1
  26   13   19 2
  27   13   22 1
  28   14   31 ar
  29   14   32 ar
  30   15   24 ar
  31   15   25 ar
  32   17   27 1
  33   18   28 ar
  34   18   29 ar
  35   19   42 1
  36   20   43 1
  37   20   44 1
  38   20   45 1
  39   21   30 ar
  40   21   34 ar
  41   22   27 2
  42   22   47 1
  43   23   33 ar
  44   23   35 ar
  45   24   28 ar
  46   24   48 1
  47   25   29 ar
  48   25   49 1
  49   27   50 1
  50   28   51 1
  51   29   52 1
  52   30   33 ar
  53   31   36 ar
  54   31   55 1
  55   32   37 ar
  56   32   56 1
  57   33   54 1
  58   34   35 ar
  59   34   57 1
  60   35   58 1
  61   36   39 ar
  62   36   59 1
  63   37   39 ar
  64   37   60 1
  65   38   61 1
  66   38   62 1
  67   38   63 1
  68   40   64 1
  69   40   65 1
  70   40   66 1

#	End of record

