#	Name: ASD13490010
#	Creating user name:	WinNT
#	Creation time:	15. 06. 2019 21:30

#	Modifying user name:	WinNT
#	Modification time:	15. 06. 2019 21:30

#	Program:	/corina/corina34_cracker 3.40 0067  02.08.2006

@<TRIPOS>MOLECULE
ASD13490010
  58   62    0    0    0
SMALL
NO_CHARGES


@<TRIPOS>ATOM
   1 C1            -0.0162     1.3426     0.0094 C.2     
   2 C2             0.0021    -0.0041     0.0020 C.2     
   3 N3             1.2817    -0.4053    -0.0124 N.2     
   4 C4             2.0628     0.6407    -0.0142 C.2     
   5 N5             1.2902     1.7575    -0.0008 N.pl3   
   6 C6             1.7434     3.0846     0.0020 C.ar    
   7 C7             1.2318     4.0043    -0.9076 C.ar    
   8 C8             1.7058     5.3040    -0.8717 C.ar    
   9 C9             2.6763     5.6498     0.0702 C.ar    
  10 N10            3.1446     4.7446     0.9266 N.ar    
  11 C11            2.7090     3.4989     0.9217 C.ar    
  12 C12            3.1877     7.0299     0.1166 C.2     
  13 O13            3.2092     2.6095     1.8162 O.3     
  14 C14            4.1943     3.0938     2.7311 C.3     
  15 C15           -1.2064    -0.9044     0.0092 C.3     
  16 C16            4.1216     7.3701     1.0201 C.2     
  17 C17            4.6334     8.7514     1.0665 C.2     
  18 N18            5.5635     9.2145     1.9197 N.2     
  19 C19            5.7827    10.4761     1.6873 C.2     
  20 N20            4.9911    10.8626     0.6657 N.pl3   
  21 N21            4.2588     9.7385     0.2732 N.2     
  22 C22            6.7426    11.3940     2.4054 C.3     
  23 C23            6.3679    12.8418     2.0635 C.3     
  24 C24            6.1989    12.9751     0.5471 C.3     
  25 C25            4.9473    12.2121     0.1015 C.3     
  26 C26            6.6351    11.1787     3.8931 C.ar    
  27 C27            5.4303    11.3915     4.5371 C.ar    
  28 C28            5.3317    11.1941     5.9015 C.ar    
  29 C29            6.4378    10.7835     6.6223 C.ar    
  30 C30            7.6420    10.5700     5.9783 C.ar    
  31 C31            7.7395    10.7632     4.6128 C.ar    
  32 C32            9.0511    10.5254     3.9099 C.3     
  33 F33           10.0112    10.1141     4.8407 F       
  34 F34            8.8865     9.5312     2.9394 F       
  35 F35            9.4733    11.7100     3.2970 F       
  36 H36           -0.8921     1.9744     0.0172 H       
  37 H37            3.1426     0.6212    -0.0243 H       
  38 H38            0.4814     3.7103    -1.6265 H       
  39 H39            1.3294     6.0420    -1.5645 H       
  40 H40            2.8118     7.7686    -0.5759 H       
  41 H41            5.0550     3.4656     2.1751 H       
  42 H42            3.7704     3.9018     3.3273 H       
  43 H43            4.5090     2.2835     3.3888 H       
  44 H44           -1.5080    -1.1159    -1.0167 H       
  45 H45           -0.9610    -1.8379     0.5156 H       
  46 H46           -2.0243    -0.4105     0.5338 H       
  47 H47            4.4974     6.6314     1.7125 H       
  48 H48            7.7617    11.1904     2.0765 H       
  49 H49            5.4321    13.1021     2.5583 H       
  50 H50            7.1581    13.5119     2.4021 H       
  51 H51            6.0961    14.0279     0.2842 H       
  52 H52            7.0732    12.5594     0.0463 H       
  53 H53            4.9274    12.1528    -0.9867 H       
  54 H54            4.0557    12.7283     0.4577 H       
  55 H55            4.5663    11.7122     3.9740 H       
  56 H56            4.3908    11.3610     6.4047 H       
  57 H57            6.3610    10.6300     7.6885 H       
  58 H58            8.5061    10.2496     6.5414 H       
@<TRIPOS>BOND
   1    1    2 2
   2    1    5 1
   3    1   36 1
   4    2    3 1
   5    2   15 1
   6    3    4 2
   7    4    5 1
   8    4   37 1
   9    5    6 1
  10    6    7 ar
  11    6   11 ar
  12    7    8 ar
  13    7   38 1
  14    8    9 ar
  15    8   39 1
  16    9   10 ar
  17    9   12 1
  18   10   11 ar
  19   11   13 1
  20   12   16 2
  21   12   40 1
  22   13   14 1
  23   14   41 1
  24   14   42 1
  25   14   43 1
  26   15   44 1
  27   15   45 1
  28   15   46 1
  29   16   17 1
  30   16   47 1
  31   17   18 1
  32   17   21 2
  33   18   19 2
  34   19   22 1
  35   19   20 1
  36   20   21 1
  37   20   25 1
  38   22   23 1
  39   22   26 1
  40   22   48 1
  41   23   24 1
  42   23   49 1
  43   23   50 1
  44   24   25 1
  45   24   51 1
  46   24   52 1
  47   25   53 1
  48   25   54 1
  49   26   27 ar
  50   26   31 ar
  51   27   28 ar
  52   27   55 1
  53   28   29 ar
  54   28   56 1
  55   29   30 ar
  56   29   57 1
  57   30   31 ar
  58   30   58 1
  59   31   32 1
  60   32   33 1
  61   32   34 1
  62   32   35 1

#	End of record

