#	Name: ASD10220011
#	Creating user name:	WinNT
#	Creation time:	15. 06. 2019 21:26

#	Modifying user name:	WinNT
#	Modification time:	15. 06. 2019 21:26

#	Program:	/corina/corina34_cracker 3.40 0067  02.08.2006

@<TRIPOS>MOLECULE
ASD10220011
  31   33    0    0    0
SMALL
NO_CHARGES


@<TRIPOS>ATOM
   1 C1            -0.0066     1.4601    -0.1674 C.2     
   2 C2             0.0231     0.0531    -0.3111 C.2     
   3 C3            -1.1152    -0.6747    -0.3649 C.2     
   4 C4            -2.4372    -0.0551    -0.2787 C.2     
   5 C5            -2.5501     1.3189    -0.1369 C.2     
   6 C6            -1.3371     2.1492    -0.0677 C.2     
   7 O7            -3.6815    -0.5688    -0.3093 O.3     
   8 C8            -4.6060     0.3870    -0.1958 C.2     
   9 C9            -3.9878     1.6039    -0.0828 C.2     
  10 O10           -1.4099     3.3536     0.0562 O.2     
  11 O11            1.0259     2.0990    -0.1204 O.2     
  12 Cl12           1.5546    -0.7569    -0.4214 Cl      
  13 C13           -4.6313     2.9215     0.0630 C.2     
  14 O14           -3.9527     3.9110     0.2631 O.2     
  15 C15           -6.0989     3.0405    -0.0337 C.ar    
  16 C16           -6.7673     4.0539     0.6600 C.ar    
  17 C17           -8.1366     4.1614     0.5670 C.ar    
  18 Cl18          -1.0039    -2.3980    -0.5422 Cl      
  19 C19           -8.8548     3.2640    -0.2153 C.ar    
  20 C20           -8.1941     2.2546    -0.9064 C.ar    
  21 C21           -6.8244     2.1438    -0.8239 C.ar    
  22 O22          -10.2044     3.3735    -0.3043 O.3     
  23 C23          -10.8800     2.4187    -1.1253 C.3     
  24 H24           -5.6740     0.2262    -0.1941 H       
  25 H25           -6.2102     4.7511     1.2682 H       
  26 H26           -8.6537     4.9436     1.1028 H       
  27 H27           -8.7558     1.5594    -1.5128 H       
  28 H28           -6.3120     1.3594    -1.3611 H       
  29 H29          -10.5120     2.4944    -2.1485 H       
  30 H30          -10.6921     1.4147    -0.7448 H       
  31 H31          -11.9514     2.6189    -1.1088 H       
@<TRIPOS>BOND
   1    1    2 1
   2    1   11 2
   3    1    6 1
   4    2    3 2
   5    2   12 1
   6    3    4 1
   7    3   18 1
   8    4    5 2
   9    4    7 1
  10    5    6 1
  11    5    9 1
  12    6   10 2
  13    7    8 1
  14    8    9 2
  15    8   24 1
  16    9   13 1
  17   13   14 2
  18   13   15 1
  19   15   16 ar
  20   15   21 ar
  21   16   17 ar
  22   16   25 1
  23   17   19 ar
  24   17   26 1
  25   19   20 ar
  26   19   22 1
  27   20   21 ar
  28   20   27 1
  29   21   28 1
  30   22   23 1
  31   23   29 1
  32   23   30 1
  33   23   31 1

#	End of record

