#	Name: ASD10370001
#	Creating user name:	WinNT
#	Creation time:	15. 06. 2019 21:26

#	Modifying user name:	WinNT
#	Modification time:	15. 06. 2019 21:26

#	Program:	/corina/corina34_cracker 3.40 0067  02.08.2006

@<TRIPOS>MOLECULE
ASD10370001
  43   45    0    0    0
SMALL
NO_CHARGES


@<TRIPOS>ATOM
   1 C1            -0.0188     1.3882     0.0156 C.ar    
   2 C2            -0.0040    -0.0006     0.0121 C.ar    
   3 C3            -1.1934    -0.7024     0.0259 C.ar    
   4 C4            -2.3981    -0.0238     0.0432 C.ar    
   5 C5            -2.4164     1.3589     0.0467 C.ar    
   6 C6            -1.2305     2.0667     0.0383 C.ar    
   7 C7            -3.6941    -0.7929     0.0578 C.3     
   8 N8            -4.0973    -1.0465     1.4474 N.4     
   9 C9            -5.4138    -1.6876     1.4566 C.3     
  10 C10           -4.1252     0.2216     2.1790 C.3     
  11 C11           -4.2070    -0.0458     3.6852 C.3     
  12 S12           -5.7758    -0.8945     4.0396 S.o2    
  13 C13           -5.7044    -2.2644     2.8457 C.3     
  14 O14           -5.7168    -1.4316     5.3538 O.2     
  15 O15           -6.8498    -0.0349     3.6835 O.2     
  16 N16            1.1837     2.1018     0.0020 N.am    
  17 C17            1.2656     3.2718    -0.6620 C.2     
  18 O18            0.3254     3.6595    -1.3292 O.2     
  19 C19            2.4923     4.0801    -0.5798 C.2     
  20 C20            2.7644     5.2944    -1.1824 C.2     
  21 N21            3.9668     5.7289    -0.8862 N.2     
  22 N22            4.7227     5.0433    -0.1247 N.2     
  23 S23            3.9801     3.7388     0.3227 S.3     
  24 C24            1.7966     6.0304    -2.0729 C.3     
  25 H25            0.9366    -0.5312    -0.0018 H       
  26 H26           -1.1825    -1.7824     0.0229 H       
  27 H27           -3.3590     1.8859     0.0603 H       
  28 H28           -1.2455     3.1466     0.0414 H       
  29 H29           -4.4672    -0.2116    -0.4445 H       
  30 H30           -3.5590    -1.7423    -0.4603 H       
  31 H31           -3.4257    -1.6629     1.8799 H       
  32 H32           -6.1767    -0.9513     1.2036 H       
  33 H33           -5.4302    -2.4912     0.7204 H       
  34 H34           -3.2185     0.7856     1.9603 H       
  35 H35           -4.9942     0.8007     1.8665 H       
  36 H36           -3.3724    -0.6769     3.9906 H       
  37 H37           -4.1718     0.8993     4.2271 H       
  38 H38           -6.6604    -2.7878     2.8319 H       
  39 H39           -4.9102    -2.9552     3.1285 H       
  40 H40            1.9589     1.7548     0.4706 H       
  41 H41            1.1837     6.6993    -1.4687 H       
  42 H42            2.3509     6.6117    -2.8097 H       
  43 H43            1.1554     5.3124    -2.5842 H       
@<TRIPOS>BOND
   1    1    2 ar
   2    1   16 1
   3    1    6 ar
   4    2    3 ar
   5    2   25 1
   6    3    4 ar
   7    3   26 1
   8    4    5 ar
   9    4    7 1
  10    5    6 ar
  11    5   27 1
  12    6   28 1
  13    7    8 1
  14    7   29 1
  15    7   30 1
  16    8    9 1
  17    8   10 1
  18    8   31 1
  19    9   13 1
  20    9   32 1
  21    9   33 1
  22   10   11 1
  23   10   34 1
  24   10   35 1
  25   11   12 1
  26   11   36 1
  27   11   37 1
  28   12   13 1
  29   12   14 2
  30   12   15 2
  31   13   38 1
  32   13   39 1
  33   16   17 am
  34   16   40 1
  35   17   18 2
  36   17   19 1
  37   19   20 2
  38   19   23 1
  39   20   21 1
  40   20   24 1
  41   21   22 2
  42   22   23 1
  43   24   41 1
  44   24   42 1
  45   24   43 1

#	End of record

