#	Name: ASD10420045
#	Creating user name:	WinNT
#	Creation time:	15. 06. 2019 21:27

#	Modifying user name:	WinNT
#	Modification time:	15. 06. 2019 21:27

#	Program:	/corina/corina34_cracker 3.40 0067  02.08.2006

@<TRIPOS>MOLECULE
ASD10420045
  31   32    0    0    0
SMALL
NO_CHARGES


@<TRIPOS>ATOM
   1 C1            -0.0187     1.5258     0.0104 C.3     
   2 C2             0.0021    -0.0041     0.0020 C.3     
   3 C3             0.7074    -0.4901    -1.2379 C.ar    
   4 C4             0.0346    -1.2896    -2.1447 C.ar    
   5 C5             0.6741    -1.7378    -3.2824 C.ar    
   6 C6             2.0011    -1.3842    -3.5183 C.ar    
   7 C7             2.6935    -1.8629    -4.7400 C.ar    
   8 C8             3.3817    -0.9632    -5.5517 C.ar    
   9 C9             4.0245    -1.4140    -6.6868 C.ar    
  10 C10            3.9864    -2.7562    -7.0193 C.ar    
  11 C11            3.3048    -3.6536    -6.2172 C.ar    
  12 C12            2.6629    -3.2146    -5.0770 C.ar    
  13 C13            2.6759    -0.5777    -2.6011 C.ar    
  14 F14            3.9624    -0.2301    -2.8229 F       
  15 C15            2.0225    -0.1305    -1.4674 C.ar    
  16 C16            0.7309    -0.5033     1.2229 C.2     
  17 O17            0.2797    -0.1918     2.4481 O.3     
  18 O18            1.7215    -1.1839     1.0989 O.2     
  19 H19            1.0039     1.9031     0.0027 H       
  20 H20           -0.5459     1.8868    -0.8726 H       
  21 H21           -0.5289     1.8773     0.9072 H       
  22 H22           -1.0205    -0.3814     0.0098 H       
  23 H23           -0.9939    -1.5638    -1.9615 H       
  24 H24            0.1471    -2.3621    -3.9887 H       
  25 H25            3.4117     0.0850    -5.2932 H       
  26 H26            4.5578    -0.7176    -7.3167 H       
  27 H27            4.4905    -3.1046    -7.9086 H       
  28 H28            3.2783    -4.7005    -6.4815 H       
  29 H29            2.1345    -3.9169    -4.4492 H       
  30 H30            2.5415     0.4974    -0.7583 H       
  31 H31            0.7805    -0.5350     3.2008 H       
@<TRIPOS>BOND
   1    1    2 1
   2    1   19 1
   3    1   20 1
   4    1   21 1
   5    2    3 1
   6    2   16 1
   7    2   22 1
   8    3    4 ar
   9    3   15 ar
  10    4    5 ar
  11    4   23 1
  12    5    6 ar
  13    5   24 1
  14    6    7 1
  15    6   13 ar
  16    7    8 ar
  17    7   12 ar
  18    8    9 ar
  19    8   25 1
  20    9   10 ar
  21    9   26 1
  22   10   11 ar
  23   10   27 1
  24   11   12 ar
  25   11   28 1
  26   12   29 1
  27   13   14 1
  28   13   15 ar
  29   15   30 1
  30   16   17 1
  31   16   18 2
  32   17   31 1

#	End of record

