#	Name: ASD13010014
#	Creating user name:	WinNT
#	Creation time:	15. 06. 2019 21:30

#	Modifying user name:	WinNT
#	Modification time:	15. 06. 2019 21:30

#	Program:	/corina/corina34_cracker 3.40 0067  02.08.2006

@<TRIPOS>MOLECULE
ASD13010014
  55   58    0    0    0
SMALL
NO_CHARGES


@<TRIPOS>ATOM
   1 C1            -0.0073     1.3624     0.0129 C.ar    
   2 C2             0.0063    -0.0002    -0.0023 C.ar    
   3 C3             1.2203    -0.7028    -0.0094 C.ar    
   4 C4             2.4272    -0.0113    -0.0006 C.ar    
   5 C5             1.1908     2.0754     0.0216 C.ar    
   6 N6             1.4927     3.4132     0.0364 N.pl3   
   7 C7             2.4178     1.3815     0.0150 C.ar    
   8 C8             3.4682     2.4043     0.0266 C.2     
   9 N9             2.8817     3.5730     0.0387 N.2     
  10 C10            0.5614     4.4502     0.0468 C.ar    
  11 S11            5.2057     2.1118     0.0252 S.3     
  12 C12            5.8816     3.7390     0.0428 C.ar    
  13 C13            6.1446     4.3969    -1.1527 C.ar    
  14 C14            6.1476     4.3697     1.2523 C.ar    
  15 C15            6.6773     5.6448     1.2622 C.ar    
  16 C16            6.9431     6.2943     0.0704 C.ar    
  17 C17            6.6743     5.6720    -1.1351 C.ar    
  18 C18            5.8525     3.7195    -2.4668 C.3     
  19 C19           -1.2903     6.5121     0.0677 C.ar    
  20 C20           -1.5615     5.3337    -0.6347 C.ar    
  21 C21           -0.6397     4.3118    -0.6429 C.ar    
  22 C22            0.8322     5.6195     0.7517 C.ar    
  23 C23           -0.0851     6.6454     0.7642 C.ar    
  24 C24           -2.2754     7.6090     0.0788 C.2     
  25 O25           -3.3243     7.4898    -0.5229 O.2     
  26 O26           -2.0125     8.7439     0.7561 O.3     
  27 C27            5.8579     3.6630     2.5514 C.3     
  28 C28            1.2171    -2.1791    -0.0259 C.2     
  29 O29            0.3537    -2.7918     0.5718 O.2     
  30 N30            2.1713    -2.8475    -0.7036 N.am    
  31 C31            2.2435    -4.3082    -0.6179 C.3     
  32 C32            3.1362    -2.1134    -1.5258 C.3     
  33 H33           -0.9488     1.8915     0.0137 H       
  34 H34           -0.9266    -0.5443    -0.0086 H       
  35 H35            3.3635    -0.5496    -0.0053 H       
  36 H36            6.8840     6.1357     2.2018 H       
  37 H37            7.3571     7.2918     0.0812 H       
  38 H38            6.8793     6.1837    -2.0638 H       
  39 H39            4.8329     3.9500    -2.7757 H       
  40 H40            6.5510     4.0773    -3.2232 H       
  41 H41            5.9624     2.6411    -2.3520 H       
  42 H42           -2.4913     5.2275    -1.1736 H       
  43 H43           -0.8484     3.4016    -1.1855 H       
  44 H44            1.7630     5.7217     1.2898 H       
  45 H45            0.1276     7.5543     1.3074 H       
  46 H46           -2.6886     9.4349     0.7342 H       
  47 H47            6.7370     3.0981     2.8616 H       
  48 H48            5.6094     4.3978     3.3172 H       
  49 H49            5.0179     2.9819     2.4150 H       
  50 H50            1.6321    -4.7490    -1.4053 H       
  51 H51            3.2783    -4.6286    -0.7390 H       
  52 H52            1.8738    -4.6339     0.3545 H       
  53 H53            3.9658    -1.7802    -0.9022 H       
  54 H54            3.5130    -2.7658    -2.3135 H       
  55 H55            2.6479    -1.2479    -1.9736 H       
@<TRIPOS>BOND
   1    1    2 ar
   2    1    5 ar
   3    1   33 1
   4    2    3 ar
   5    2   34 1
   6    3    4 ar
   7    3   28 1
   8    4    7 ar
   9    4   35 1
  10    5    7 ar
  11    5    6 1
  12    6    9 1
  13    6   10 1
  14    7    8 1
  15    8    9 2
  16    8   11 1
  17   10   22 ar
  18   10   21 ar
  19   11   12 1
  20   12   14 ar
  21   12   13 ar
  22   13   17 ar
  23   13   18 1
  24   14   15 ar
  25   14   27 1
  26   15   16 ar
  27   15   36 1
  28   16   17 ar
  29   16   37 1
  30   17   38 1
  31   18   39 1
  32   18   40 1
  33   18   41 1
  34   19   20 ar
  35   19   23 ar
  36   19   24 1
  37   20   21 ar
  38   20   42 1
  39   21   43 1
  40   22   23 ar
  41   22   44 1
  42   23   45 1
  43   24   25 2
  44   24   26 1
  45   26   46 1
  46   27   47 1
  47   27   48 1
  48   27   49 1
  49   28   29 2
  50   28   30 am
  51   30   31 1
  52   30   32 1
  53   31   50 1
  54   31   51 1
  55   31   52 1
  56   32   53 1
  57   32   54 1
  58   32   55 1

#	End of record

