#	Name: ASD10160162
#	Creating user name:	WinNT
#	Creation time:	15. 06. 2019 21:25

#	Modifying user name:	WinNT
#	Modification time:	15. 06. 2019 21:25

#	Program:	/corina/corina34_cracker 3.40 0067  02.08.2006

@<TRIPOS>MOLECULE
ASD10160162
  40   41    0    0    0
SMALL
NO_CHARGES


@<TRIPOS>ATOM
   1 C1            -0.3073     1.1746    -1.9275 C.2     
   2 C2            -0.1985    -0.2023    -1.4115 C.ar    
   3 C3             0.9726    -0.9401    -1.6209 C.ar    
   4 C4             1.0695    -2.2288    -1.1358 C.ar    
   5 C5             0.0076    -2.7931    -0.4418 C.ar    
   6 C6            -1.1592    -2.0624    -0.2314 C.ar    
   7 C7            -1.2626    -0.7731    -0.7065 C.ar    
   8 O8             0.6212     1.6709    -2.5361 O.2     
   9 N9            -1.4378     1.8811    -1.7296 N.am    
  10 S10           -1.5599     3.4276    -2.3091 S.o2    
  11 O11           -2.8513     3.8549    -1.8979 O.2     
  12 O12           -0.3879     4.0741    -1.8322 O.2     
  13 C13           -1.4953     3.2415    -4.1124 C.3     
  14 F14           -2.1892    -2.6166     0.4446 F       
  15 F15            2.0059    -0.3920    -2.2969 F       
  16 O16            0.1067    -4.0609     0.0327 O.3     
  17 C17            1.5560    -5.4771    -1.2195 C.ar    
  18 C18            1.2989    -4.7012    -0.1011 C.ar    
  19 C19            2.2759    -4.5842     0.8844 C.ar    
  20 C20            3.4747    -5.2526     0.7070 C.ar    
  21 C21            3.6622    -6.0141    -0.4427 C.ar    
  22 N22            2.7105    -6.1014    -1.3580 N.ar    
  23 N23            4.8647    -6.6913    -0.6322 N.3     
  24 C24            4.6526    -8.1448    -0.6533 C.3     
  25 C25            5.5359    -6.2394    -1.8582 C.3     
  26 Cl26           4.7284    -5.1421     1.9027 Cl      
  27 H27            1.9725    -2.7991    -1.2967 H       
  28 H28           -2.1662    -0.2057    -0.5385 H       
  29 H29           -2.1799     1.4838    -1.2476 H       
  30 H30           -2.3246     2.6163    -4.4432 H       
  31 H31           -1.5701     4.2225    -4.5818 H       
  32 H32           -0.5523     2.7740    -4.3959 H       
  33 H33            0.8009    -5.5757    -1.9854 H       
  34 H34            2.1022    -3.9855     1.7664 H       
  35 H35            3.9750    -8.4013    -1.4676 H       
  36 H36            5.6074    -8.6491    -0.8026 H       
  37 H37            4.2183    -8.4624     0.2946 H       
  38 H38            5.8046    -5.1877    -1.7588 H       
  39 H39            6.4372    -6.8311    -2.0182 H       
  40 H40            4.8639    -6.3640    -2.7074 H       
@<TRIPOS>BOND
   1    1    2 1
   2    1    8 2
   3    1    9 am
   4    2    3 ar
   5    2    7 ar
   6    3    4 ar
   7    3   15 1
   8    4    5 ar
   9    4   27 1
  10    5    6 ar
  11    5   16 1
  12    6    7 ar
  13    6   14 1
  14    7   28 1
  15    9   10 am
  16    9   29 1
  17   10   11 2
  18   10   12 2
  19   10   13 1
  20   13   30 1
  21   13   31 1
  22   13   32 1
  23   16   18 1
  24   17   18 ar
  25   17   22 ar
  26   17   33 1
  27   18   19 ar
  28   19   20 ar
  29   19   34 1
  30   20   21 ar
  31   20   26 1
  32   21   22 ar
  33   21   23 1
  34   23   24 1
  35   23   25 1
  36   24   35 1
  37   24   36 1
  38   24   37 1
  39   25   38 1
  40   25   39 1
  41   25   40 1

#	End of record

