#	Name: ASD10610135
#	Creating user name:	WinNT
#	Creation time:	15. 06. 2019 21:28

#	Modifying user name:	WinNT
#	Modification time:	15. 06. 2019 21:28

#	Program:	/corina/corina34_cracker 3.40 0067  02.08.2006

@<TRIPOS>MOLECULE
ASD10610135
  55   58    0    0    0
SMALL
NO_CHARGES


@<TRIPOS>ATOM
   1 C1            -0.0001     1.5081     0.0258 C.3     
   2 C2             0.1754    -0.0102    -0.0449 C.3     
   3 C3             1.4034     0.8989     0.0358 C.3     
   4 C4            -0.4423     2.2166    -1.2286 C.2     
   5 O5            -0.2323     1.7167    -2.3134 O.2     
   6 N6            -1.0710     3.4058    -1.1448 N.am    
   7 O7            -3.3259     4.9141    -3.4412 O.3     
   8 C8            -2.7674     3.6906    -2.9338 C.3     
   9 C9            -1.4030     4.1463    -2.3645 C.3     
  10 C10           -1.6646     5.6085    -2.0568 C.ar    
  11 C11           -2.8264     5.9644    -2.7331 C.ar    
  12 C12           -0.9835     6.5255    -1.2848 C.ar    
  13 C13           -1.4546     7.8184    -1.1664 C.ar    
  14 C14           -2.6216     8.1905    -1.8314 C.ar    
  15 C15           -3.3050     7.2639    -2.6127 C.ar    
  16 O16           -2.5975    10.7357    -0.9422 O.3     
  17 B17           -3.1661     9.6571    -1.6982 Du      
  18 O18           -4.3410    10.2123    -2.3063 O.3     
  19 C19           -3.9520    11.5440    -2.7037 C.3     
  20 C20           -2.7699    11.8989    -1.7788 C.3     
  21 C21           -3.1090    13.1233    -0.9263 C.3     
  22 C22           -1.5065    12.1549    -2.6028 C.3     
  23 C23           -3.5057    11.5547    -4.1671 C.3     
  24 C24           -5.1083    12.5231    -2.4906 C.3     
  25 N25           -0.5010     2.0734     1.2811 N.am    
  26 C26           -1.7492     1.7844     1.6996 C.2     
  27 O27           -2.4250     0.9860     1.0858 O.2     
  28 C28           -2.3050     2.4533     2.9303 C.3     
  29 F29           -3.6066     1.9958     3.1622 F       
  30 F30           -1.4995     2.1461     4.0321 F       
  31 F31           -2.3250     3.8391     2.7392 F       
  32 H32           -0.0819    -0.5884     0.8425 H       
  33 H33           -0.0290    -0.4966    -0.9987 H       
  34 H34            2.0069     1.0106    -0.8650 H       
  35 H35            1.9540     0.9187     0.9762 H       
  36 H36           -1.3036     3.7714    -0.2770 H       
  37 H37           -3.3961     3.2771    -2.1452 H       
  38 H38           -2.6283     2.9673    -3.7372 H       
  39 H39           -0.6147     4.0394    -3.1096 H       
  40 H40           -0.0799     6.2321    -0.7712 H       
  41 H41           -0.9217     8.5371    -0.5616 H       
  42 H42           -4.2091     7.5550    -3.1266 H       
  43 H43           -2.2881    13.3257    -0.2384 H       
  44 H44           -3.2613    13.9864    -1.5743 H       
  45 H45           -4.0193    12.9300    -0.3587 H       
  46 H46           -1.2887    11.2800    -3.2154 H       
  47 H47           -1.6621    13.0201    -3.2473 H       
  48 H48           -0.6684    12.3470    -1.9328 H       
  49 H49           -4.3359    11.2460    -4.8024 H       
  50 H50           -3.1912    12.5610    -4.4438 H       
  51 H51           -2.6721    10.8647    -4.2978 H       
  52 H52           -5.4027    12.5147    -1.4411 H       
  53 H53           -4.7904    13.5273    -2.7708 H       
  54 H54           -5.9555    12.2246    -3.1080 H       
  55 H55            0.0656     2.6556     1.8111 H       
@<TRIPOS>BOND
   1    1    2 1
   2    1    3 1
   3    1    4 1
   4    1   25 1
   5    2    3 1
   6    2   32 1
   7    2   33 1
   8    3   34 1
   9    3   35 1
  10    4    5 2
  11    4    6 am
  12    6    9 1
  13    6   36 1
  14    7    8 1
  15    7   11 1
  16    8    9 1
  17    8   37 1
  18    8   38 1
  19    9   10 1
  20    9   39 1
  21   10   11 ar
  22   10   12 ar
  23   11   15 ar
  24   12   13 ar
  25   12   40 1
  26   13   14 ar
  27   13   41 1
  28   14   15 ar
  29   14   17 1
  30   15   42 1
  31   16   17 1
  32   16   20 1
  33   17   18 1
  34   18   19 1
  35   19   20 1
  36   19   23 1
  37   19   24 1
  38   20   21 1
  39   20   22 1
  40   21   43 1
  41   21   44 1
  42   21   45 1
  43   22   46 1
  44   22   47 1
  45   22   48 1
  46   23   49 1
  47   23   50 1
  48   23   51 1
  49   24   52 1
  50   24   53 1
  51   24   54 1
  52   25   26 am
  53   25   55 1
  54   26   27 2
  55   26   28 1
  56   28   29 1
  57   28   30 1
  58   28   31 1

#	End of record

