#	Name: ASD10160021
#	Creating user name:	WinNT
#	Creation time:	15. 06. 2019 21:25

#	Modifying user name:	WinNT
#	Modification time:	15. 06. 2019 21:25

#	Program:	/corina/corina34_cracker 3.40 0067  02.08.2006

@<TRIPOS>MOLECULE
ASD10160021
  42   43    0    0    0
SMALL
NO_CHARGES


@<TRIPOS>ATOM
   1 C1             0.0734     1.0322    -1.4412 C.ar    
   2 C2             0.0499    -0.1957    -0.7728 C.ar    
   3 C3             1.2905     1.6968    -1.6325 C.ar    
   4 C4             2.4611     1.1376    -1.1608 C.ar    
   5 C5             2.4322    -0.0819    -0.4977 C.ar    
   6 C6            -1.1790     1.6222    -1.9484 C.2     
   7 N7            -2.3489     0.9778    -1.7680 N.am    
   8 O8            -1.1564     2.6901    -2.5295 O.2     
   9 S9            -3.7556     1.6404    -2.3376 S.o2    
  10 O10           -4.7614     0.7147    -1.9494 O.2     
  11 O11           -3.7475     2.9683    -1.8317 O.2     
  12 O12            3.5855    -0.6280    -0.0351 O.3     
  13 C13            4.7271     0.1022    -0.1463 C.ar    
  14 C14            5.1008     0.9842     0.8645 C.ar    
  15 C15            5.5356    -0.0264    -1.2638 C.ar    
  16 N16            6.6452     0.6787    -1.3793 N.ar    
  17 C17            7.0287     1.5292    -0.4431 C.ar    
  18 C18            6.2711     1.7071     0.7088 C.ar    
  19 Cl19           6.7821     2.8269     1.9330 Cl      
  20 O20            8.1786     2.2328    -0.6055 O.3     
  21 C21            8.9163     2.0016    -1.8073 C.3     
  22 C22            1.2234    -0.7463    -0.3054 C.ar    
  23 F23            1.2014    -1.9326     0.3406 F       
  24 F24            1.3194     2.8833    -2.2781 F       
  25 C25           -3.5562     1.6449    -4.1406 C.3     
  26 C26            8.4427     2.9722    -2.8911 C.3     
  27 C27           10.4068     2.2220    -1.5412 C.3     
  28 H28           -0.8869    -0.7118    -0.6226 H       
  29 H29            3.4008     1.6492    -1.3081 H       
  30 H30           -2.3670     0.1259    -1.3044 H       
  31 H31            4.4920     1.1018     1.7487 H       
  32 H32            5.2547    -0.7120    -2.0496 H       
  33 H33            8.7545     0.9768    -2.1415 H       
  34 H34           -3.4158     0.6231    -4.4932 H       
  35 H35           -4.4469     2.0698    -4.6036 H       
  36 H36           -2.6863     2.2446    -4.4084 H       
  37 H37            9.0055     2.7958    -3.8078 H       
  38 H38            7.3809     2.8152    -3.0807 H       
  39 H39            8.6045     3.9970    -2.5569 H       
  40 H40           10.7441     1.5305    -0.7691 H       
  41 H41           10.9695     2.0456    -2.4579 H       
  42 H42           10.5685     3.2468    -1.2070 H       
@<TRIPOS>BOND
   1    1    2 ar
   2    1    3 ar
   3    1    6 1
   4    2   22 ar
   5    2   28 1
   6    3    4 ar
   7    3   24 1
   8    4    5 ar
   9    4   29 1
  10    5   22 ar
  11    5   12 1
  12    6    7 am
  13    6    8 2
  14    7    9 am
  15    7   30 1
  16    9   10 2
  17    9   11 2
  18    9   25 1
  19   12   13 1
  20   13   14 ar
  21   13   15 ar
  22   14   18 ar
  23   14   31 1
  24   15   16 ar
  25   15   32 1
  26   16   17 ar
  27   17   18 ar
  28   17   20 1
  29   18   19 1
  30   20   21 1
  31   21   26 1
  32   21   27 1
  33   21   33 1
  34   22   23 1
  35   25   34 1
  36   25   35 1
  37   25   36 1
  38   26   37 1
  39   26   38 1
  40   26   39 1
  41   27   40 1
  42   27   41 1
  43   27   42 1

#	End of record

