#	Name: ASD10410078
#	Creating user name:	WinNT
#	Creation time:	15. 06. 2019 21:26

#	Modifying user name:	WinNT
#	Modification time:	15. 06. 2019 21:26

#	Program:	/corina/corina34_cracker 3.40 0067  02.08.2006

@<TRIPOS>MOLECULE
ASD10410078
  80   85    0    0    0
SMALL
NO_CHARGES


@<TRIPOS>ATOM
   1 C1             0.0305     1.1176     0.1446 C.ar    
   2 C2             0.1860    -0.1672     0.6485 C.ar    
   3 C3             1.4585    -0.6740     0.8774 C.ar    
   4 C4             2.5691     0.0996     0.6045 C.ar    
   5 C5             2.4137     1.3844     0.1006 C.ar    
   6 C6             1.1412     1.8910    -0.1288 C.ar    
   7 N7             3.5401     2.1691    -0.1757 N.pl3   
   8 C8             4.7183     1.5671    -0.6149 C.2     
   9 N9             5.8604     2.1824    -0.8065 N.2     
  10 N10            4.8652     0.2682    -0.9025 N.2     
  11 C11            6.1016     0.0358    -1.2873 C.2     
  12 N12            6.7791     1.2154    -1.2461 N.pl3   
  13 C13            8.1127     1.4217    -1.5730 C.ar    
  14 N14            6.6203    -1.1876    -1.6630 N.pl3   
  15 N15           -0.9399    -0.9510     0.9260 N.3     
  16 C16           -0.5491    -2.2679     1.4482 C.3     
  17 C17           -1.8053    -3.0625     1.8128 C.3     
  18 N18           -2.6560    -3.2024     0.6227 N.3     
  19 C19           -3.0468    -1.8855     0.1005 C.3     
  20 C20           -1.7906    -1.0909    -0.2642 C.3     
  21 C21           -3.8376    -4.0251     0.9140 C.3     
  22 N22            8.6276     0.9127    -2.6834 N.ar    
  23 C23            9.8966     1.1017    -3.0075 C.ar    
  24 N24           10.7267     1.7959    -2.2655 N.ar    
  25 C25           10.3089     2.3550    -1.1204 C.ar    
  26 C26            8.9554     2.1844    -0.7338 C.ar    
  27 C27           11.1683     3.1026    -0.3051 C.ar    
  28 C28           -4.6563    -3.3665     2.0263 C.3     
  29 C29           10.6933     3.6523     0.8526 C.ar    
  30 C30            9.3556     3.4777     1.2365 C.ar    
  31 C31            8.4941     2.7584     0.4582 C.ar    
  32 C32           -4.6970    -4.1478    -0.3460 C.3     
  33 C33           -5.6909    -5.2982    -0.1752 C.3     
  34 C34           -7.1133    -4.7388    -0.1096 C.3     
  35 C35           -7.1364    -3.5096     0.8013 C.3     
  36 C36           -7.0725    -3.9572     2.2631 C.3     
  37 C37           -5.6431    -4.3829     2.6038 C.3     
  38 O38            8.9103     4.0350     2.3939 O.3     
  39 C39            7.5380     3.8218     2.7307 C.3     
  40 O40           11.5280     4.3770     1.6422 O.3     
  41 C41           12.8791     4.5197     1.1991 C.3     
  42 H42           -0.9590     1.5100    -0.0377 H       
  43 H43            1.5793    -1.6731     1.2693 H       
  44 H44            3.5587    -0.2943     0.7833 H       
  45 H45            1.0203     2.8900    -0.5210 H       
  46 H46            3.5005     3.1316    -0.0616 H       
  47 H47            6.0555    -1.9762    -1.6578 H       
  48 H48            7.5496    -1.2584    -1.9322 H       
  49 H49            0.0148    -2.8080     0.6876 H       
  50 H50            0.0696    -2.1380     2.3361 H       
  51 H51           -1.5188    -4.0505     2.1733 H       
  52 H52           -2.3551    -2.5358     2.5929 H       
  53 H53           -3.6655    -2.0154    -0.7874 H       
  54 H54           -3.6107    -1.3454     0.8611 H       
  55 H55           -2.0771    -0.1029    -0.6246 H       
  56 H56           -1.2409    -1.6176    -1.0442 H       
  57 H57           -3.5197    -5.0170     1.2351 H       
  58 H58           10.2657     0.6645    -3.9235 H       
  59 H59           12.2006     3.2435    -0.5896 H       
  60 H60           -3.9869    -3.0217     2.8145 H       
  61 H61           -5.2056    -2.5176     1.6191 H       
  62 H62            7.4658     2.6291     0.7617 H       
  63 H63           -5.2421    -3.2175    -0.5060 H       
  64 H64           -4.0561    -4.3458    -1.2051 H       
  65 H65           -5.6071    -5.9793    -1.0221 H       
  66 H66           -5.4692    -5.8360     0.7466 H       
  67 H67           -7.4389    -4.4555    -1.1105 H       
  68 H68           -7.7848    -5.4992     0.2892 H       
  69 H69           -6.2785    -2.8755     0.5777 H       
  70 H70           -8.0561    -2.9495     0.6326 H       
  71 H71           -7.3695    -3.1312     2.9093 H       
  72 H72           -7.7484    -4.7987     2.4153 H       
  73 H73           -5.4448    -5.3654     2.1756 H       
  74 H74           -5.5259    -4.4282     3.6866 H       
  75 H75            6.9032     4.2316     1.9450 H       
  76 H76            7.3499     2.7527     2.8291 H       
  77 H77            7.3141     4.3185     3.6747 H       
  78 H78           13.3389     3.5352     1.1127 H       
  79 H79           12.8926     5.0136     0.2276 H       
  80 H80           13.4362     5.1190     1.9192 H       
@<TRIPOS>BOND
   1    1    2 ar
   2    1    6 ar
   3    1   42 1
   4    2    3 ar
   5    2   15 1
   6    3    4 ar
   7    3   43 1
   8    4    5 ar
   9    4   44 1
  10    5    6 ar
  11    5    7 1
  12    6   45 1
  13    7    8 1
  14    7   46 1
  15    8    9 2
  16    8   10 1
  17    9   12 1
  18   10   11 2
  19   11   12 1
  20   11   14 1
  21   12   13 1
  22   13   22 ar
  23   13   26 ar
  24   14   47 1
  25   14   48 1
  26   15   16 1
  27   15   20 1
  28   16   17 1
  29   16   49 1
  30   16   50 1
  31   17   18 1
  32   17   51 1
  33   17   52 1
  34   18   19 1
  35   18   21 1
  36   19   20 1
  37   19   53 1
  38   19   54 1
  39   20   55 1
  40   20   56 1
  41   21   32 1
  42   21   28 1
  43   21   57 1
  44   22   23 ar
  45   23   24 ar
  46   23   58 1
  47   24   25 ar
  48   25   26 ar
  49   25   27 ar
  50   26   31 ar
  51   27   29 ar
  52   27   59 1
  53   28   37 1
  54   28   60 1
  55   28   61 1
  56   29   30 ar
  57   29   40 1
  58   30   31 ar
  59   30   38 1
  60   31   62 1
  61   32   33 1
  62   32   63 1
  63   32   64 1
  64   33   34 1
  65   33   65 1
  66   33   66 1
  67   34   35 1
  68   34   67 1
  69   34   68 1
  70   35   36 1
  71   35   69 1
  72   35   70 1
  73   36   37 1
  74   36   71 1
  75   36   72 1
  76   37   73 1
  77   37   74 1
  78   38   39 1
  79   39   75 1
  80   39   76 1
  81   39   77 1
  82   40   41 1
  83   41   78 1
  84   41   79 1
  85   41   80 1

#	End of record

