#	Name: ASD11810005
#	Creating user name:	WinNT
#	Creation time:	15. 06. 2019 21:29

#	Modifying user name:	WinNT
#	Modification time:	15. 06. 2019 21:29

#	Program:	/corina/corina34_cracker 3.40 0067  02.08.2006

@<TRIPOS>MOLECULE
ASD11810005
  43   45    0    0    0
SMALL
NO_CHARGES


@<TRIPOS>ATOM
   1 C1             5.1395     1.7025     0.5190 C.ar    
   2 C2             5.7454     0.6626    -0.1738 C.ar    
   3 N3             4.0115     2.3365    -0.0139 N.am    
   4 C4             3.8233     3.6562     0.1850 C.2     
   5 N5             2.7885     4.2859    -0.4059 N.am    
   6 C6             2.5334     5.6345    -0.1207 C.ar    
   7 C7             3.5888     6.5079     0.1048 C.ar    
   8 C8             3.3378     7.8364     0.3852 C.ar    
   9 C9             2.0295     8.2989     0.4417 C.ar    
  10 C10            0.9739     7.4250     0.2161 C.ar    
  11 C11            1.2255     6.0978    -0.0695 C.ar    
  12 N12            1.7748     9.6449     0.7263 N.am    
  13 O13            4.5871     4.2787     0.8974 O.2     
  14 C14            6.8586     0.0390     0.3548 C.ar    
  15 C15            7.3695     0.4487     1.5727 C.ar    
  16 C16            6.7684     1.4839     2.2650 C.ar    
  17 C17            5.6518     2.1081     1.7443 C.ar    
  18 S18            0.6648    10.4852    -0.1703 S.o2    
  19 C19            1.2548    10.5214    -1.8302 C.ar    
  20 O20           -0.5190     9.6993    -0.1823 O.2     
  21 O21            0.7027    11.8261     0.2984 O.2     
  22 C22            0.8163     9.5779    -2.7404 C.ar    
  23 C23            1.2792     9.6063    -4.0426 C.ar    
  24 C24            2.1804    10.5784    -4.4347 C.ar    
  25 C25            2.6183    11.5224    -3.5248 C.ar    
  26 C26            2.1520    11.4966    -2.2237 C.ar    
  27 H27            5.3465     0.3417    -1.1247 H       
  28 H28            3.3650     1.8262    -0.5263 H       
  29 H29            2.2202     3.8059    -1.0285 H       
  30 H30            4.6062     6.1482     0.0611 H       
  31 H31            4.1588     8.5157     0.5609 H       
  32 H32           -0.0436     7.7843     0.2604 H       
  33 H33            0.4047     5.4181    -0.2449 H       
  34 H34            2.2486    10.0858     1.4489 H       
  35 H35            7.3304    -0.7698    -0.1835 H       
  36 H36            8.2397    -0.0410     1.9842 H       
  37 H37            7.1699     1.8016     3.2159 H       
  38 H38            5.1828     2.9165     2.2855 H       
  39 H39            0.1122     8.8184    -2.4340 H       
  40 H40            0.9371     8.8687    -4.7535 H       
  41 H41            2.5427    10.6001    -5.4519 H       
  42 H42            3.3226    12.2817    -3.8311 H       
  43 H43            2.4941    12.2342    -1.5128 H       
@<TRIPOS>BOND
   1    1    2 ar
   2    1    3 1
   3    1   17 ar
   4    2   14 ar
   5    2   27 1
   6    3    4 am
   7    3   28 1
   8    4    5 am
   9    4   13 2
  10    5    6 1
  11    5   29 1
  12    6    7 ar
  13    6   11 ar
  14    7    8 ar
  15    7   30 1
  16    8    9 ar
  17    8   31 1
  18    9   10 ar
  19    9   12 1
  20   10   11 ar
  21   10   32 1
  22   11   33 1
  23   12   18 am
  24   12   34 1
  25   14   15 ar
  26   14   35 1
  27   15   16 ar
  28   15   36 1
  29   16   17 ar
  30   16   37 1
  31   17   38 1
  32   18   19 1
  33   18   20 2
  34   18   21 2
  35   19   22 ar
  36   19   26 ar
  37   22   23 ar
  38   22   39 1
  39   23   24 ar
  40   23   40 1
  41   24   25 ar
  42   24   41 1
  43   25   26 ar
  44   25   42 1
  45   26   43 1

#	End of record

