#	Name: ASD10870004
#	Creating user name:	WinNT
#	Creation time:	15. 06. 2019 21:28

#	Modifying user name:	WinNT
#	Modification time:	15. 06. 2019 21:28

#	Program:	/corina/corina34_cracker 3.40 0067  02.08.2006

@<TRIPOS>MOLECULE
ASD10870004
  47   49    0    0    0
SMALL
NO_CHARGES


@<TRIPOS>ATOM
   1 C1            -0.1731     1.4843    -0.0069 C.ar    
   2 C2            -0.1546     0.1033    -0.1139 C.ar    
   3 C3             1.0452    -0.5783    -0.1561 C.ar    
   4 C4             2.2440     0.1189    -0.0913 C.ar    
   5 C5             2.2288     1.5180     0.0168 C.ar    
   6 C6             1.0070     2.1934     0.0583 C.ar    
   7 C7             3.4952     2.2705     0.0870 C.2     
   8 N8             3.4795     3.6182     0.0831 N.am    
   9 O9             4.5537     1.6750     0.1484 O.2     
  10 N10            3.4549    -0.5664    -0.1327 N.am    
  11 C11            3.5644    -1.7771     0.4493 C.2     
  12 C12            4.8720    -2.4577     0.4952 C.ar    
  13 O13            2.5851    -2.3082     0.9365 O.2     
  14 C14            4.9905    -3.7168     1.0995 C.ar    
  15 C15            6.2251    -4.3479     1.1365 C.ar    
  16 C16            7.3313    -3.7374     0.5802 C.ar    
  17 C17            7.2186    -2.4926    -0.0176 C.ar    
  18 C18            5.9988    -1.8537    -0.0685 C.ar    
  19 C19            4.6671     4.3319     0.2726 C.ar    
  20 C20            4.7950     5.6177    -0.2363 C.ar    
  21 C21            5.7193     3.7585     0.9753 C.ar    
  22 C22            6.8906     4.4659     1.1606 C.ar    
  23 C23            7.0168     5.7440     0.6475 C.ar    
  24 C24            5.9694     6.3199    -0.0474 C.ar    
  25 C25            6.1093     7.7150    -0.5998 C.3     
  26 F26            5.6761     8.6405     0.3558 F       
  27 F27            7.4506     7.9605    -0.9122 F       
  28 F28            5.3309     7.8392    -1.7556 F       
  29 O29            3.9027    -4.3153     1.6460 O.3     
  30 C30            4.0999    -5.5980     2.2442 C.3     
  31 H31           -1.1170     2.0084     0.0212 H       
  32 H32           -1.0845    -0.4435    -0.1643 H       
  33 H33            1.0513    -1.6551    -0.2393 H       
  34 H34            0.9870     3.2700     0.1414 H       
  35 H35            2.6444     4.0931    -0.0512 H       
  36 H36            4.2200    -0.1726    -0.5805 H       
  37 H37            6.3212    -5.3180     1.6013 H       
  38 H38            8.2905    -4.2328     0.6116 H       
  39 H39            8.0899    -2.0227    -0.4494 H       
  40 H40            5.9147    -0.8855    -0.5395 H       
  41 H41            3.9773     6.0679    -0.7795 H       
  42 H42            5.6212     2.7606     1.3765 H       
  43 H43            7.7089     4.0207     1.7071 H       
  44 H44            7.9340     6.2952     0.7938 H       
  45 H45            4.4719    -6.2956     1.4938 H       
  46 H46            4.8254    -5.5139     3.0534 H       
  47 H47            3.1529    -5.9630     2.6418 H       
@<TRIPOS>BOND
   1    1    2 ar
   2    1    6 ar
   3    1   31 1
   4    2    3 ar
   5    2   32 1
   6    3    4 ar
   7    3   33 1
   8    4    5 ar
   9    4   10 1
  10    5    6 ar
  11    5    7 1
  12    6   34 1
  13    7    8 am
  14    7    9 2
  15    8   19 1
  16    8   35 1
  17   10   11 am
  18   10   36 1
  19   11   12 1
  20   11   13 2
  21   12   14 ar
  22   12   18 ar
  23   14   15 ar
  24   14   29 1
  25   15   16 ar
  26   15   37 1
  27   16   17 ar
  28   16   38 1
  29   17   18 ar
  30   17   39 1
  31   18   40 1
  32   19   21 ar
  33   19   20 ar
  34   20   24 ar
  35   20   41 1
  36   21   22 ar
  37   21   42 1
  38   22   23 ar
  39   22   43 1
  40   23   24 ar
  41   23   44 1
  42   24   25 1
  43   25   26 1
  44   25   27 1
  45   25   28 1
  46   29   30 1
  47   30   45 1
  48   30   46 1
  49   30   47 1

#	End of record

