#	Name: ASD13040001
#	Creating user name:	WinNT
#	Creation time:	15. 06. 2019 21:30

#	Modifying user name:	WinNT
#	Modification time:	15. 06. 2019 21:30

#	Program:	/corina/corina34_cracker 3.40 0067  02.08.2006

@<TRIPOS>MOLECULE
ASD13040001
  65   69    0    0    0
SMALL
NO_CHARGES


@<TRIPOS>ATOM
   1 C1             0.1704     1.8240     0.3939 C.2     
   2 C2             0.2263     0.5731    -0.1227 C.2     
   3 N3             1.5256     0.2085    -0.2486 N.pl3   
   4 C4             2.3179     1.2431     0.1948 C.2     
   5 C5             1.4822     2.2619     0.6004 C.2     
   6 C6             3.7842     1.2587     0.2300 C.2     
   7 N7             4.4681     0.1019     0.3326 N.am    
   8 O8             4.3832     2.3161     0.1664 O.2     
   9 C9             5.9328     0.0784     0.2047 C.3     
  10 C10            6.3207    -0.7335    -1.0378 C.3     
  11 C11            5.5099    -2.0034    -1.0598 C.2     
  12 C12            4.3739    -2.1963    -0.3453 C.2     
  13 C13            3.7666    -1.1718     0.5822 C.3     
  14 C14            7.8105    -1.0772    -0.9815 C.3     
  15 N15            5.7371    -3.1329    -1.7522 N.pl3   
  16 N16            4.8118    -3.9954    -1.5081 N.2     
  17 C17            3.9364    -3.4946    -0.6528 C.2     
  18 C18            2.7338    -4.1691    -0.1241 C.2     
  19 O19            2.0088    -3.5911     0.6623 O.2     
  20 N20            2.4400    -5.4256    -0.5132 N.am    
  21 C21            1.2565    -6.0327    -0.0812 C.ar    
  22 C22            0.1469    -5.2555     0.2239 C.ar    
  23 C23           -1.0207    -5.8583     0.6499 C.ar    
  24 C24           -1.0851    -7.2340     0.7731 C.ar    
  25 C25            0.0182    -8.0109     0.4701 C.ar    
  26 C26            1.1866    -7.4149     0.0382 C.ar    
  27 C27           -0.0565    -9.5099     0.6058 C.3     
  28 C28            0.1207    -9.8984     2.0750 C.3     
  29 O29           -1.3285    -9.9673     0.1423 O.3     
  30 C30            6.8712    -3.3511    -2.6535 C.3     
  31 C31            6.6993    -4.6668    -3.3679 C.ar    
  32 C32            6.1186    -4.7011    -4.6220 C.ar    
  33 C33            5.9608    -5.9070    -5.2782 C.ar    
  34 C34            6.3845    -7.0812    -4.6792 C.ar    
  35 C35            6.9659    -7.0456    -3.4231 C.ar    
  36 C36            7.1275    -5.8379    -2.7710 C.ar    
  37 F37            6.2303    -8.2607    -5.3196 F       
  38 H38           -0.7279     2.3853     0.6045 H       
  39 H39           -0.6254    -0.0347    -0.3903 H       
  40 H40            1.8442    -0.6403    -0.5934 H       
  41 H41            1.7839     3.2182     1.0016 H       
  42 H42            6.3056     1.0977     0.1042 H       
  43 H43            6.3681    -0.3829     1.0912 H       
  44 H44            6.1116    -0.1509    -1.9350 H       
  45 H45            3.9021    -1.4820     1.6183 H       
  46 H46            2.7049    -1.0562     0.3639 H       
  47 H47            8.0238    -1.6196    -0.0604 H       
  48 H48            8.0728    -1.6983    -1.8380 H       
  49 H49            8.3965    -0.1584    -1.0061 H       
  50 H50            3.0493    -5.9088    -1.0930 H       
  51 H51            0.1968    -4.1809     0.1286 H       
  52 H52           -1.8840    -5.2545     0.8874 H       
  53 H53           -1.9989    -7.7028     1.1071 H       
  54 H54            2.0479    -8.0222    -0.1983 H       
  55 H55            0.7333    -9.9685     0.0109 H       
  56 H56           -0.6692    -9.4399     2.6700 H       
  57 H57            0.0666   -10.9826     2.1732 H       
  58 H58            1.0910    -9.5495     2.4286 H       
  59 H59           -2.0796    -9.5991     0.6274 H       
  60 H60            6.9150    -2.5437    -3.3845 H       
  61 H61            7.7957    -3.3691    -2.0763 H       
  62 H62            5.7878    -3.7851    -5.0889 H       
  63 H63            5.5068    -5.9336    -6.2578 H       
  64 H64            7.2968    -7.9609    -2.9549 H       
  65 H65            7.5810    -5.8099    -1.7912 H       
@<TRIPOS>BOND
   1    1    2 2
   2    1    5 1
   3    1   38 1
   4    2    3 1
   5    2   39 1
   6    3    4 1
   7    3   40 1
   8    4    5 2
   9    4    6 1
  10    5   41 1
  11    6    7 am
  12    6    8 2
  13    7    9 1
  14    7   13 1
  15    9   10 1
  16    9   42 1
  17    9   43 1
  18   10   11 1
  19   10   14 1
  20   10   44 1
  21   11   12 2
  22   11   15 1
  23   12   13 1
  24   12   17 1
  25   13   45 1
  26   13   46 1
  27   14   47 1
  28   14   48 1
  29   14   49 1
  30   15   16 1
  31   15   30 1
  32   16   17 2
  33   17   18 1
  34   18   19 2
  35   18   20 am
  36   20   21 1
  37   20   50 1
  38   21   22 ar
  39   21   26 ar
  40   22   23 ar
  41   22   51 1
  42   23   24 ar
  43   23   52 1
  44   24   25 ar
  45   24   53 1
  46   25   26 ar
  47   25   27 1
  48   26   54 1
  49   27   28 1
  50   27   29 1
  51   27   55 1
  52   28   56 1
  53   28   57 1
  54   28   58 1
  55   29   59 1
  56   30   31 1
  57   30   60 1
  58   30   61 1
  59   31   32 ar
  60   31   36 ar
  61   32   33 ar
  62   32   62 1
  63   33   34 ar
  64   33   63 1
  65   34   35 ar
  66   34   37 1
  67   35   36 ar
  68   35   64 1
  69   36   65 1

#	End of record

