#	Name: ASD10610102
#	Creating user name:	WinNT
#	Creation time:	15. 06. 2019 21:28

#	Modifying user name:	WinNT
#	Modification time:	15. 06. 2019 21:28

#	Program:	/corina/corina34_cracker 3.40 0067  02.08.2006

@<TRIPOS>MOLECULE
ASD10610102
  62   66    0    0    0
SMALL
NO_CHARGES


@<TRIPOS>ATOM
   1 O1            -0.3537     1.3165    -0.3411 O.3     
   2 N2            -0.8111     0.2585    -0.7051 N.2     
   3 C3            -1.3025     0.3303    -1.9124 C.2     
   4 C4            -1.1044     1.6659    -2.3473 C.2     
   5 C5            -0.4834     2.2654    -1.2878 C.2     
   6 C6            -0.0432     3.6708    -1.1989 C.2     
   7 O7            -0.2247     4.4250    -2.1350 O.2     
   8 N8             0.5601     4.1185    -0.0799 N.am    
   9 O9            -0.1247     6.4993     1.2957 O.3     
  10 C10            0.0366     6.5864    -0.1261 C.3     
  11 C11            1.0958     5.4812    -0.0317 C.3     
  12 C12            1.2375     6.0610     1.3810 C.3     
  13 C13            2.2970     5.6873    -0.9180 C.2     
  14 N14            3.1961     4.6958    -1.0759 N.am    
  15 O15            2.4547     6.7455    -1.4893 O.2     
  16 C16            4.4186     4.9315    -1.8480 C.3     
  17 C17            4.1332     4.7108    -3.3348 C.3     
  18 C18            7.4625     2.2157    -0.5619 C.ar    
  19 C19            7.8135     3.4291    -1.1512 C.ar    
  20 C20            6.8265     4.3038    -1.5648 C.ar    
  21 C21            5.4912     3.9748    -1.3949 C.ar    
  22 C22            5.1395     2.7719    -0.8108 C.ar    
  23 C23            6.1173     1.8914    -0.3937 C.ar    
  24 C24            8.5162     1.2703    -0.1216 C.ar    
  25 C25            8.4807     0.7273     1.1722 C.ar    
  26 C26            9.4767    -0.1608     1.5746 C.ar    
  27 C27           10.4922    -0.5020     0.7000 C.ar    
  28 C28           10.5261     0.0349    -0.5760 C.ar    
  29 C29            9.5423     0.9124    -0.9911 C.ar    
  30 N30            7.2318     0.6667     3.3427 N.2     
  31 N31            6.1685     1.2176     3.8188 N.pl3   
  32 N32            5.6478     1.9828     2.9242 N.2     
  33 N33            6.3718     1.9337     1.8578 N.2     
  34 C34            7.3898     1.0969     2.1061 C.2     
  35 C35            5.6358     1.0062     5.1671 C.3     
  36 F36            9.4503    -0.6877     2.8183 F       
  37 F37            7.1640     5.4806    -2.1363 F       
  38 Cl38          11.8077    -0.4017    -1.6625 Cl      
  39 O39           -1.8873    -0.6744    -2.6129 O.3     
  40 C40           -1.9791    -1.9466    -1.9687 C.3     
  41 H41           -1.3794     2.1059    -3.2945 H       
  42 H42            0.6395     3.5385     0.6935 H       
  43 H43           -0.8523     6.2876    -0.6816 H       
  44 H44            0.4385     7.5437    -0.4581 H       
  45 H45            1.9529     6.8811     1.4425 H       
  46 H46            1.4007     5.3019     2.1460 H       
  47 H47            3.0337     3.8260    -0.6782 H       
  48 H48            4.7557     5.9561    -1.6909 H       
  49 H49            3.3574     5.4028    -3.6625 H       
  50 H50            5.0428     4.8862    -3.9093 H       
  51 H51            3.7961     3.6862    -3.4919 H       
  52 H52            8.8542     3.6856    -1.2836 H       
  53 H53            4.0972     2.5208    -0.6801 H       
  54 H54            5.8405     0.9525     0.0626 H       
  55 H55           11.2630    -1.1904     1.0139 H       
  56 H56            9.5721     1.3237    -1.9892 H       
  57 H57            6.0664     1.7410     5.8473 H       
  58 H58            4.5516     1.1175     5.1510 H       
  59 H59            5.8930     0.0027     5.5061 H       
  60 H60           -0.9784    -2.3035    -1.7249 H       
  61 H61           -2.5631    -1.8492    -1.0535 H       
  62 H62           -2.4657    -2.6577    -2.6363 H       
@<TRIPOS>BOND
   1    1    2 1
   2    1    5 1
   3    2    3 2
   4    3    4 1
   5    3   39 1
   6    4    5 2
   7    4   41 1
   8    5    6 1
   9    6    7 2
  10    6    8 am
  11    8   11 1
  12    8   42 1
  13    9   10 1
  14    9   12 1
  15   10   11 1
  16   10   43 1
  17   10   44 1
  18   11   12 1
  19   11   13 1
  20   12   45 1
  21   12   46 1
  22   13   14 am
  23   13   15 2
  24   14   16 1
  25   14   47 1
  26   16   17 1
  27   16   21 1
  28   16   48 1
  29   17   49 1
  30   17   50 1
  31   17   51 1
  32   18   19 ar
  33   18   23 ar
  34   18   24 1
  35   19   20 ar
  36   19   52 1
  37   20   21 ar
  38   20   37 1
  39   21   22 ar
  40   22   23 ar
  41   22   53 1
  42   23   54 1
  43   24   25 ar
  44   24   29 ar
  45   25   26 ar
  46   25   34 1
  47   26   27 ar
  48   26   36 1
  49   27   28 ar
  50   27   55 1
  51   28   29 ar
  52   28   38 1
  53   29   56 1
  54   30   31 1
  55   30   34 2
  56   31   32 1
  57   31   35 1
  58   32   33 2
  59   33   34 1
  60   35   57 1
  61   35   58 1
  62   35   59 1
  63   39   40 1
  64   40   60 1
  65   40   61 1
  66   40   62 1

#	End of record

