#	Name: ASD11580001
#	Creating user name:	WinNT
#	Creation time:	15. 06. 2019 21:29

#	Modifying user name:	WinNT
#	Modification time:	15. 06. 2019 21:29

#	Program:	/corina/corina34_cracker 3.40 0067  02.08.2006

@<TRIPOS>MOLECULE
ASD11580001
  23   24    0    0    0
SMALL
NO_CHARGES


@<TRIPOS>ATOM
   1 O1             2.2097     0.9430    -0.0140 O.2     
   2 O2            -0.0110     0.9628     0.0073 O.3     
   3 O3            -1.0916     5.8699     0.0775 O.3     
   4 O4             3.6206     2.9858    -0.0271 O.3     
   5 C5             2.5641     7.8874     0.0554 C.ar    
   6 C6             3.7532     7.1636     0.0289 C.ar    
   7 C7             1.3578     7.2537     0.0632 C.ar    
   8 C8             3.7430     5.8015     0.0099 C.ar    
   9 C9             0.0443     3.8084     0.0221 C.ar    
  10 C10            1.1815     1.5911    -0.0007 C.2     
  11 C11            0.0721     5.1679     0.0462 C.ar    
  12 C12            1.2386     3.0618     0.0067 C.ar    
  13 C13            2.4730     3.7063    -0.0016 C.ar    
  14 C14            1.3081     5.8517     0.0382 C.ar    
  15 C15            2.5180     5.1153     0.0171 C.ar    
  16 H16            0.0021    -0.0041     0.0020 H       
  17 H17           -1.4141     6.0571     0.9697 H       
  18 H18            3.9415     2.7885    -0.9177 H       
  19 H19            2.5983     8.9666     0.0747 H       
  20 H20            4.6967     7.6892     0.0229 H       
  21 H21            0.4437     7.8283     0.0887 H       
  22 H22            4.6726     5.2521    -0.0110 H       
  23 H23           -0.9056     3.2945     0.0288 H       
@<TRIPOS>BOND
   1    1   10 2
   2    2   16 1
   3    2   10 1
   4    3   17 1
   5    3   11 1
   6    4   13 1
   7    4   18 1
   8    5    7 ar
   9    5   19 1
  10    5    6 ar
  11    6    8 ar
  12    6   20 1
  13    7   14 ar
  14    7   21 1
  15    8   15 ar
  16    8   22 1
  17    9   23 1
  18    9   11 ar
  19    9   12 ar
  20   10   12 1
  21   11   14 ar
  22   12   13 ar
  23   13   15 ar
  24   14   15 ar

#	End of record

