#	Name: ASD13680059
#	Creating user name:	WinNT
#	Creation time:	15. 06. 2019 21:30

#	Modifying user name:	WinNT
#	Modification time:	15. 06. 2019 21:30

#	Program:	/corina/corina34_cracker 3.40 0067  02.08.2006

@<TRIPOS>MOLECULE
ASD13680059
  45   47    0    0    0
SMALL
NO_CHARGES


@<TRIPOS>ATOM
   1 C1             0.3572     3.0551     0.7804 C.ar    
   2 C2             0.0297     1.8085     1.2676 C.ar    
   3 C3             0.9790     0.7952     1.3182 C.ar    
   4 C4             2.2564     1.0174     0.8854 C.ar    
   5 C5             2.6105     2.2756     0.3870 C.ar    
   6 C6             1.6511     3.3041     0.3340 C.ar    
   7 N7             2.0059     4.5424    -0.1579 N.am    
   8 C8             3.9694     2.5476    -0.0852 C.2     
   9 C9             4.2550     3.7859    -0.5584 C.2     
  10 C10            3.2565     4.7828    -0.5893 C.2     
  11 O11            3.5347     5.8892    -1.0182 O.2     
  12 C12            5.6440     4.0989    -1.0522 C.3     
  13 C13            5.7023     3.9037    -2.5685 C.3     
  14 C14            7.1124     4.2215    -3.0698 C.3     
  15 S15            5.2065     1.2938    -0.0392 S.o     
  16 C16            5.6547     1.2270     1.7173 C.3     
  17 O17            4.4855     0.1203    -0.3890 O.2     
  18 C18            4.4746     0.6819     2.5243 C.3     
  19 C19            6.8650     0.3092     1.9002 C.3     
  20 C20            7.2430     0.2528     3.3817 C.3     
  21 C21            6.0630    -0.2922     4.1888 C.3     
  22 C22            4.8526     0.6256     4.0058 C.3     
  23 Cl23           0.5393    -0.7661     1.9369 Cl      
  24 H24           -0.3891     3.8348     0.7411 H       
  25 H25           -0.9752     1.6171     1.6141 H       
  26 H26            2.9892     0.2252     0.9284 H       
  27 H27            1.3437     5.2503    -0.1934 H       
  28 H28            5.8917     5.1322    -0.8091 H       
  29 H29            6.3594     3.4312    -0.5721 H       
  30 H30            5.4545     2.8704    -2.8116 H       
  31 H31            4.9869     4.5714    -3.0486 H       
  32 H32            7.3602     5.2548    -2.8268 H       
  33 H33            7.8278     3.5538    -2.5898 H       
  34 H34            7.1540     4.0824    -4.1501 H       
  35 H35            5.9023     2.2291     2.0674 H       
  36 H36            3.6124     1.3358     2.3940 H       
  37 H37            4.2270    -0.3201     2.1742 H       
  38 H38            6.6174    -0.6929     1.5501 H       
  39 H39            7.7057     0.6975     1.3253 H       
  40 H40            8.1053    -0.4010     3.5121 H       
  41 H41            7.4907     1.2549     3.7319 H       
  42 H42            5.8153    -1.2943     3.8386 H       
  43 H43            6.3323    -0.3324     5.2442 H       
  44 H44            5.1003     1.6277     4.3559 H       
  45 H45            4.0120     0.2373     4.5808 H       
@<TRIPOS>BOND
   1    1    2 ar
   2    1    6 ar
   3    1   24 1
   4    2    3 ar
   5    2   25 1
   6    3    4 ar
   7    3   23 1
   8    4    5 ar
   9    4   26 1
  10    5    6 ar
  11    5    8 1
  12    6    7 1
  13    7   10 am
  14    7   27 1
  15    8    9 2
  16    8   15 1
  17    9   10 1
  18    9   12 1
  19   10   11 2
  20   12   13 1
  21   12   28 1
  22   12   29 1
  23   13   14 1
  24   13   30 1
  25   13   31 1
  26   14   32 1
  27   14   33 1
  28   14   34 1
  29   15   16 1
  30   15   17 2
  31   16   19 1
  32   16   18 1
  33   16   35 1
  34   18   22 1
  35   18   36 1
  36   18   37 1
  37   19   20 1
  38   19   38 1
  39   19   39 1
  40   20   21 1
  41   20   40 1
  42   20   41 1
  43   21   22 1
  44   21   42 1
  45   21   43 1
  46   22   44 1
  47   22   45 1

#	End of record

