#	Name: ASD15100002
#	Creating user name:	WinNT
#	Creation time:	15. 06. 2019 21:31

#	Modifying user name:	WinNT
#	Modification time:	15. 06. 2019 21:31

#	Program:	/corina/corina34_cracker 3.40 0067  02.08.2006

@<TRIPOS>MOLECULE
ASD15100002
  56   60    0    0    0
SMALL
NO_CHARGES


@<TRIPOS>ATOM
   1 N1            -0.0128     1.3734     0.1169 N.am    
   2 N2             0.1025    -2.7439    -0.2003 N.am    
   3 C3             1.6046    -5.6030     2.8808 C.ar    
   4 C4             8.2578     5.2407    -5.7460 C.ar    
   5 C5             6.8511     7.1613    -5.4905 C.ar    
   6 C6             5.1919     3.5937     1.1673 C.ar    
   7 C7            -0.8812    -5.1384     1.7636 C.ar    
   8 C8             7.9199     4.8237    -4.4721 C.ar    
   9 C9             5.6764     4.0936    -0.0262 C.ar    
  10 C10            0.2640    -4.8099     1.0625 C.ar    
  11 C11            3.4565     2.4363    -0.0192 C.ar    
  12 C12            1.2600    -2.0267    -0.2183 C.2     
  13 C13            1.2318    -0.6874    -0.1159 C.2     
  14 C14            0.0024    -0.0044     0.0119 C.2     
  15 C15            1.1006     2.1177     0.1041 C.2     
  16 C16            0.1575    -4.2035    -0.3130 C.3     
  17 C17            0.4595    -5.9364     3.5797 C.ar    
  18 C18            7.7257     6.4110    -6.2541 C.ar    
  19 C19           -0.7834    -5.7047     3.0208 C.ar    
  20 C20            1.5068    -5.0371     1.6234 C.ar    
  21 C21            6.5084     6.7411    -4.2189 C.ar    
  22 C22            4.0850     2.7669     1.1744 C.ar    
  23 C23            3.9348     2.9468    -1.2180 C.ar    
  24 C24            7.0450     5.5738    -3.7086 C.ar    
  25 C25            5.0488     3.7712    -1.2216 C.ar    
  26 C26           -1.1677    -0.7398     0.0293 C.2     
  27 C27           -1.0912    -2.1339    -0.0802 C.2     
  28 C28            2.4971     0.1390    -0.1323 C.3     
  29 C29            6.6714     5.1157    -2.3224 C.3     
  30 N30            2.3357     1.5986    -0.0121 N.am    
  31 O31           -2.1144    -2.8004    -0.0672 O.2     
  32 O32            0.9890     3.3243     0.2021 O.2     
  33 O33            5.5195     4.2730    -2.3936 O.3     
  34 H34           -0.8688     1.8221     0.1996 H       
  35 H35            2.5756    -5.7806     3.3190 H       
  36 H36            8.9411     4.6545    -6.3426 H       
  37 H37            6.4356     8.0758    -5.8873 H       
  38 H38            5.6819     3.8464     2.0960 H       
  39 H39           -1.8522    -4.9609     1.3254 H       
  40 H40            8.3391     3.9117    -4.0734 H       
  41 H41            6.5443     4.7364    -0.0291 H       
  42 H42            2.2065    -2.5377    -0.3156 H       
  43 H43           -0.7482    -4.5647    -0.8002 H       
  44 H44            1.0271    -4.4897    -0.9045 H       
  45 H45            0.5359    -6.3788     4.5620 H       
  46 H46            7.9935     6.7393    -7.2475 H       
  47 H47           -1.6781    -5.9651     3.5669 H       
  48 H48            2.4014    -4.7723     1.0794 H       
  49 H49            5.8248     7.3271    -3.6224 H       
  50 H50            3.7085     2.3772     2.1086 H       
  51 H51            3.4479     2.6912    -2.1475 H       
  52 H52           -2.1243    -0.2481     0.1261 H       
  53 H53            3.1306    -0.1983     0.6880 H       
  54 H54            3.0214    -0.0660    -1.0656 H       
  55 H55            7.5019     4.5598    -1.8873 H       
  56 H56            6.4492     5.9829    -1.7007 H       
@<TRIPOS>BOND
   1    1   14 1
   2    1   15 am
   3    1   34 1
   4    2   16 1
   5    2   12 1
   6    2   27 am
   7    3   20 ar
   8    3   35 1
   9    3   17 ar
  10    4   36 1
  11    4    8 ar
  12    4   18 ar
  13    5   18 ar
  14    5   37 1
  15    5   21 ar
  16    6    9 ar
  17    6   38 1
  18    6   22 ar
  19    7   10 ar
  20    7   39 1
  21    7   19 ar
  22    8   40 1
  23    8   24 ar
  24    9   41 1
  25    9   25 ar
  26   10   16 1
  27   10   20 ar
  28   11   22 ar
  29   11   23 ar
  30   11   30 1
  31   12   42 1
  32   12   13 2
  33   13   28 1
  34   13   14 1
  35   14   26 2
  36   15   30 am
  37   15   32 2
  38   16   43 1
  39   16   44 1
  40   17   19 ar
  41   17   45 1
  42   18   46 1
  43   19   47 1
  44   20   48 1
  45   21   24 ar
  46   21   49 1
  47   22   50 1
  48   23   25 ar
  49   23   51 1
  50   24   29 1
  51   25   33 1
  52   26   27 1
  53   26   52 1
  54   27   31 2
  55   28   53 1
  56   28   54 1
  57   28   30 1
  58   29   33 1
  59   29   55 1
  60   29   56 1

#	End of record

