#	Name: ASD10410222
#	Creating user name:	WinNT
#	Creation time:	15. 06. 2019 21:27

#	Modifying user name:	WinNT
#	Modification time:	15. 06. 2019 21:27

#	Program:	/corina/corina34_cracker 3.40 0067  02.08.2006

@<TRIPOS>MOLECULE
ASD10410222
  62   67    0    0    0
SMALL
NO_CHARGES


@<TRIPOS>ATOM
   1 C1             0.0474     1.2879     0.5358 C.ar    
   2 C2             0.0015    -0.0026     0.0294 C.ar    
   3 C3             1.1469    -0.5845    -0.4937 C.ar    
   4 C4             2.3342     0.1205    -0.5103 C.ar    
   5 C5             2.3811     1.4127    -0.0035 C.ar    
   6 C6             1.2338     1.9946     0.5196 C.ar    
   7 O7            -1.1671    -0.6980     0.0461 O.3     
   8 N8             3.5843     2.1280    -0.0195 N.pl3   
   9 C9             3.5673     3.5190    -0.1171 C.2     
  10 N10            4.6184     4.2993    -0.0404 N.2     
  11 N11            2.4764     4.2698    -0.3098 N.2     
  12 C12            2.8142     5.5407    -0.3532 C.2     
  13 N13            4.1617     5.6190    -0.1876 N.pl3   
  14 C14            4.9349     6.7776    -0.1680 C.ar    
  15 N15            1.9537     6.6056    -0.5376 N.pl3   
  16 C16            6.3240     6.7046     0.0132 C.ar    
  17 C17           -1.1421    -2.0218    -0.4916 C.3     
  18 C18           -2.5372    -2.6412    -0.3870 C.3     
  19 N19           -3.4703    -1.8929    -1.2397 N.3     
  20 C20           -4.7618    -2.5952    -1.3529 C.3     
  21 C21           -5.8572    -1.6172    -0.8783 C.3     
  22 C22           -5.1892    -0.2290    -1.0610 C.3     
  23 C23           -3.7161    -0.5401    -0.6964 C.3     
  24 N24            4.3702     7.9680    -0.3258 N.ar    
  25 C25            5.0979     9.0701    -0.3085 C.ar    
  26 N26            6.3960     9.0552    -0.1379 N.ar    
  27 C27            7.0659     7.8914     0.0265 C.ar    
  28 C28            8.4347     7.6687     0.2196 C.2     
  29 C29            8.7983     6.3885     0.3513 C.2     
  30 S30            7.3992     5.3336     0.2419 S.3     
  31 C31           10.1869     5.9255     0.5619 C.ar    
  32 C32           10.4598     4.5628     0.6873 C.ar    
  33 C33           11.7575     4.1373     0.8832 C.ar    
  34 C34           12.7871     5.0585     0.9560 C.ar    
  35 C35           12.5233     6.4110     0.8325 C.ar    
  36 C36           11.2307     6.8491     0.6305 C.ar    
  37 H37           -0.8459     1.7418     0.9387 H       
  38 H38            1.1102    -1.5894    -0.8878 H       
  39 H39            3.2260    -0.3329    -0.9169 H       
  40 H40            1.2693     2.9996     0.9136 H       
  41 H41            4.4298     1.6561     0.0373 H       
  42 H42            1.0033     6.4474    -0.6493 H       
  43 H43            2.3000     7.5115    -0.5553 H       
  44 H44           -0.8392    -1.9832    -1.5379 H       
  45 H45           -0.4320    -2.6287     0.0701 H       
  46 H46           -2.4989    -3.6801    -0.7145 H       
  47 H47           -2.8769    -2.5988     0.6479 H       
  48 H48           -4.9408    -2.8773    -2.3904 H       
  49 H49           -4.7579    -3.4829    -0.7204 H       
  50 H50           -6.7465    -1.7022    -1.5027 H       
  51 H51           -6.1023    -1.7921     0.1693 H       
  52 H52           -5.2724     0.1116    -2.0931 H       
  53 H53           -5.6152     0.5027    -0.3745 H       
  54 H54           -3.5840    -0.5359     0.3856 H       
  55 H55           -3.0485     0.1837    -1.1639 H       
  56 H56            4.6028    10.0208    -0.4407 H       
  57 H57            9.1496     8.4772     0.2593 H       
  58 H58            9.6568     3.8427     0.6313 H       
  59 H59           11.9700     3.0829     0.9803 H       
  60 H60           13.8012     4.7204     1.1102 H       
  61 H61           13.3315     7.1251     0.8902 H       
  62 H62           11.0261     7.9052     0.5339 H       
@<TRIPOS>BOND
   1    1    2 ar
   2    1    6 ar
   3    1   37 1
   4    2    3 ar
   5    2    7 1
   6    3    4 ar
   7    3   38 1
   8    4    5 ar
   9    4   39 1
  10    5    6 ar
  11    5    8 1
  12    6   40 1
  13    7   17 1
  14    8    9 1
  15    8   41 1
  16    9   10 2
  17    9   11 1
  18   10   13 1
  19   11   12 2
  20   12   13 1
  21   12   15 1
  22   13   14 1
  23   14   16 ar
  24   14   24 ar
  25   15   42 1
  26   15   43 1
  27   16   27 ar
  28   16   30 1
  29   17   18 1
  30   17   44 1
  31   17   45 1
  32   18   19 1
  33   18   46 1
  34   18   47 1
  35   19   20 1
  36   19   23 1
  37   20   21 1
  38   20   48 1
  39   20   49 1
  40   21   22 1
  41   21   50 1
  42   21   51 1
  43   22   23 1
  44   22   52 1
  45   22   53 1
  46   23   54 1
  47   23   55 1
  48   24   25 ar
  49   25   26 ar
  50   25   56 1
  51   26   27 ar
  52   27   28 1
  53   28   29 2
  54   28   57 1
  55   29   30 1
  56   29   31 1
  57   31   32 ar
  58   31   36 ar
  59   32   33 ar
  60   32   58 1
  61   33   34 ar
  62   33   59 1
  63   34   35 ar
  64   34   60 1
  65   35   36 ar
  66   35   61 1
  67   36   62 1

#	End of record

