#	Name: ASD10100031
#	Creating user name:	WinNT
#	Creation time:	15. 06. 2019 21:24

#	Modifying user name:	WinNT
#	Modification time:	15. 06. 2019 21:24

#	Program:	/corina/corina34_cracker 3.40 0067  02.08.2006

@<TRIPOS>MOLECULE
ASD10100031
  61   63    0    0    0
SMALL
NO_CHARGES


@<TRIPOS>ATOM
   1 P1            -0.0180     1.4758     0.0102 P.3     
   2 P2            -0.7058     1.5880     2.8911 P.3     
   3 O3             0.0021    -0.0041     0.0020 O.2     
   4 O4             1.4924     2.0330    -0.0013 O.3     
   5 O5             0.7082     1.4468     3.3047 O.2     
   6 O6            -1.4721     0.1895     3.1129 O.3     
   7 C7            -0.4354     1.6326    -2.6245 C.3     
   8 O8            -0.7967     2.0091    -1.2942 O.3     
   9 C9            -1.3752     2.3148    -3.6206 C.3     
  10 O10           -1.1663     3.7316    -3.5937 O.3     
  11 C11           -1.0665     1.8249    -5.0518 C.3     
  12 O12           -2.0127     0.8376    -5.4664 O.3     
  13 C13           -1.2230     3.1253    -5.8863 C.3     
  14 C14           -0.7108     4.1849    -4.8784 C.3     
  15 C15           -1.4248     2.7157     5.2044 C.3     
  16 O16           -1.4119     2.7331     3.7756 O.3     
  17 C17           -1.4581     4.1524     5.7322 C.3     
  18 O18           -0.3311     4.8723     5.2286 O.3     
  19 C19           -2.7494     4.8303     5.2638 C.3     
  20 O20           -2.7604     4.9037     3.8368 O.3     
  21 C21           -3.9485     4.0068     5.7438 C.3     
  22 O22           -5.1564     4.5902     5.2512 O.3     
  23 C23           -3.8190     2.5757     5.2156 C.3     
  24 C24           -3.5236     8.0163    -3.5680 C.3     
  25 O25           -2.5829     2.0146     5.6621 O.3     
  26 C26           -4.9818     1.7310     5.7403 C.3     
  27 N27           -1.2828     5.4980    -5.1865 N.am    
  28 C28           -1.0024     6.0877    -6.3628 C.2     
  29 O29           -0.2766     5.5231    -7.1583 O.2     
  30 N30           -1.5143     7.2936    -6.6717 N.am    
  31 C31           -2.3212     7.9326    -5.8006 C.2     
  32 O32           -2.7852     9.0235    -6.0794 O.2     
  33 C33           -2.6245     7.3233    -4.5592 C.2     
  34 C34           -2.1018     6.1106    -4.2775 C.2     
  35 O35           -0.7716     1.9950     1.3348 O.3     
  36 H36            1.5557     2.9980     0.0033 H       
  37 H37           -2.4058     0.2086     2.8622 H       
  38 H38            0.5909     1.9412    -2.8234 H       
  39 H39           -0.5166     0.5508    -2.7307 H       
  40 H40           -2.4107     2.0888    -3.3662 H       
  41 H41           -0.0499     1.4375    -5.1184 H       
  42 H42           -1.8614     0.4982    -6.3592 H       
  43 H43           -0.5976     3.0971    -6.7785 H       
  44 H44           -2.2668     3.3023    -6.1458 H       
  45 H45            0.3780     4.2314    -4.8990 H       
  46 H46           -0.5284     2.2149     5.5700 H       
  47 H47           -1.4260     4.1411     6.8216 H       
  48 H48            0.5222     4.4951     5.4830 H       
  49 H49           -2.8054     5.8357     5.6811 H       
  50 H50           -2.0234     5.4061     3.4631 H       
  51 H51           -3.9684     3.9934     6.8335 H       
  52 H52           -5.9578     4.1190     5.5173 H       
  53 H53           -3.8405     2.5871     4.1259 H       
  54 H54           -3.8454     8.9740    -3.9770 H       
  55 H55           -4.3962     7.3933    -3.3717 H       
  56 H56           -2.9794     8.1826    -2.6383 H       
  57 H57           -5.9246     2.1597     5.4005 H       
  58 H58           -4.8895     0.7122     5.3641 H       
  59 H59           -4.9597     1.7194     6.8300 H       
  60 H60           -1.3017     7.7047    -7.5241 H       
  61 H61           -2.3257     5.6284    -3.3375 H       
@<TRIPOS>BOND
   1    1    3 2
   2    1    4 1
   3    1    8 1
   4    1   35 1
   5    2    5 2
   6    2    6 1
   7    2   16 1
   8    2   35 1
   9    4   36 1
  10    6   37 1
  11    7    8 1
  12    7    9 1
  13    7   38 1
  14    7   39 1
  15    9   10 1
  16    9   11 1
  17    9   40 1
  18   10   14 1
  19   11   12 1
  20   11   13 1
  21   11   41 1
  22   12   42 1
  23   13   14 1
  24   13   43 1
  25   13   44 1
  26   14   27 1
  27   14   45 1
  28   15   16 1
  29   15   17 1
  30   15   25 1
  31   15   46 1
  32   17   18 1
  33   17   19 1
  34   17   47 1
  35   18   48 1
  36   19   20 1
  37   19   21 1
  38   19   49 1
  39   20   50 1
  40   21   22 1
  41   21   23 1
  42   21   51 1
  43   22   52 1
  44   23   25 1
  45   23   26 1
  46   23   53 1
  47   24   33 1
  48   24   54 1
  49   24   55 1
  50   24   56 1
  51   26   57 1
  52   26   58 1
  53   26   59 1
  54   27   28 am
  55   27   34 1
  56   28   29 2
  57   28   30 am
  58   30   31 am
  59   30   60 1
  60   31   32 2
  61   31   33 1
  62   33   34 2
  63   34   61 1

#	End of record

