#	Name: ASD11060003
#	Creating user name:	WinNT
#	Creation time:	15. 06. 2019 21:29

#	Modifying user name:	WinNT
#	Modification time:	15. 06. 2019 21:29

#	Program:	/corina/corina34_cracker 3.40 0067  02.08.2006

@<TRIPOS>MOLECULE
ASD11060003
  56   59    0    0    0
SMALL
NO_CHARGES


@<TRIPOS>ATOM
   1 N1            -0.5812     0.7571    -0.0526 N.pl3   
   2 C2             0.6877     1.2982     0.1402 C.ar    
   3 C3             1.8354     0.6656    -0.3284 C.ar    
   4 S4             1.7298    -0.8665    -1.1888 S.3     
   5 C5             0.1243    -1.4577    -0.7746 C.ar    
   6 C6            -0.8391    -0.5960    -0.2582 C.ar    
   7 C7             0.8042     2.5057     0.8202 C.ar    
   8 C8             2.0471     3.0745     1.0259 C.ar    
   9 C9             3.1845     2.4458     0.5567 C.ar    
  10 C10            3.0801     1.2438    -0.1189 C.ar    
  11 C11           -2.0976    -1.0937     0.0621 C.ar    
  12 C12           -0.1773    -2.7990    -0.9678 C.ar    
  13 C13           -1.4324    -3.2834    -0.6471 C.ar    
  14 C14           -2.3902    -2.4306    -0.1321 C.ar    
  15 C15           -1.7238     1.6737    -0.0317 C.3     
  16 C16           -2.2301     1.8250     1.4042 C.3     
  17 C17           -3.4235     2.7822     1.4260 C.3     
  18 C18           -4.8955     4.0127     2.9039 C.3     
  19 N19           -3.9096     2.9274     2.8046 N.3     
  20 C20           -2.7941     3.1463     3.7361 C.3     
  21 C21           -3.7574    -2.9593     0.2179 C.3     
  22 C22           -5.4347     4.0791     4.3347 C.3     
  23 N23           -4.3193     4.2980     5.2661 N.3     
  24 C24           -3.3334     3.2128     5.1669 C.3     
  25 C25           -4.8054     4.4433     6.6447 C.3     
  26 C26           -3.6134     4.5818     7.5939 C.3     
  27 O27           -2.8706     5.7553     7.2575 O.3     
  28 F28           -4.5972    -2.8542    -0.8961 F       
  29 F29           -3.6547    -4.3013     0.5996 F       
  30 F30           -4.2893    -2.2132     1.2750 F       
  31 H31           -0.0813     3.0019     1.1892 H       
  32 H32            2.1293     4.0127     1.5544 H       
  33 H33            4.1543     2.8930     0.7172 H       
  34 H34            3.9699     0.7530    -0.4847 H       
  35 H35           -2.8502    -0.4322     0.4650 H       
  36 H36            0.5705    -3.4663    -1.3700 H       
  37 H37           -1.6638    -4.3273    -0.7992 H       
  38 H38           -1.4156     2.6473    -0.4127 H       
  39 H39           -2.5215     1.2743    -0.6580 H       
  40 H40           -2.5383     0.8513     1.7852 H       
  41 H41           -1.4324     2.2243     2.0305 H       
  42 H42           -3.1153     3.7558     1.0450 H       
  43 H43           -4.2211     2.3828     0.7997 H       
  44 H44           -4.4202     4.9601     2.6500 H       
  45 H45           -5.7174     3.8214     2.2140 H       
  46 H46           -2.0841     2.3235     3.6529 H       
  47 H47           -2.2949     4.0840     3.4916 H       
  48 H48           -6.1448     4.9020     4.4179 H       
  49 H49           -5.9339     3.1415     4.5791 H       
  50 H50           -3.8087     2.2653     5.4208 H       
  51 H51           -2.5114     3.4040     5.8568 H       
  52 H52           -5.4327     5.3317     6.7171 H       
  53 H53           -5.3880     3.5638     6.9191 H       
  54 H54           -3.9731     4.6612     8.6197 H       
  55 H55           -2.9711     3.7061     7.5008 H       
  56 H56           -2.0985     5.9066     7.8197 H       
@<TRIPOS>BOND
   1    1    2 1
   2    1    6 1
   3    1   15 1
   4    2    3 ar
   5    2    7 ar
   6    3    4 1
   7    3   10 ar
   8    4    5 1
   9    5   12 ar
  10    5    6 ar
  11    6   11 ar
  12    7    8 ar
  13    7   31 1
  14    8    9 ar
  15    8   32 1
  16    9   10 ar
  17    9   33 1
  18   10   34 1
  19   11   14 ar
  20   11   35 1
  21   12   13 ar
  22   12   36 1
  23   13   14 ar
  24   13   37 1
  25   14   21 1
  26   15   16 1
  27   15   38 1
  28   15   39 1
  29   16   17 1
  30   16   40 1
  31   16   41 1
  32   17   19 1
  33   17   42 1
  34   17   43 1
  35   18   19 1
  36   18   22 1
  37   18   44 1
  38   18   45 1
  39   19   20 1
  40   20   24 1
  41   20   46 1
  42   20   47 1
  43   21   28 1
  44   21   29 1
  45   21   30 1
  46   22   23 1
  47   22   48 1
  48   22   49 1
  49   23   24 1
  50   23   25 1
  51   24   50 1
  52   24   51 1
  53   25   26 1
  54   25   52 1
  55   25   53 1
  56   26   27 1
  57   26   54 1
  58   26   55 1
  59   27   56 1

#	End of record

