#	Name: ASD10950065
#	Creating user name:	WinNT
#	Creation time:	15. 06. 2019 21:28

#	Modifying user name:	WinNT
#	Modification time:	15. 06. 2019 21:28

#	Program:	/corina/corina34_cracker 3.40 0067  02.08.2006

@<TRIPOS>MOLECULE
ASD10950065
  61   65    0    0    0
SMALL
NO_CHARGES


@<TRIPOS>ATOM
   1 C1            -0.3903     1.4572     0.1475 C.3     
   2 O2            -0.3518     0.0057     0.1510 O.3     
   3 C3             0.4864    -0.5818     1.0268 C.2     
   4 O4             1.1664     0.0999     1.7673 O.2     
   5 C5             0.5784    -2.0550     1.0867 C.ar    
   6 C6             1.4461    -2.6671     1.9933 C.ar    
   7 C7             1.5271    -4.0432     2.0439 C.ar    
   8 C8             0.7511    -4.8167     1.1989 C.ar    
   9 C9            -0.1109    -4.2166     0.2981 C.ar    
  10 C10           -0.2061    -2.8416     0.2409 C.ar    
  11 C11            0.8454    -6.3195     1.2596 C.3     
  12 C12           -0.4159    -6.8952     1.8600 C.2     
  13 C13           -0.9659    -7.6979     0.9179 C.2     
  14 C14           -0.1159    -7.6789    -0.2918 C.2     
  15 O15           -0.3414    -8.2986    -1.3122 O.2     
  16 N16            0.9440    -6.8740    -0.0956 N.am    
  17 C17            2.0083    -6.5988    -1.0640 C.3     
  18 C18            1.6241    -5.3853    -1.9130 C.3     
  19 C19            2.7189    -5.1023    -2.9092 C.ar    
  20 C20            3.6844    -4.1869    -2.6228 C.ar    
  21 C21            4.7047    -3.9119    -3.5316 C.ar    
  22 C22            4.7654    -4.5511    -4.7315 C.ar    
  23 C23            3.7862    -5.5034    -5.0624 C.ar    
  24 C24            2.7515    -5.7865    -4.1363 C.ar    
  25 C25            1.7723    -6.7388    -4.4672 C.ar    
  26 C26            1.8303    -7.3747    -5.6690 C.ar    
  27 C27            2.8481    -7.0965    -6.5796 C.ar    
  28 C28            3.8157    -6.1837    -6.2918 C.ar    
  29 O29           -2.1104    -8.4041     1.0608 O.3     
  30 C30           -0.9424    -6.6353     3.2022 C.2     
  31 O31           -1.9960    -6.0430     3.3380 O.2     
  32 C32           -0.1915    -7.0940     4.3941 C.ar    
  33 C33           -0.6152    -6.7576     5.6841 C.ar    
  34 C34            0.1151    -7.2066     6.7670 C.ar    
  35 N35            1.1965    -7.9411     6.5967 N.ar    
  36 C36            1.6304    -8.2806     5.3991 C.ar    
  37 C37            0.9578    -7.8803     4.2611 C.ar    
  38 H38            0.6001     1.8463    -0.0888 H       
  39 H39           -1.1037     1.7999    -0.6020 H       
  40 H40           -0.6962     1.8149     1.1306 H       
  41 H41            2.0527    -2.0646     2.6532 H       
  42 H42            2.1981    -4.5180     2.7445 H       
  43 H43           -0.7136    -4.8261    -0.3589 H       
  44 H44           -0.8793    -2.3744    -0.4626 H       
  45 H45            1.7114    -6.6166     1.8510 H       
  46 H46            2.9376    -6.3915    -0.5334 H       
  47 H47            2.1446    -7.4659    -1.7103 H       
  48 H48            0.6948    -5.5927    -2.4436 H       
  49 H49            1.4879    -4.5182    -1.2667 H       
  50 H50            3.6594    -3.6655    -1.6773 H       
  51 H51            5.4583    -3.1803    -3.2799 H       
  52 H52            5.5617    -4.3275    -5.4260 H       
  53 H53            0.9781    -6.9651    -3.7711 H       
  54 H54            1.0766    -8.1061    -5.9207 H       
  55 H55            2.8713    -7.6156    -7.5264 H       
  56 H56            4.5983    -5.9784    -7.0072 H       
  57 H57           -2.3517    -8.9239     0.2819 H       
  58 H58           -1.4998    -6.1556     5.8311 H       
  59 H59           -0.2040    -6.9522     7.7670 H       
  60 H60            2.5216    -8.8836     5.3066 H       
  61 H61            1.3189    -8.1622     3.2831 H       
@<TRIPOS>BOND
   1    1    2 1
   2    1   38 1
   3    1   39 1
   4    1   40 1
   5    2    3 1
   6    3    4 2
   7    3    5 1
   8    5    6 ar
   9    5   10 ar
  10    6    7 ar
  11    6   41 1
  12    7    8 ar
  13    7   42 1
  14    8    9 ar
  15    8   11 1
  16    9   10 ar
  17    9   43 1
  18   10   44 1
  19   11   12 1
  20   11   16 1
  21   11   45 1
  22   12   13 2
  23   12   30 1
  24   13   14 1
  25   13   29 1
  26   14   15 2
  27   14   16 am
  28   16   17 1
  29   17   18 1
  30   17   46 1
  31   17   47 1
  32   18   19 1
  33   18   48 1
  34   18   49 1
  35   19   20 ar
  36   19   24 ar
  37   20   21 ar
  38   20   50 1
  39   21   22 ar
  40   21   51 1
  41   22   23 ar
  42   22   52 1
  43   23   24 ar
  44   23   28 ar
  45   24   25 ar
  46   25   26 ar
  47   25   53 1
  48   26   27 ar
  49   26   54 1
  50   27   28 ar
  51   27   55 1
  52   28   56 1
  53   29   57 1
  54   30   31 2
  55   30   32 1
  56   32   33 ar
  57   32   37 ar
  58   33   34 ar
  59   33   58 1
  60   34   35 ar
  61   34   59 1
  62   35   36 ar
  63   36   37 ar
  64   36   60 1
  65   37   61 1

#	End of record

