#	Name: ASD11030079
#	Creating user name:	WinNT
#	Creation time:	15. 06. 2019 21:29

#	Modifying user name:	WinNT
#	Modification time:	15. 06. 2019 21:29

#	Program:	/corina/corina34_cracker 3.40 0067  02.08.2006

@<TRIPOS>MOLECULE
ASD11030079
  31   33    0    0    0
SMALL
NO_CHARGES


@<TRIPOS>ATOM
   1 C1            -0.0167     1.3806    -0.0974 C.ar    
   2 C2             0.0021    -0.0049    -0.0521 C.ar    
   3 C3             1.1737     2.0910    -0.1079 C.ar    
   4 C4             2.3954     1.4276    -0.0738 C.ar    
   5 C5             2.4349     0.0464    -0.0289 C.ar    
   6 C6             1.2360    -0.6782    -0.0171 C.ar    
   7 C7             1.2332    -2.1490     0.0309 C.2     
   8 C8            -0.0278    -2.7996     0.0401 C.2     
   9 C9            -1.1673    -2.0534     0.0050 C.2     
  10 O10           -1.1483    -0.7103    -0.0418 O.3     
  11 O11            2.2750    -2.7845     0.0611 O.2     
  12 C12           -2.4694    -2.7451     0.0147 C.ar    
  13 C13           -3.4807    -2.3236     0.8828 C.ar    
  14 C14           -2.6983    -3.8208    -0.8482 C.ar    
  15 C15           -4.6956    -2.9728     0.8885 C.ar    
  16 C16           -4.9165    -4.0455     0.0334 C.ar    
  17 C17           -3.9162    -4.4641    -0.8357 C.ar    
  18 O18            1.1464     3.4475    -0.1523 O.3     
  19 O19            3.6264    -0.6028     0.0035 O.3     
  20 O20           -6.1155    -4.6828     0.0426 O.3     
  21 O21           -0.0984    -4.1580     0.0833 O.3     
  22 H22           -0.9594     1.9067    -0.1290 H       
  23 H23            3.3156     1.9929    -0.0828 H       
  24 H24           -3.3097    -1.4904     1.5484 H       
  25 H25           -1.9214    -4.1468    -1.5240 H       
  26 H26           -5.4775    -2.6478     1.5589 H       
  27 H27           -4.0923    -5.2983    -1.4986 H       
  28 H28            1.1292     3.8693     0.7177 H       
  29 H29            3.9631    -0.7624     0.8958 H       
  30 H30           -6.7625    -4.3126    -0.5733 H       
  31 H31            0.7633    -4.5962     0.1055 H       
@<TRIPOS>BOND
   1    1    2 ar
   2    1    3 ar
   3    1   22 1
   4    2    6 ar
   5    2   10 1
   6    3    4 ar
   7    3   18 1
   8    4    5 ar
   9    4   23 1
  10    5    6 ar
  11    5   19 1
  12    6    7 1
  13    7    8 1
  14    7   11 2
  15    8    9 2
  16    8   21 1
  17    9   10 1
  18    9   12 1
  19   12   13 ar
  20   12   14 ar
  21   13   15 ar
  22   13   24 1
  23   14   17 ar
  24   14   25 1
  25   15   16 ar
  26   15   26 1
  27   16   17 ar
  28   16   20 1
  29   17   27 1
  30   18   28 1
  31   19   29 1
  32   20   30 1
  33   21   31 1

#	End of record

