#	Name: ASD10420191
#	Creating user name:	WinNT
#	Creation time:	15. 06. 2019 21:27

#	Modifying user name:	WinNT
#	Modification time:	15. 06. 2019 21:27

#	Program:	/corina/corina34_cracker 3.40 0067  02.08.2006

@<TRIPOS>MOLECULE
ASD10420191
  31   33    0    0    0
SMALL
NO_CHARGES


@<TRIPOS>ATOM
   1 C1            -0.0168     1.3854     0.0097 C.ar    
   2 C2             0.0021    -0.0041     0.0020 C.ar    
   3 C3            -1.1897    -0.7187     0.0091 C.ar    
   4 C4            -2.3963    -0.0508     0.0242 C.ar    
   5 C5            -2.4193     1.3457     0.0324 C.ar    
   6 C6            -1.2193     2.0604     0.0305 C.ar    
   7 Cl7            1.4753     2.2727     0.0002 Cl      
   8 Cl8           -1.1597    -2.4544    -0.0017 Cl      
   9 C9            -3.7091     2.0646     0.0481 C.2     
  10 N10           -4.9042     1.5181     0.0561 N.2     
  11 N11           -5.7973     2.4441     0.0692 N.2     
  12 C12           -5.2086     3.6182     0.0701 C.2     
  13 O13           -3.8769     3.4027     0.0626 O.3     
  14 C14           -5.8813     4.9334     0.0825 C.ar    
  15 C15           -7.2753     5.0079     0.0953 C.ar    
  16 C16           -7.8971     6.2395     0.1068 C.ar    
  17 C17           -7.1424     7.3989     0.1052 C.ar    
  18 C18           -5.7602     7.3323     0.0920 C.ar    
  19 C19           -5.1257     6.1077     0.0872 C.ar    
  20 S20           -9.6564     6.3358     0.1231 S.o     
  21 O21           -9.9462     6.6608     1.4757 O.2     
  22 O22           -9.9346     7.6404    -0.6097 O.3     
  23 O23            1.1888    -0.6656    -0.0129 O.3     
  24 H24           -3.3221    -0.6069     0.0293 H       
  25 H25           -1.2332     3.1403     0.0368 H       
  26 H26           -7.8656     4.1035     0.0959 H       
  27 H27           -7.6342     8.3604     0.1138 H       
  28 H28           -5.1770     8.2413     0.0904 H       
  29 H29           -4.0469     6.0571     0.0773 H       
  30 H30          -10.8745     7.8523    -0.6925 H       
  31 H31            1.5408    -0.8618     0.8662 H       
@<TRIPOS>BOND
   1    1    2 ar
   2    1    7 1
   3    1    6 ar
   4    2    3 ar
   5    2   23 1
   6    3    4 ar
   7    3    8 1
   8    4    5 ar
   9    4   24 1
  10    5    6 ar
  11    5    9 1
  12    6   25 1
  13    9   10 2
  14    9   13 1
  15   10   11 1
  16   11   12 2
  17   12   13 1
  18   12   14 1
  19   14   15 ar
  20   14   19 ar
  21   15   16 ar
  22   15   26 1
  23   16   17 ar
  24   16   20 1
  25   17   18 ar
  26   17   27 1
  27   18   19 ar
  28   18   28 1
  29   19   29 1
  30   20   21 2
  31   20   22 1
  32   22   30 1
  33   23   31 1

#	End of record

