#	Name: ASD14640034
#	Creating user name:	WinNT
#	Creation time:	15. 06. 2019 21:31

#	Modifying user name:	WinNT
#	Modification time:	15. 06. 2019 21:31

#	Program:	/corina/corina34_cracker 3.40 0067  02.08.2006

@<TRIPOS>MOLECULE
ASD14640034
  27   29    0    0    0
SMALL
NO_CHARGES


@<TRIPOS>ATOM
   1 C1            -0.0173     1.4278     0.0099 C.2     
   2 C2             1.1976     2.1556     0.0022 C.2     
   3 C3             1.1687     3.5120     0.0097 C.2     
   4 C4            -5.7476    -1.2887     0.7883 C.2     
   5 N5             0.0175    -1.1399    -0.0042 N.1     
   6 C6             0.0021    -0.0041     0.0020 C.1     
   7 C7            -1.2294     2.1098     0.0309 C.2     
   8 N8            -1.2440     3.4742     0.0383 N.pl3   
   9 C9            -2.2436     4.4033     0.0577 C.2     
  10 N10           -1.6811     5.5825     0.0558 N.2     
  11 N11           -0.4001     5.4675     0.0367 N.2     
  12 C12           -0.0691     4.1870     0.0251 C.2     
  13 N13           -2.4105     1.4105     0.0438 N.pl3   
  14 C14           -2.3945    -0.0543     0.0353 C.3     
  15 C15           -3.8097    -0.5722     0.0525 C.2     
  16 O16           -4.5319    -0.8477     1.1508 O.3     
  17 C17           -5.8109    -1.3042    -0.5552 C.2     
  18 C18           -4.5604    -0.8458    -1.0296 C.2     
  19 H19            2.1428     1.6333    -0.0092 H       
  20 H20            2.0914     4.0733     0.0043 H       
  21 H21           -6.5386    -1.5850     1.4613 H       
  22 H22           -3.3043     4.2009     0.0719 H       
  23 H23           -3.2556     1.8863     0.0584 H       
  24 H24           -1.8895    -0.4070    -0.8639 H       
  25 H25           -1.8642    -0.4170     0.9159 H       
  26 H26           -6.6535    -1.6126    -1.1563 H       
  27 H27           -4.2662    -0.7322    -2.0625 H       
@<TRIPOS>BOND
   1    1    6 1
   2    1    2 1
   3    1    7 2
   4    2   19 1
   5    2    3 2
   6    3   20 1
   7    3   12 1
   8    4   16 1
   9    4   21 1
  10    4   17 2
  11    5    6 3
  12    7   13 1
  13    7    8 1
  14    8    9 1
  15    8   12 1
  16    9   22 1
  17    9   10 2
  18   10   11 1
  19   11   12 2
  20   13   14 1
  21   13   23 1
  22   14   24 1
  23   14   25 1
  24   14   15 1
  25   15   16 1
  26   15   18 2
  27   17   18 1
  28   17   26 1
  29   18   27 1

#	End of record

