#	Name: ASD11000218
#	Creating user name:	WinNT
#	Creation time:	15. 06. 2019 21:28

#	Modifying user name:	WinNT
#	Modification time:	15. 06. 2019 21:28

#	Program:	/corina/corina34_cracker 3.40 0067  02.08.2006

@<TRIPOS>MOLECULE
ASD11000218
  51   54    0    0    0
SMALL
NO_CHARGES


@<TRIPOS>ATOM
   1 N1            -0.0172     1.3215    -0.0112 N.ar    
   2 C2             0.0016    -0.0034    -0.0060 C.ar    
   3 N3             1.1403    -0.6810    -0.0155 N.ar    
   4 C4             2.3025    -0.0498    -0.0305 C.ar    
   5 C5             2.3192     1.3363    -0.0364 C.ar    
   6 C6             1.1098     2.0136    -0.0261 C.ar    
   7 N7            -1.1973    -0.6965     0.0102 N.pl3   
   8 C8            -1.2008    -2.0923    -0.1029 C.ar    
   9 C9            -2.1492    -2.8423     0.5800 C.ar    
  10 C10           -0.2595    -2.7268    -0.9027 C.ar    
  11 C11           -0.2639    -4.1032    -1.0141 C.ar    
  12 C12           -1.2086    -4.8520    -0.3278 C.ar    
  13 C13           -2.1523    -4.2186     0.4675 C.ar    
  14 C14            3.6238     2.0904    -0.0530 C.3     
  15 C15            4.0504     2.3397    -1.5010 C.3     
  16 C16            5.2886     3.1985    -1.5192 C.ar    
  17 C17            6.4456     2.7503    -0.8973 C.ar    
  18 C18            7.5897     3.5192    -0.9015 C.ar    
  19 C19            7.5867     4.7571    -1.5354 C.ar    
  20 C20            6.4113     5.2082    -2.1656 C.ar    
  21 C21            5.2638     4.4089    -2.1526 C.ar    
  22 O22           -1.2126    -6.2073    -0.4384 O.3     
  23 N23            8.7165     5.5470    -1.5546 N.am    
  24 C24            8.7131     6.7439    -2.1672 C.2     
  25 C25            7.5615     7.2420    -2.8133 C.2     
  26 C26            6.4184     6.5128    -2.8301 C.2     
  27 O27            9.7300     7.4158    -2.1640 O.2     
  28 C28           -2.2134    -6.9153     0.2959 C.3     
  29 F29           -2.0650    -6.6500     1.6615 F       
  30 F30           -3.4815    -6.5001    -0.1247 F       
  31 C31            4.3471     1.0025    -2.1827 C.3     
  32 H32            3.2273    -0.6075    -0.0378 H       
  33 H33            1.0881     3.0934    -0.0307 H       
  34 H34           -2.0347    -0.2151     0.0999 H       
  35 H35           -2.8840    -2.3493     1.1993 H       
  36 H36            0.4756    -2.1439    -1.4377 H       
  37 H37            0.4681    -4.5968    -1.6361 H       
  38 H38           -2.8875    -4.8023     1.0016 H       
  39 H39            3.4983     3.0449     0.4583 H       
  40 H40            4.3891     1.5038     0.4553 H       
  41 H41            3.2473     2.8488    -2.0339 H       
  42 H42            6.4495     1.7892    -0.4046 H       
  43 H43            8.4848     3.1619    -0.4142 H       
  44 H44            4.3596     4.7504    -2.6345 H       
  45 H45            9.5254     5.2349    -1.1197 H       
  46 H46            7.5907     8.2076    -3.2962 H       
  47 H47            5.5328     6.8860    -3.3228 H       
  48 H48           -2.1045    -7.9854     0.1197 H       
  49 H49            5.1502     0.4934    -1.6499 H       
  50 H50            3.4515     0.3813    -2.1696 H       
  51 H51            4.6510     1.1801    -3.2143 H       
@<TRIPOS>BOND
   1    1    2 ar
   2    1    6 ar
   3    2    3 ar
   4    2    7 1
   5    3    4 ar
   6    4    5 ar
   7    4   32 1
   8    5    6 ar
   9    5   14 1
  10    6   33 1
  11    7    8 1
  12    7   34 1
  13    8    9 ar
  14    8   10 ar
  15    9   13 ar
  16    9   35 1
  17   10   11 ar
  18   10   36 1
  19   11   12 ar
  20   11   37 1
  21   12   13 ar
  22   12   22 1
  23   13   38 1
  24   14   15 1
  25   14   39 1
  26   14   40 1
  27   15   16 1
  28   15   31 1
  29   15   41 1
  30   16   17 ar
  31   16   21 ar
  32   17   18 ar
  33   17   42 1
  34   18   19 ar
  35   18   43 1
  36   19   20 ar
  37   19   23 1
  38   20   21 ar
  39   20   26 1
  40   21   44 1
  41   22   28 1
  42   23   24 am
  43   23   45 1
  44   24   25 1
  45   24   27 2
  46   25   26 2
  47   25   46 1
  48   26   47 1
  49   28   29 1
  50   28   30 1
  51   28   48 1
  52   31   49 1
  53   31   50 1
  54   31   51 1

#	End of record

