#	Name: ASD11320003
#	Creating user name:	WinNT
#	Creation time:	15. 06. 2019 21:29

#	Modifying user name:	WinNT
#	Modification time:	15. 06. 2019 21:29

#	Program:	/corina/corina34_cracker 3.40 0067  02.08.2006

@<TRIPOS>MOLECULE
ASD11320003
  62   68    0    0    0
SMALL
NO_CHARGES


@<TRIPOS>ATOM
   1 O1             0.0019    -0.0039    -0.0126 O.2     
   2 C2            -0.0144     1.2117     0.0087 C.2     
   3 C3             1.2518     1.9660     0.0007 C.ar    
   4 C4             1.2512     3.3514    -0.0960 C.ar    
   5 C5             2.4456     4.0594    -0.1029 C.ar    
   6 C6             3.6514     3.4343    -0.0164 C.ar    
   7 C7             3.7274     2.0347     0.0835 C.ar    
   8 C8             2.5342     1.2720     0.1004 C.ar    
   9 C9             2.6056    -0.1226     0.1997 C.ar    
  10 C10            3.8230    -0.7308     0.2791 C.ar    
  11 C11            4.9985     0.0163     0.2628 C.ar    
  12 C12            4.9650     1.3745     0.1731 C.ar    
  13 N13           -1.1905     1.8695     0.0341 N.am    
  14 C14           -2.3764     1.1633     0.0359 C.2     
  15 N15           -2.3158    -0.1390     0.0125 N.2     
  16 C16           -3.4349    -0.9099     0.0128 C.2     
  17 N17           -3.6711    -2.2024    -0.0071 N.2     
  18 N18           -5.0549    -2.4138     0.0059 N.pl3   
  19 C19           -5.6944    -1.2315     0.0345 C.2     
  20 C20           -4.7459    -0.2418     0.0405 C.2     
  21 C21           -4.7563     1.2262     0.0670 C.2     
  22 N22           -3.5481     1.8706     0.0677 N.pl3   
  23 N23           -3.8397     3.2424     0.0950 N.2     
  24 C24           -5.1531     3.3585     0.1090 C.2     
  25 N25           -5.7033     2.1368     0.0947 N.2     
  26 C26           -5.8996     4.6335     0.1394 C.2     
  27 C27           -5.3527     5.8781     0.1571 C.2     
  28 C28           -6.4247     6.7921     0.1834 C.2     
  29 C29           -7.5611     6.0680     0.1804 C.2     
  30 O30           -7.2402     4.7645     0.1484 O.3     
  31 C31           -5.7076    -3.7252    -0.0101 C.3     
  32 C32           -5.2081    -4.5288    -1.2125 C.3     
  33 C33           -5.8898    -5.8985    -1.2292 C.3     
  34 C34           -5.3978    -6.6900    -2.4135 C.ar    
  35 C35           -4.2862    -7.5022    -2.2884 C.ar    
  36 C36           -3.8349    -8.2282    -3.3748 C.ar    
  37 C37           -4.4955    -8.1424    -4.5860 C.ar    
  38 C38           -5.6077    -7.3310    -4.7108 C.ar    
  39 C39           -6.0615    -6.6083    -3.6233 C.ar    
  40 H40            0.3136     3.8826    -0.1667 H       
  41 H41            2.4170     5.1364    -0.1794 H       
  42 H42            4.5589     4.0197    -0.0250 H       
  43 H43            1.7015    -0.7132     0.2137 H       
  44 H44            3.8768    -1.8067     0.3561 H       
  45 H45            5.9507    -0.4891     0.3273 H       
  46 H46            5.8846     1.9407     0.1614 H       
  47 H47           -1.2035     2.8393     0.0511 H       
  48 H48           -6.7646    -1.0872     0.0500 H       
  49 H49           -4.3001     6.1194     0.1523 H       
  50 H50           -6.3497     7.8694     0.2026 H       
  51 H51           -8.5636     6.4694     0.1973 H       
  52 H52           -5.4697    -4.2607     0.9090 H       
  53 H53           -6.7870    -3.5930    -0.0846 H       
  54 H54           -5.4460    -3.9933    -2.1316 H       
  55 H55           -4.1287    -4.6611    -1.1381 H       
  56 H56           -5.6519    -6.4340    -0.3101 H       
  57 H57           -6.9692    -5.7662    -1.3037 H       
  58 H58           -3.7701    -7.5692    -1.3421 H       
  59 H59           -2.9661    -8.8621    -3.2772 H       
  60 H60           -4.1425    -8.7091    -5.4349 H       
  61 H61           -6.1236    -7.2637    -5.6573 H       
  62 H62           -6.9304    -5.9743    -3.7208 H       
@<TRIPOS>BOND
   1    1    2 2
   2    2    3 1
   3    2   13 am
   4    3    4 ar
   5    3    8 ar
   6    4    5 ar
   7    4   40 1
   8    5    6 ar
   9    5   41 1
  10    6    7 ar
  11    6   42 1
  12    7    8 ar
  13    7   12 ar
  14    8    9 ar
  15    9   10 ar
  16    9   43 1
  17   10   11 ar
  18   10   44 1
  19   11   12 ar
  20   11   45 1
  21   12   46 1
  22   13   14 1
  23   13   47 1
  24   14   15 2
  25   14   22 1
  26   15   16 1
  27   16   17 2
  28   16   20 1
  29   17   18 1
  30   18   19 1
  31   18   31 1
  32   19   20 2
  33   19   48 1
  34   20   21 1
  35   21   22 1
  36   21   25 2
  37   22   23 1
  38   23   24 2
  39   24   25 1
  40   24   26 1
  41   26   27 2
  42   26   30 1
  43   27   28 1
  44   27   49 1
  45   28   29 2
  46   28   50 1
  47   29   30 1
  48   29   51 1
  49   31   32 1
  50   31   52 1
  51   31   53 1
  52   32   33 1
  53   32   54 1
  54   32   55 1
  55   33   34 1
  56   33   56 1
  57   33   57 1
  58   34   35 ar
  59   34   39 ar
  60   35   36 ar
  61   35   58 1
  62   36   37 ar
  63   36   59 1
  64   37   38 ar
  65   37   60 1
  66   38   39 ar
  67   38   61 1
  68   39   62 1

#	End of record

