#	Name: ASD10410097
#	Creating user name:	WinNT
#	Creation time:	15. 06. 2019 21:26

#	Modifying user name:	WinNT
#	Modification time:	15. 06. 2019 21:26

#	Program:	/corina/corina34_cracker 3.40 0067  02.08.2006

@<TRIPOS>MOLECULE
ASD10410097
  65   71    0    0    0
SMALL
NO_CHARGES


@<TRIPOS>ATOM
   1 C1             0.1328     1.0885     0.4422 C.ar    
   2 C2             0.1976    -0.2897     0.2838 C.ar    
   3 C3             1.4250    -0.9092     0.0883 C.ar    
   4 C4             2.5809    -0.1549     0.0509 C.ar    
   5 C5             2.5161     1.2234     0.2088 C.ar    
   6 C6             1.2886     1.8429     0.4048 C.ar    
   7 N7             3.6884     1.9884     0.1714 N.pl3   
   8 C8             3.6559     3.2904    -0.3277 C.2     
   9 N9             4.6609     4.1331    -0.3227 N.2     
  10 N10            2.5959     3.8790    -0.8941 N.2     
  11 C11            2.9094     5.1055    -1.2530 C.2     
  12 N12            4.2029     5.3206    -0.9158 N.pl3   
  13 C13            4.9352     6.4900    -1.1172 C.ar    
  14 N14            2.0679     6.0128    -1.8681 N.pl3   
  15 N15           -0.9742    -1.0543     0.3217 N.3     
  16 C16           -0.6780    -2.4814     0.1339 C.3     
  17 C17           -1.9718    -3.2892     0.2610 C.3     
  18 N18           -2.9400    -2.8191    -0.7396 N.3     
  19 C19           -3.2362    -1.3920    -0.5517 C.3     
  20 C20           -1.9424    -0.5842    -0.6788 C.3     
  21 N21            4.3661     7.5366    -1.6930 N.ar    
  22 C22            5.0232     8.6650    -1.9028 C.ar    
  23 C23            6.3418     8.8121    -1.5320 C.ar    
  24 C24            6.9959     7.7447    -0.9210 C.ar    
  25 C25            6.2696     6.5594    -0.7058 C.ar    
  26 C26           -5.1721    -3.1250    -1.7666 C.3     
  27 C27           -5.3819    -4.3484    -2.7103 C.3     
  28 C28           -4.0299    -4.4883    -3.4745 C.3     
  29 C29           -3.0276    -4.9849    -2.4076 C.3     
  30 C30           -4.1698    -3.6216    -0.6998 C.3     
  31 C31           -3.8683    -5.0984    -1.0993 C.3     
  32 C32           -5.2591    -5.5302    -1.6848 C.3     
  33 O33            8.2372     7.5467    -0.4460 O.3     
  34 C34            8.3647     6.3061     0.0598 C.2     
  35 C35            7.2081     5.6383    -0.0592 C.2     
  36 H36           -0.8222     1.5707     0.5902 H       
  37 H37            1.4754    -1.9810    -0.0342 H       
  38 H38            3.5355    -0.6367    -0.1008 H       
  39 H39            1.2381     2.9147     0.5273 H       
  40 H40            4.5231     1.6128     0.4926 H       
  41 H41            1.1528     5.7643    -2.0723 H       
  42 H42            2.3924     6.8982    -2.0956 H       
  43 H43           -0.2482    -2.6365    -0.8558 H       
  44 H44            0.0313    -2.8088     0.8941 H       
  45 H45           -1.7592    -4.3451     0.0933 H       
  46 H46           -2.3872    -3.1558     1.2598 H       
  47 H47           -3.9454    -1.0646    -1.3119 H       
  48 H48           -3.6660    -1.2370     0.4379 H       
  49 H49           -2.1550     0.4716    -0.5111 H       
  50 H50           -1.5270    -0.7177    -1.6776 H       
  51 H51            4.5139     9.4911    -2.3767 H       
  52 H52            6.8610     9.7416    -1.7128 H       
  53 H53           -4.7524    -2.2853    -2.3206 H       
  54 H54           -6.1145    -2.8398    -1.2990 H       
  55 H55           -6.2788    -4.3245    -3.3292 H       
  56 H56           -4.1217    -5.2183    -4.2786 H       
  57 H57           -3.7157    -3.5227    -3.8707 H       
  58 H58           -2.6266    -5.9592    -2.6873 H       
  59 H59           -2.2206    -4.2635    -2.2794 H       
  60 H60           -4.6187    -3.5787     0.2926 H       
  61 H61           -3.4471    -5.7276    -0.3153 H       
  62 H62           -6.0464    -5.5013    -0.9316 H       
  63 H63           -5.2104    -6.4992    -2.1816 H       
  64 H64            9.2668     5.9073     0.4999 H       
  65 H65            7.0085     4.6252     0.2574 H       
@<TRIPOS>BOND
   1    1    2 ar
   2    1    6 ar
   3    1   36 1
   4    2    3 ar
   5    2   15 1
   6    3    4 ar
   7    3   37 1
   8    4    5 ar
   9    4   38 1
  10    5    6 ar
  11    5    7 1
  12    6   39 1
  13    7    8 1
  14    7   40 1
  15    8    9 2
  16    8   10 1
  17    9   12 1
  18   10   11 2
  19   11   12 1
  20   11   14 1
  21   12   13 1
  22   13   21 ar
  23   13   25 ar
  24   14   41 1
  25   14   42 1
  26   15   16 1
  27   15   20 1
  28   16   17 1
  29   16   43 1
  30   16   44 1
  31   17   18 1
  32   17   45 1
  33   17   46 1
  34   18   19 1
  35   18   30 1
  36   19   20 1
  37   19   47 1
  38   19   48 1
  39   20   49 1
  40   20   50 1
  41   21   22 ar
  42   22   23 ar
  43   22   51 1
  44   23   24 ar
  45   23   52 1
  46   24   25 ar
  47   24   33 1
  48   25   35 1
  49   26   27 1
  50   26   30 1
  51   26   53 1
  52   26   54 1
  53   27   28 1
  54   27   32 1
  55   27   55 1
  56   28   29 1
  57   28   56 1
  58   28   57 1
  59   29   31 1
  60   29   58 1
  61   29   59 1
  62   30   31 1
  63   30   60 1
  64   31   32 1
  65   31   61 1
  66   32   62 1
  67   32   63 1
  68   33   34 1
  69   34   35 2
  70   34   64 1
  71   35   65 1

#	End of record

