#	Name: ASD12010003
#	Creating user name:	WinNT
#	Creation time:	15. 06. 2019 21:29

#	Modifying user name:	WinNT
#	Modification time:	15. 06. 2019 21:29

#	Program:	/corina/corina34_cracker 3.40 0067  02.08.2006

@<TRIPOS>MOLECULE
ASD12010003
  47   47    0    0    0
SMALL
NO_CHARGES


@<TRIPOS>ATOM
   1 C1            -0.0162     1.3456     0.0094 C.2     
   2 C2             0.0021    -0.0041     0.0020 C.2     
   3 C3            -1.2926    -0.7753     0.0102 C.3     
   4 C4            -1.6802    -1.1365    -1.4251 C.3     
   5 C5            -2.9946    -1.9195    -1.4168 C.3     
   6 C6            -3.3822    -2.2808    -2.8521 C.3     
   7 C7            -4.6966    -3.0637    -2.8437 C.3     
   8 C8            -5.0842    -3.4250    -4.2791 C.3     
   9 C9            -6.3987    -4.2080    -4.2707 C.3     
  10 C10           -6.7862    -4.5692    -5.7061 C.3     
  11 C11           -8.1007    -5.3522    -5.6977 C.3     
  12 C12           -8.4882    -5.7135    -7.1331 C.3     
  13 C13           -9.8027    -6.4964    -7.1247 C.3     
  14 C14            1.2605     2.1061     0.0013 C.2     
  15 C15            2.5397     1.3905    -0.0147 C.2     
  16 C16            2.5580     0.0409    -0.0221 C.2     
  17 C17            1.2813    -0.7196    -0.0145 C.2     
  18 O18            1.2440     3.3210     0.0076 O.2     
  19 O19            1.2977    -1.9345    -0.0216 O.2     
  20 O20            3.7385    -0.6195    -0.0370 O.3     
  21 O21           -1.1968     2.0060     0.0186 O.3     
  22 H22           -1.1684    -1.6876     0.5936 H       
  23 H23           -2.0772    -0.1633     0.4553 H       
  24 H24           -1.8044    -0.2242    -2.0085 H       
  25 H25           -0.8956    -1.7484    -1.8702 H       
  26 H26           -2.8704    -2.8318    -0.8334 H       
  27 H27           -3.7792    -1.3076    -0.9716 H       
  28 H28           -3.5064    -1.3684    -3.4355 H       
  29 H29           -2.5976    -2.8927    -3.2972 H       
  30 H30           -4.5724    -3.9760    -2.2603 H       
  31 H31           -5.4812    -2.4518    -2.3986 H       
  32 H32           -5.2084    -2.5127    -4.8625 H       
  33 H33           -4.2996    -4.0369    -4.7242 H       
  34 H34           -6.2744    -5.1203    -3.6873 H       
  35 H35           -7.1832    -3.5960    -3.8256 H       
  36 H36           -6.9104    -3.6569    -6.2895 H       
  37 H37           -6.0016    -5.1811    -6.1512 H       
  38 H38           -7.9765    -6.2645    -5.1143 H       
  39 H39           -8.8852    -4.7403    -5.2526 H       
  40 H40           -8.6124    -4.8011    -7.7164 H       
  41 H41           -7.7036    -6.3254    -7.5782 H       
  42 H42          -10.0788    -6.7538    -8.1473 H       
  43 H43           -9.6785    -7.4087    -6.5413 H       
  44 H44          -10.5872    -5.8845    -6.6796 H       
  45 H45            3.4676     1.9432    -0.0210 H       
  46 H46            4.5130    -0.0405    -0.0412 H       
  47 H47           -1.1087     2.9690     0.0234 H       
@<TRIPOS>BOND
   1    1    2 2
   2    1   14 1
   3    1   21 1
   4    2    3 1
   5    2   17 1
   6    3    4 1
   7    3   22 1
   8    3   23 1
   9    4    5 1
  10    4   24 1
  11    4   25 1
  12    5    6 1
  13    5   26 1
  14    5   27 1
  15    6    7 1
  16    6   28 1
  17    6   29 1
  18    7    8 1
  19    7   30 1
  20    7   31 1
  21    8    9 1
  22    8   32 1
  23    8   33 1
  24    9   10 1
  25    9   34 1
  26    9   35 1
  27   10   11 1
  28   10   36 1
  29   10   37 1
  30   11   12 1
  31   11   38 1
  32   11   39 1
  33   12   13 1
  34   12   40 1
  35   12   41 1
  36   13   42 1
  37   13   43 1
  38   13   44 1
  39   14   15 1
  40   14   18 2
  41   15   16 2
  42   15   45 1
  43   16   17 1
  44   16   20 1
  45   17   19 2
  46   20   46 1
  47   21   47 1

#	End of record

