#	Name: ASD10160010
#	Creating user name:	WinNT
#	Creation time:	15. 06. 2019 21:25

#	Modifying user name:	WinNT
#	Modification time:	15. 06. 2019 21:25

#	Program:	/corina/corina34_cracker 3.40 0067  02.08.2006

@<TRIPOS>MOLECULE
ASD10160010
  31   34    0    0    0
SMALL
NO_CHARGES


@<TRIPOS>ATOM
   1 C1            -0.0167     1.3828     0.0096 C.ar    
   2 C2             0.0021    -0.0041     0.0020 C.ar    
   3 C3            -1.1843    -0.7131     0.0100 C.ar    
   4 C4            -2.3954    -0.0408     0.0252 C.ar    
   5 C5            -2.4168     1.3516     0.0328 C.ar    
   6 C6            -1.2264     2.0601     0.0306 C.ar    
   7 O7             1.1516     2.0783     0.0022 O.3     
   8 C8             1.3178    -0.7387    -0.0155 C.3     
   9 O9            -3.6831    -0.4968     0.0358 O.3     
  10 C10           -4.4831     0.6218     0.4622 C.3     
  11 O11           -3.7167     1.7681     0.0481 O.3     
  12 C12            1.4477    -1.6214     1.2044 C.ar    
  13 C13            1.5564    -2.9244     0.7343 C.ar    
  14 N14            1.5070    -2.9397    -0.6601 N.am    
  15 C15            1.3689    -1.7074    -1.1778 C.2     
  16 C16            1.4708    -1.3549     2.5545 C.ar    
  17 C17            1.6039    -2.3928     3.4609 C.ar    
  18 C18            1.7130    -3.6937     3.0055 C.ar    
  19 C19            1.6900    -3.9636     1.6525 C.ar    
  20 O20            1.2989    -1.4244    -2.3551 O.2     
  21 H21           -1.1671    -1.7930     0.0041 H       
  22 H22           -1.2406     3.1400     0.0370 H       
  23 H23            1.4812     2.2843    -0.8833 H       
  24 H24            2.1472    -0.0334    -0.0667 H       
  25 H25           -5.4534     0.6101    -0.0343 H       
  26 H26           -4.6059     0.6141     1.5453 H       
  27 H27            1.5655    -3.7472    -1.1943 H       
  28 H28            1.3857    -0.3374     2.9063 H       
  29 H29            1.6228    -2.1869     4.5209 H       
  30 H30            1.8168    -4.5033     3.7128 H       
  31 H31            1.7755    -4.9825     1.3047 H       
@<TRIPOS>BOND
   1    1    2 ar
   2    1    7 1
   3    1    6 ar
   4    2    3 ar
   5    2    8 1
   6    3    4 ar
   7    3   21 1
   8    4    5 ar
   9    4    9 1
  10    5    6 ar
  11    5   11 1
  12    6   22 1
  13    7   23 1
  14    8   12 1
  15    8   15 1
  16    8   24 1
  17    9   10 1
  18   10   11 1
  19   10   25 1
  20   10   26 1
  21   12   13 ar
  22   12   16 ar
  23   13   14 1
  24   13   19 ar
  25   14   15 am
  26   14   27 1
  27   15   20 2
  28   16   17 ar
  29   16   28 1
  30   17   18 ar
  31   17   29 1
  32   18   19 ar
  33   18   30 1
  34   19   31 1

#	End of record

