#	Name: ASD15360001
#	Creating user name:	WinNT
#	Creation time:	15. 06. 2019 21:31

#	Modifying user name:	WinNT
#	Modification time:	15. 06. 2019 21:31

#	Program:	/corina/corina34_cracker 3.40 0067  02.08.2006

@<TRIPOS>MOLECULE
ASD15360001
 141  145    0    0    0
SMALL
NO_CHARGES


@<TRIPOS>ATOM
   1 C1             8.3375     4.6541    -1.1990 C.2     
   2 C2             6.8856     4.2696    -1.0755 C.3     
   3 O3             9.2759     3.7020    -1.3206 O.3     
   4 O4             8.6564     5.8195    -1.1936 O.2     
   5 N5             6.0684     5.4797    -0.9564 N.am    
   6 C6             6.4581     3.4858    -2.3179 C.3     
   7 C7             7.3115     2.2220    -2.4423 C.3     
   8 C8             4.9841     3.0954    -2.1925 C.3     
   9 C9             5.8855     6.0533     0.2494 C.2     
  10 C10            5.0449     7.2981     0.3719 C.3     
  11 O11            6.3974     5.5678     1.2359 O.2     
  12 N12            4.5980     7.4578     1.7706 N.am    
  13 C13            3.2523     7.5010     1.9757 C.2     
  14 C14            2.7310     7.6627     3.3803 C.3     
  15 O15            2.4845     7.4110     1.0412 O.2     
  16 N16            1.3640     8.2311     3.3137 N.am    
  17 C17            2.6871     6.2988     4.0723 C.3     
  18 C18            2.2829     6.4792     5.5129 C.ar    
  19 C19            0.9462     6.4424     5.8644 C.ar    
  20 C20            0.5731     6.6075     7.1842 C.ar    
  21 C21            1.5409     6.8102     8.1573 C.ar    
  22 C22            2.8815     6.8467     7.8020 C.ar    
  23 C23            3.2498     6.6755     6.4816 C.ar    
  24 O24            1.1764     6.9733     9.4563 O.3     
  25 C25            1.2660     9.5469     3.6726 C.2     
  26 C26           -0.0875    10.2086     3.6333 C.3     
  27 O27            2.2488    10.1693     4.0153 O.2     
  28 C28           -0.8780     9.6882     2.4312 C.3     
  29 C29           -2.2965    10.2603     2.4672 C.3     
  30 C30           -3.0341     9.8762     1.1830 C.3     
  31 C31           -4.4527    10.4484     1.2190 C.3     
  32 N32           -5.1609    10.0795    -0.0140 N.3     
  33 N33            0.0995    11.6684     3.5084 N.am    
  34 C34           -0.3101    12.2340     2.3393 C.2     
  35 C35           -0.1448    13.7195     2.1472 C.3     
  36 O36           -0.8008    11.5517     1.4649 O.2     
  37 N37            0.0317    13.9911     0.7011 N.am    
  38 C38           -1.3909    14.4456     2.6581 C.3     
  39 C39           -1.1728    15.9346     2.5781 C.ar    
  40 C40            1.2773    14.4255     0.3411 C.2     
  41 C41            1.5476    14.7236    -1.1112 C.3     
  42 O42            2.1471    14.5685     1.1741 O.2     
  43 N43            2.9957    14.5822    -1.3649 N.am    
  44 C44            3.4128    13.3768    -1.8425 C.2     
  45 C45            0.7744    13.7377    -1.9894 C.3     
  46 C46            1.1165    13.9794    -3.4371 C.ar    
  47 C47            1.5408    12.9307    -4.2315 C.ar    
  48 C48            1.8546    13.1525    -5.5593 C.ar    
  49 C49            1.7436    14.4229    -6.0929 C.ar    
  50 C50            1.3185    15.4714    -5.2988 C.ar    
  51 C51            1.0005    15.2488    -3.9720 C.ar    
  52 C52            4.8793    13.1687    -2.1204 C.3     
  53 O53            2.6160    12.4842    -2.0408 O.2     
  54 C54            5.0825    11.8131    -2.8001 C.3     
  55 N55            5.6244    13.1992    -0.8594 N.am    
  56 C56            6.0223    14.3776    -0.3401 C.2     
  57 C57            6.7887    14.4090     0.9570 C.3     
  58 O58            5.7635    15.4127    -0.9168 O.2     
  59 N59            6.6920    15.7493     1.5506 N.3     
  60 C60            8.2576    14.0744     0.6898 C.3     
  61 S61            6.3290    10.8608    -1.8889 S.3     
  62 C62            5.8771     8.5197    -0.0232 C.3     
  63 S63            5.4625     9.0107    -1.7196 S.3     
  64 C64           -1.5249    16.6219     1.4305 C.ar    
  65 C65           -1.3274    17.9856     1.3518 C.ar    
  66 C66           -0.7723    18.6700     2.4312 C.ar    
  67 C67           -0.4195    17.9726     3.5847 C.ar    
  68 C68           -0.6266    16.6098     3.6547 C.ar    
  69 C69           -0.5572    20.1361     2.3523 C.ar    
  70 C70           -0.0021    20.8205     3.4316 C.ar    
  71 C71            0.1957    22.1841     3.3528 C.ar    
  72 C72           -0.1564    22.8714     2.2052 C.ar    
  73 C73           -0.7082    22.1971     1.1309 C.ar    
  74 C74           -0.9043    20.8325     1.1964 C.ar    
  75 H75            6.7480     3.6496    -0.1896 H       
  76 H76           10.1931     3.9974    -1.4009 H       
  77 H77            5.6590     5.8680    -1.7453 H       
  78 H78            6.5957     4.1057    -3.2038 H       
  79 H79            7.1740     1.6020    -1.5564 H       
  80 H80            7.0070     1.6636    -3.3275 H       
  81 H81            8.3617     2.5001    -2.5317 H       
  82 H82            4.3761     3.9958    -2.1039 H       
  83 H83            4.6795     2.5370    -3.0777 H       
  84 H84            4.8465     2.4755    -1.3066 H       
  85 H85            4.1766     7.2183    -0.2821 H       
  86 H86            5.2291     7.5284     2.5038 H       
  87 H87            3.3813     8.3377     3.9367 H       
  88 H88            0.5956     7.7084     3.0356 H       
  89 H89            1.9622     5.6591     3.5689 H       
  90 H90            3.6731     5.8364     4.0268 H       
  91 H91            0.1931     6.2849     5.1064 H       
  92 H92           -0.4712     6.5791     7.4582 H       
  93 H93            3.6368     7.0044     8.5576 H       
  94 H94            4.2932     6.7038     6.2044 H       
  95 H95            1.1275     6.1479     9.9577 H       
  96 H96           -0.6301     9.9851     4.5518 H       
  97 H97           -0.3845     9.9981     1.5101 H       
  98 H98           -0.9241     8.5998     2.4702 H       
  99 H99           -2.8298     9.8557     3.3274 H       
 100 H100          -2.2483    11.3463     2.5475 H       
 101 H101          -2.5009    10.2808     0.3228 H       
 102 H102          -3.0823     8.7902     1.1026 H       
 103 H103          -4.9859    10.0437     2.0792 H       
 104 H104          -4.4045    11.5343     1.2993 H       
 105 H105          -5.1628     9.0790    -0.1444 H       
 106 H106          -6.1010    10.4460    -0.0145 H       
 107 H107           0.4928    12.1961     4.2210 H       
 108 H108           0.7330    14.0639     2.6941 H       
 109 H109          -0.6838    13.8700     0.0574 H       
 110 H110          -2.2488    14.1705     2.0446 H       
 111 H111          -1.5783    14.1609     3.6934 H       
 112 H112           1.2345    15.7424    -1.3395 H       
 113 H113           3.6165    15.3091    -1.2005 H       
 114 H114           1.0466    12.7179    -1.7172 H       
 115 H115          -0.2958    13.8803    -1.8403 H       
 116 H116           1.6275    11.9382    -3.8146 H       
 117 H117           2.1868    12.3333    -6.1798 H       
 118 H118           1.9895    14.5963    -7.1302 H       
 119 H119           1.2321    16.4640    -5.7155 H       
 120 H120           0.6683    16.0680    -3.3515 H       
 121 H121           5.2411    13.9613    -2.7754 H       
 122 H122           4.1402    11.2653    -2.8070 H       
 123 H123           5.4206    11.9675    -3.8247 H       
 124 H124           5.8314    12.3714    -0.3982 H       
 125 H125           6.3684    13.6757     1.6452 H       
 126 H126           7.0754    16.4476     0.9312 H       
 127 H127           5.7381    15.9682     1.7959 H       
 128 H128           8.6779    14.8077     0.0015 H       
 129 H129           8.8119    14.0971     1.6280 H       
 130 H130           8.3293    13.0799     0.2493 H       
 131 H131           5.6593     9.3431     0.6569 H       
 132 H132           6.9369     8.2714     0.0344 H       
 133 H133          -1.9548    16.0904     0.5944 H       
 134 H134          -1.6024    18.5212     0.4552 H       
 135 H135           0.0111    18.4982     4.4242 H       
 136 H136          -0.3535    16.0683     4.5483 H       
 137 H137           0.2725    20.2849     4.3283 H       
 138 H138           0.6259    22.7156     4.1888 H       
 139 H139          -0.0002    23.9385     2.1479 H       
 140 H140          -0.9817    22.7387     0.2374 H       
 141 H141          -1.3350    20.3069     0.3569 H       
@<TRIPOS>BOND
   1    1    3 1
   2    1    4 2
   3    1    2 1
   4    2    5 1
   5    2    6 1
   6    2   75 1
   7    3   76 1
   8    5    9 am
   9    5   77 1
  10    6    7 1
  11    6    8 1
  12    6   78 1
  13    7   79 1
  14    7   80 1
  15    7   81 1
  16    8   82 1
  17    8   83 1
  18    8   84 1
  19    9   11 2
  20    9   10 1
  21   10   12 1
  22   10   62 1
  23   10   85 1
  24   12   13 am
  25   12   86 1
  26   13   14 1
  27   13   15 2
  28   14   16 1
  29   14   17 1
  30   14   87 1
  31   16   25 am
  32   16   88 1
  33   17   18 1
  34   17   89 1
  35   17   90 1
  36   18   19 ar
  37   18   23 ar
  38   19   20 ar
  39   19   91 1
  40   20   21 ar
  41   20   92 1
  42   21   22 ar
  43   21   24 1
  44   22   23 ar
  45   22   93 1
  46   23   94 1
  47   24   95 1
  48   25   26 1
  49   25   27 2
  50   26   28 1
  51   26   33 1
  52   26   96 1
  53   28   29 1
  54   28   97 1
  55   28   98 1
  56   29   30 1
  57   29   99 1
  58   29  100 1
  59   30   31 1
  60   30  101 1
  61   30  102 1
  62   31   32 1
  63   31  103 1
  64   31  104 1
  65   32  105 1
  66   32  106 1
  67   33   34 am
  68   33  107 1
  69   34   35 1
  70   34   36 2
  71   35   37 1
  72   35   38 1
  73   35  108 1
  74   37   40 am
  75   37  109 1
  76   38   39 1
  77   38  110 1
  78   38  111 1
  79   39   64 ar
  80   39   68 ar
  81   40   41 1
  82   40   42 2
  83   41   43 1
  84   41   45 1
  85   41  112 1
  86   43   44 am
  87   43  113 1
  88   44   52 1
  89   44   53 2
  90   45   46 1
  91   45  114 1
  92   45  115 1
  93   46   47 ar
  94   46   51 ar
  95   47   48 ar
  96   47  116 1
  97   48   49 ar
  98   48  117 1
  99   49   50 ar
 100   49  118 1
 101   50   51 ar
 102   50  119 1
 103   51  120 1
 104   52   54 1
 105   52   55 1
 106   52  121 1
 107   54   61 1
 108   54  122 1
 109   54  123 1
 110   55   56 am
 111   55  124 1
 112   56   57 1
 113   56   58 2
 114   57   59 1
 115   57   60 1
 116   57  125 1
 117   59  126 1
 118   59  127 1
 119   60  128 1
 120   60  129 1
 121   60  130 1
 122   61   63 1
 123   62   63 1
 124   62  131 1
 125   62  132 1
 126   64   65 ar
 127   64  133 1
 128   65   66 ar
 129   65  134 1
 130   66   67 ar
 131   66   69 1
 132   67   68 ar
 133   67  135 1
 134   68  136 1
 135   69   70 ar
 136   69   74 ar
 137   70   71 ar
 138   70  137 1
 139   71   72 ar
 140   71  138 1
 141   72   73 ar
 142   72  139 1
 143   73   74 ar
 144   73  140 1
 145   74  141 1

#	End of record

