#	Name: ASD10160115
#	Creating user name:	WinNT
#	Creation time:	15. 06. 2019 21:25

#	Modifying user name:	WinNT
#	Modification time:	15. 06. 2019 21:25

#	Program:	/corina/corina34_cracker 3.40 0067  02.08.2006

@<TRIPOS>MOLECULE
ASD10160115
  46   48    0    0    0
SMALL
NO_CHARGES


@<TRIPOS>ATOM
   1 C1             1.7558    -1.5502     3.5510 C.ar    
   2 C2             1.3233    -2.1561     2.3677 C.ar    
   3 C3             2.8110    -0.6306     3.5162 C.ar    
   4 C4             3.4187    -0.3269     2.3147 C.ar    
   5 C5             2.9842    -0.9317     1.1426 C.ar    
   6 C6             1.9359    -1.8466     1.1736 C.ar    
   7 C7             1.0988    -1.8740     4.8307 C.2     
   8 N8             0.0796    -2.7553     4.8609 N.am    
   9 O9             1.4766    -1.3458     5.8588 O.2     
  10 S10           -0.6583    -3.1189     6.2981 S.o2    
  11 O11           -1.6459    -4.0802     5.9517 O.2     
  12 O12            0.4145    -3.4518     7.1684 O.2     
  13 O13            3.5838    -0.6297    -0.0369 O.3     
  14 C14            4.6720     0.1837    -0.0095 C.ar    
  15 C15            5.9468    -0.3497     0.1464 C.ar    
  16 C16            4.5266     1.5573    -0.1426 C.ar    
  17 N17            5.5774     2.3529    -0.1179 N.ar    
  18 C18            6.8004     1.8850     0.0330 C.ar    
  19 C19            7.0286     0.5226     0.1678 C.ar    
  20 O20            8.2928     0.0482     0.3230 O.3     
  21 C21            7.9656     2.8405     0.0534 C.3     
  22 C22            8.4431    -1.3667     0.4551 C.3     
  23 F23            7.7354    -1.8079     1.5784 F       
  24 F24            7.9426    -1.9976    -0.6888 F       
  25 C25            8.1904     3.7071    -1.1873 C.3     
  26 C26            7.6512     4.3371     0.0985 C.3     
  27 F27            3.2332    -0.0415     4.6563 F       
  28 Cl28           1.3989    -2.5988    -0.2959 Cl      
  29 C29           -1.4369    -1.5637     6.8134 C.3     
  30 C30            9.9252    -1.7090     0.6192 C.3     
  31 H31            0.5099    -2.8662     2.3899 H       
  32 H32            4.2328     0.3822     2.2861 H       
  33 H33           -0.2218    -3.1766     4.0407 H       
  34 H34            6.0924    -1.4149     0.2487 H       
  35 H35            3.5406     1.9797    -0.2682 H       
  36 H36            8.8477     2.4947     0.5923 H       
  37 H37            9.2204     3.9317    -1.4644 H       
  38 H38            7.4955     3.5861    -2.0183 H       
  39 H39            6.6016     4.6307     0.1133 H       
  40 H40            8.3265     4.9763     0.6673 H       
  41 H41           -2.1545    -1.2482     6.0560 H       
  42 H42           -1.9521    -1.7122     7.7624 H       
  43 H43           -0.6721    -0.7961     6.9314 H       
  44 H44           10.3152    -1.2174     1.5104 H       
  45 H45           10.0399    -2.7883     0.7199 H       
  46 H46           10.4766    -1.3652    -0.2560 H       
@<TRIPOS>BOND
   1    1    2 ar
   2    1    3 ar
   3    1    7 1
   4    2    6 ar
   5    2   31 1
   6    3    4 ar
   7    3   27 1
   8    4    5 ar
   9    4   32 1
  10    5    6 ar
  11    5   13 1
  12    6   28 1
  13    7    8 am
  14    7    9 2
  15    8   10 am
  16    8   33 1
  17   10   11 2
  18   10   12 2
  19   10   29 1
  20   13   14 1
  21   14   15 ar
  22   14   16 ar
  23   15   19 ar
  24   15   34 1
  25   16   17 ar
  26   16   35 1
  27   17   18 ar
  28   18   19 ar
  29   18   21 1
  30   19   20 1
  31   20   22 1
  32   21   25 1
  33   21   26 1
  34   21   36 1
  35   22   23 1
  36   22   24 1
  37   22   30 1
  38   25   26 1
  39   25   37 1
  40   25   38 1
  41   26   39 1
  42   26   40 1
  43   29   41 1
  44   29   42 1
  45   29   43 1
  46   30   44 1
  47   30   45 1
  48   30   46 1

#	End of record

