#	Name: ASD10220029
#	Creating user name:	WinNT
#	Creation time:	15. 06. 2019 21:26

#	Modifying user name:	WinNT
#	Modification time:	15. 06. 2019 21:26

#	Program:	/corina/corina34_cracker 3.40 0067  02.08.2006

@<TRIPOS>MOLECULE
ASD10220029
  27   29    0    0    0
SMALL
NO_CHARGES


@<TRIPOS>ATOM
   1 C1            -0.0064     1.4612    -0.1693 C.2     
   2 C2             0.0233     0.0542    -0.3155 C.2     
   3 C3            -1.1143    -0.6733    -0.3715 C.2     
   4 C4            -2.4362    -0.0545    -0.2846 C.2     
   5 C5            -2.5497     1.3192    -0.1400 C.2     
   6 C6            -1.3372     2.1498    -0.0686 C.2     
   7 O7            -3.6804    -0.5687    -0.3162 O.3     
   8 C8            -4.6054     0.3862    -0.2009 C.2     
   9 C9            -3.9876     1.6034    -0.0854 C.2     
  10 O10           -1.4104     3.3540     0.0578 O.2     
  11 O11            1.0259     2.1001    -0.1211 O.2     
  12 C12           -4.6317     2.9201     0.0633 C.2     
  13 O13           -3.9537     3.9093     0.2653 O.2     
  14 C14           -6.1011     3.0387    -0.0331 C.ar    
  15 C15           -6.7701     4.0503     0.6603 C.ar    
  16 C16           -8.1414     4.1560     0.5659 C.ar    
  17 C17           -8.8560     3.2617    -0.2144 C.ar    
  18 C18           -8.1984     2.2561    -0.9041 C.ar    
  19 C19           -6.8268     2.1434    -0.8225 C.ar    
  20 Br20           1.6917    -0.8278    -0.4357 Br      
  21 Br21          -0.9926    -2.5500    -0.5691 Br      
  22 Cl22         -10.5826     3.4015    -0.3281 Cl      
  23 H23           -5.6732     0.2247    -0.1990 H       
  24 H24           -6.2141     4.7478     1.2692 H       
  25 H25           -8.6598     4.9374     1.1017 H       
  26 H26           -8.7611     1.5615    -1.5103 H       
  27 H27           -6.3153     1.3590    -1.3606 H       
@<TRIPOS>BOND
   1    1    2 1
   2    1   11 2
   3    1    6 1
   4    2    3 2
   5    2   20 1
   6    3    4 1
   7    3   21 1
   8    4    5 2
   9    4    7 1
  10    5    6 1
  11    5    9 1
  12    6   10 2
  13    7    8 1
  14    8    9 2
  15    8   23 1
  16    9   12 1
  17   12   13 2
  18   12   14 1
  19   14   15 ar
  20   14   19 ar
  21   15   16 ar
  22   15   24 1
  23   16   17 ar
  24   16   25 1
  25   17   18 ar
  26   17   22 1
  27   18   19 ar
  28   18   26 1
  29   19   27 1

#	End of record

