#	Name: ASD11920025
#	Creating user name:	WinNT
#	Creation time:	15. 06. 2019 21:29

#	Modifying user name:	WinNT
#	Modification time:	15. 06. 2019 21:29

#	Program:	/corina/corina34_cracker 3.40 0067  02.08.2006

@<TRIPOS>MOLECULE
ASD11920025
  48   51    0    0    0
SMALL
NO_CHARGES


@<TRIPOS>ATOM
   1 C1            -0.0168     1.3891     0.0097 C.ar    
   2 C2             0.0021    -0.0041     0.0020 C.ar    
   3 C3             1.2209    -0.6791    -0.0132 C.ar    
   4 C4             2.4021     0.0347    -0.0207 C.ar    
   5 C5             2.3775     1.4177    -0.0130 C.ar    
   6 C6             1.1704     2.0929     0.0021 C.ar    
   7 C7             3.6706     2.1916    -0.0207 C.3     
   8 C8             4.0886     2.4572    -1.4440 C.ar    
   9 C9             3.6630     3.6099    -2.0846 C.ar    
  10 C10            4.0459     3.8499    -3.3820 C.ar    
  11 C11            4.8619     2.9395    -4.0607 C.ar    
  12 C12            5.2866     1.7815    -3.4091 C.ar    
  13 C13            4.9007     1.5517    -2.1042 C.ar    
  14 C14            3.6051     5.0927    -4.1190 C.3     
  15 C15            4.0823     5.2607    -5.5452 C.2     
  16 N16            4.8662     4.3212    -6.1017 N.am    
  17 C17            5.2598     3.2166    -5.4527 C.2     
  18 O18            5.9692     2.4172    -6.0308 O.2     
  19 O19            5.2963     4.5072    -7.4379 O.3     
  20 O20            3.7585     6.2391    -6.1838 O.2     
  21 C21           -1.2712    -0.7661     0.0106 C.ar    
  22 C22           -1.2523    -2.1593     0.0029 C.ar    
  23 C23           -2.4396    -2.8631     0.0114 C.ar    
  24 C24           -3.6466    -2.1878     0.0270 C.ar    
  25 C25           -3.6713    -0.8049     0.0342 C.ar    
  26 C26           -2.4899    -0.0911     0.0321 C.ar    
  27 S27           -5.1585    -3.0927     0.0372 S.o2    
  28 O28           -6.1499    -2.2235    -0.4927 O.2     
  29 O29           -4.8665    -4.3682    -0.5170 O.2     
  30 N30           -5.5634    -3.3529     1.6217 N.am    
  31 H31           -0.9588     1.9174     0.0170 H       
  32 H32            1.2413    -1.7589    -0.0189 H       
  33 H33            3.3474    -0.4875    -0.0322 H       
  34 H34            1.1570     3.1728     0.0081 H       
  35 H35            3.5301     3.1390     0.4995 H       
  36 H36            4.4441     1.6117     0.4829 H       
  37 H37            3.0324     4.3168    -1.5660 H       
  38 H38            5.9171     1.0703    -3.9220 H       
  39 H39            5.2283     0.6559    -1.5975 H       
  40 H40            2.5153     5.1081    -4.1268 H       
  41 H41            3.9439     5.9576    -3.5487 H       
  42 H42            5.8563     3.7940    -7.7737 H       
  43 H43           -0.3104    -2.6876    -0.0100 H       
  44 H44           -2.4261    -3.9430     0.0055 H       
  45 H45           -4.6165    -0.2827     0.0461 H       
  46 H46           -2.5103     0.9887     0.0381 H       
  47 H47           -4.9910    -3.0184     2.3298 H       
  48 H48           -6.3729    -3.8399     1.8418 H       
@<TRIPOS>BOND
   1    1    2 ar
   2    1    6 ar
   3    1   31 1
   4    2    3 ar
   5    2   21 1
   6    3    4 ar
   7    3   32 1
   8    4    5 ar
   9    4   33 1
  10    5    6 ar
  11    5    7 1
  12    6   34 1
  13    7    8 1
  14    7   35 1
  15    7   36 1
  16    8    9 ar
  17    8   13 ar
  18    9   10 ar
  19    9   37 1
  20   10   11 ar
  21   10   14 1
  22   11   12 ar
  23   11   17 1
  24   12   13 ar
  25   12   38 1
  26   13   39 1
  27   14   15 1
  28   14   40 1
  29   14   41 1
  30   15   16 am
  31   15   20 2
  32   16   17 am
  33   16   19 1
  34   17   18 2
  35   19   42 1
  36   21   22 ar
  37   21   26 ar
  38   22   23 ar
  39   22   43 1
  40   23   24 ar
  41   23   44 1
  42   24   25 ar
  43   24   27 1
  44   25   26 ar
  45   25   45 1
  46   26   46 1
  47   27   28 2
  48   27   29 2
  49   27   30 am
  50   30   47 1
  51   30   48 1

#	End of record

