#	Name: ASD10160256
#	Creating user name:	WinNT
#	Creation time:	15. 06. 2019 21:25

#	Modifying user name:	WinNT
#	Modification time:	15. 06. 2019 21:25

#	Program:	/corina/corina34_cracker 3.40 0067  02.08.2006

@<TRIPOS>MOLECULE
ASD10160256
  39   41    0    0    0
SMALL
NO_CHARGES


@<TRIPOS>ATOM
   1 C1             0.7599     1.4151    -0.4030 C.2     
   2 C2             0.5750    -0.0458    -0.3023 C.ar    
   3 C3             1.5338    -0.9116    -0.8351 C.ar    
   4 C4             1.3580    -2.2739    -0.7388 C.ar    
   5 C5             0.2282    -2.7882    -0.1128 C.ar    
   6 C6            -0.7279    -1.9301     0.4185 C.ar    
   7 C7            -0.5565    -0.5667     0.3312 C.ar    
   8 O8             1.7473     1.8666    -0.9500 O.2     
   9 N9            -0.1687     2.2485     0.1066 N.am    
  10 S10            0.0387     3.8876    -0.0064 S.o2    
  11 O11           -1.0999     4.4308     0.6476 O.2     
  12 O12            1.3487     4.1106     0.4972 O.2     
  13 C13           -0.0258     4.2304    -1.7866 C.3     
  14 O14            0.0581    -4.1312    -0.0206 O.3     
  15 C15            0.2724    -8.3406     0.9426 C.2     
  16 N16            0.8846    -8.1417     2.0735 N.2     
  17 C17            1.0771    -6.8107     2.2607 C.ar    
  18 C18            0.5323    -6.1573     1.1442 C.ar    
  19 N19            0.0304    -7.1525     0.3273 N.pl3   
  20 C20            1.6691    -6.0569     3.2791 C.ar    
  21 C21            1.7130    -4.6851     3.1795 C.ar    
  22 C22            1.1747    -4.0401     2.0758 C.ar    
  23 C23            0.5845    -4.7686     1.0584 C.ar    
  24 C24           -0.6380    -6.9626    -0.9624 C.3     
  25 H25            2.4114    -0.5128    -1.3221 H       
  26 H26            2.0986    -2.9436    -1.1503 H       
  27 H27           -1.6043    -2.3335     0.9040 H       
  28 H28           -1.2976     0.0993     0.7478 H       
  29 H29           -0.9584     1.8883     0.5395 H       
  30 H30           -0.9907     3.9140    -2.1827 H       
  31 H31            0.1036     5.2994    -1.9556 H       
  32 H32            0.7709     3.6837    -2.2909 H       
  33 H33            0.0004    -9.3085     0.5481 H       
  34 H34            2.0907    -6.5504     4.1423 H       
  35 H35            2.1706    -4.1056     3.9677 H       
  36 H36            1.2158    -2.9628     2.0106 H       
  37 H37           -1.7106    -6.8516    -0.8030 H       
  38 H38           -0.2479    -6.0667    -1.4455 H       
  39 H39           -0.4530    -7.8282    -1.5985 H       
@<TRIPOS>BOND
   1    1    2 1
   2    1    8 2
   3    1    9 am
   4    2    3 ar
   5    2    7 ar
   6    3    4 ar
   7    3   25 1
   8    4    5 ar
   9    4   26 1
  10    5    6 ar
  11    5   14 1
  12    6    7 ar
  13    6   27 1
  14    7   28 1
  15    9   10 am
  16    9   29 1
  17   10   11 2
  18   10   12 2
  19   10   13 1
  20   13   30 1
  21   13   31 1
  22   13   32 1
  23   14   23 1
  24   15   16 2
  25   15   19 1
  26   15   33 1
  27   16   17 1
  28   17   18 ar
  29   17   20 ar
  30   18   19 1
  31   18   23 ar
  32   19   24 1
  33   20   21 ar
  34   20   34 1
  35   21   22 ar
  36   21   35 1
  37   22   23 ar
  38   22   36 1
  39   24   37 1
  40   24   38 1
  41   24   39 1

#	End of record

