#	Name: ASD10160144
#	Creating user name:	WinNT
#	Creation time:	15. 06. 2019 21:25

#	Modifying user name:	WinNT
#	Modification time:	15. 06. 2019 21:25

#	Program:	/corina/corina34_cracker 3.40 0067  02.08.2006

@<TRIPOS>MOLECULE
ASD10160144
  47   49    0    0    0
SMALL
NO_CHARGES


@<TRIPOS>ATOM
   1 C1            -1.6066    -2.6818     5.7438 C.2     
   2 C2            -1.1128    -2.9550     4.3816 C.ar    
   3 C3             0.1604    -3.5056     4.1936 C.ar    
   4 C4             0.6182    -3.7594     2.9163 C.ar    
   5 C5            -0.1821    -3.4691     1.8195 C.ar    
   6 C6            -1.4494    -2.9213     2.0023 C.ar    
   7 C7            -1.9172    -2.6702     3.2739 C.ar    
   8 O8            -0.9075    -2.9349     6.7060 O.2     
   9 N9            -2.8306    -2.1466     5.9222 N.am    
  10 S10           -3.3851    -1.8398     7.4521 S.o2    
  11 O11           -4.6903    -1.3144     7.2529 O.2     
  12 O12           -3.1859    -3.0622     8.1488 O.2     
  13 C13           -2.2723    -0.5561     8.0880 C.3     
  14 F14           -2.2237    -2.6408     0.9313 F       
  15 F15            0.9400    -3.7875     5.2603 F       
  16 O16            0.2722    -3.7194     0.5652 O.3     
  17 C17            2.6421    -3.6255     0.3441 C.ar    
  18 C18            1.4675    -4.3544     0.4341 C.ar    
  19 C19            1.5253    -5.7451     0.3891 C.ar    
  20 C20            2.7631    -6.3496     0.2553 C.ar    
  21 C21            3.9008    -5.5526     0.1708 C.ar    
  22 N22            3.8066    -4.2334     0.2175 N.ar    
  23 N23            5.1520    -6.1498     0.0359 N.3     
  24 C24            5.7728    -5.7877    -1.2453 C.3     
  25 C25            6.0269    -5.7991     1.1626 C.3     
  26 C26            7.3646    -6.5577     1.1631 C.3     
  27 C27            8.0217    -5.2400     1.6070 C.3     
  28 C28            6.8441    -4.5170     0.9321 C.3     
  29 Cl29           2.8948    -8.0795     0.1944 Cl      
  30 H30            1.6003    -4.1842     2.7699 H       
  31 H31           -2.9021    -2.2499     3.4145 H       
  32 H32           -3.3866    -1.9411     5.1544 H       
  33 H33           -2.3317     0.3252     7.4493 H       
  34 H34           -2.5673    -0.2897     9.1029 H       
  35 H35           -1.2493    -0.9323     8.0938 H       
  36 H36            2.6040    -2.5466     0.3738 H       
  37 H37            0.6252    -6.3380     0.4575 H       
  38 H38            5.7882    -4.7027    -1.3478 H       
  39 H39            6.7932    -6.1700    -1.2755 H       
  40 H40            5.1978    -6.2218    -2.0632 H       
  41 H41            5.5111    -5.8230     2.1225 H       
  42 H42            7.4188    -7.3469     1.9130 H       
  43 H43            7.6783    -6.8904     0.1737 H       
  44 H44            8.0518    -5.1099     2.6888 H       
  45 H45            8.9828    -5.0489     1.1297 H       
  46 H46            7.0155    -4.2917    -0.1205 H       
  47 H47            6.4781    -3.6587     1.4955 H       
@<TRIPOS>BOND
   1    1    2 1
   2    1    8 2
   3    1    9 am
   4    2    3 ar
   5    2    7 ar
   6    3    4 ar
   7    3   15 1
   8    4    5 ar
   9    4   30 1
  10    5    6 ar
  11    5   16 1
  12    6    7 ar
  13    6   14 1
  14    7   31 1
  15    9   10 am
  16    9   32 1
  17   10   11 2
  18   10   12 2
  19   10   13 1
  20   13   33 1
  21   13   34 1
  22   13   35 1
  23   16   18 1
  24   17   18 ar
  25   17   22 ar
  26   17   36 1
  27   18   19 ar
  28   19   20 ar
  29   19   37 1
  30   20   21 ar
  31   20   29 1
  32   21   22 ar
  33   21   23 1
  34   23   24 1
  35   23   25 1
  36   24   38 1
  37   24   39 1
  38   24   40 1
  39   25   26 1
  40   25   28 1
  41   25   41 1
  42   26   27 1
  43   26   42 1
  44   26   43 1
  45   27   28 1
  46   27   44 1
  47   27   45 1
  48   28   46 1
  49   28   47 1

#	End of record

