#	Name: ASD13110008
#	Creating user name:	WinNT
#	Creation time:	15. 06. 2019 21:30

#	Modifying user name:	WinNT
#	Modification time:	15. 06. 2019 21:30

#	Program:	/corina/corina34_cracker 3.40 0067  02.08.2006

@<TRIPOS>MOLECULE
ASD13110008
  50   54    0    0    0
SMALL
NO_CHARGES


@<TRIPOS>ATOM
   1 C1            -3.1672     1.5993    -2.1256 C.ar    
   2 C2            -4.1275     1.0772    -2.9442 C.ar    
   3 C3            -3.9134    -0.1702    -3.5159 C.ar    
   4 C4            -2.7475    -0.8679    -3.2593 C.ar    
   5 C5            -1.7751    -0.3310    -2.4257 C.ar    
   6 C6            -1.9921     0.8958    -1.8665 C.ar    
   7 C7            -3.2603     2.9453    -1.4243 C.3     
   8 C8            -3.0141     2.6478     0.0463 C.ar    
   9 C9            -1.0256     1.6100    -0.9348 C.3     
  10 C10           -1.8376     1.9461     0.3020 C.ar    
  11 C11           -3.8447     3.0141     1.0666 C.ar    
  12 C12           -1.4893     1.6089     1.5788 C.ar    
  13 C13           -2.3292     1.9784     2.6213 C.ar    
  14 C14           -3.4967     2.6743     2.3674 C.ar    
  15 C15           -2.0207     3.7383    -1.8953 C.3     
  16 C16           -0.7288     2.9654    -1.6147 C.3     
  17 C17            0.1636     3.8021    -0.6959 C.3     
  18 C18           -0.0042     2.7182    -2.9128 C.2     
  19 N19            0.3626     3.7576    -3.6883 N.am    
  20 O20            0.2489     1.5838    -3.2595 O.2     
  21 C21            1.1269     3.5360    -4.8406 C.ar    
  22 C22            1.2577     3.1081    -7.1979 C.ar    
  23 C23            0.4999     3.3261    -6.0622 C.ar    
  24 C24            2.5144     3.5314    -4.7657 C.ar    
  25 C25            3.2656     3.3128    -5.9051 C.ar    
  26 C26            2.6379     3.0990    -7.1187 C.ar    
  27 Cl27          -1.2332     3.3368    -6.1628 Cl      
  28 Cl28           3.3034     3.8003    -3.2429 Cl      
  29 C29            4.7704     3.3081    -5.8249 C.3     
  30 H30           -5.0371     1.6243    -3.1432 H       
  31 H31           -4.6628    -0.5985    -4.1650 H       
  32 H32           -2.5921    -1.8370    -3.7100 H       
  33 H33           -0.8636    -0.8738    -2.2236 H       
  34 H34           -4.2057     3.4570    -1.6046 H       
  35 H35           -0.1340     1.0238    -0.7123 H       
  36 H36           -4.7555     3.5585     0.8655 H       
  37 H37           -0.5773     1.0645     1.7743 H       
  38 H38           -2.0691     1.7197     3.6371 H       
  39 H39           -4.1422     2.9559     3.1863 H       
  40 H40           -2.1006     3.9223    -2.9666 H       
  41 H41           -1.9879     4.6937    -1.3715 H       
  42 H42            1.0978     3.2708    -0.5144 H       
  43 H43            0.3767     4.7601    -1.1702 H       
  44 H44           -0.3480     3.9716     0.2516 H       
  45 H45            0.0971     4.6592    -3.4484 H       
  46 H46            0.7709     2.9448    -8.1480 H       
  47 H47            3.2274     2.9281    -8.0073 H       
  48 H48            5.1202     2.2962    -5.6204 H       
  49 H49            5.1858     3.6515    -6.7724 H       
  50 H50            5.0938     3.9732    -5.0241 H       
@<TRIPOS>BOND
   1    1    2 ar
   2    1    6 ar
   3    1    7 1
   4    2    3 ar
   5    2   30 1
   6    3    4 ar
   7    3   31 1
   8    4    5 ar
   9    4   32 1
  10    5    6 ar
  11    5   33 1
  12    6    9 1
  13    7    8 1
  14    7   15 1
  15    7   34 1
  16    8   10 ar
  17    8   11 ar
  18    9   10 1
  19    9   16 1
  20    9   35 1
  21   10   12 ar
  22   11   14 ar
  23   11   36 1
  24   12   13 ar
  25   12   37 1
  26   13   14 ar
  27   13   38 1
  28   14   39 1
  29   15   16 1
  30   15   40 1
  31   15   41 1
  32   16   17 1
  33   16   18 1
  34   17   42 1
  35   17   43 1
  36   17   44 1
  37   18   19 am
  38   18   20 2
  39   19   21 1
  40   19   45 1
  41   21   24 ar
  42   21   23 ar
  43   22   23 ar
  44   22   26 ar
  45   22   46 1
  46   23   27 1
  47   24   25 ar
  48   24   28 1
  49   25   26 ar
  50   25   29 1
  51   26   47 1
  52   29   48 1
  53   29   49 1
  54   29   50 1

#	End of record

