#	Name: ASD13780001
#	Creating user name:	WinNT
#	Creation time:	15. 06. 2019 21:30

#	Modifying user name:	WinNT
#	Modification time:	15. 06. 2019 21:30

#	Program:	/corina/corina34_cracker 3.40 0067  02.08.2006

@<TRIPOS>MOLECULE
ASD13780001
  65   68    0    0    0
SMALL
NO_CHARGES


@<TRIPOS>ATOM
   1 C1            -0.0167     1.3791     0.0096 C.ar    
   2 C2             0.0021    -0.0041     0.0020 C.ar    
   3 C3             1.2207    -0.6766    -0.0136 C.ar    
   4 C4             2.4014     0.0439    -0.0191 C.ar    
   5 C5             2.3776     1.4315    -0.0089 C.ar    
   6 C6             1.1704     2.0970     0.0021 C.ar    
   7 C7             1.0973     3.6026     0.0011 C.3     
   8 C8             3.6913     2.1689    -0.0039 C.3     
   9 N9             3.4980     3.5655    -0.4062 N.3     
  10 C10            2.4472     4.1910     0.4122 C.3     
  11 O11           -1.1643    -0.7034     0.0102 O.3     
  12 C12           -2.3753     0.0551     0.0266 C.3     
  13 O13            1.2504    -2.0362    -0.0229 O.3     
  14 C14            2.5374    -2.6569    -0.0388 C.3     
  15 C15            4.7558     4.3189    -0.3136 C.3     
  16 C16            5.7361     3.7864    -1.3267 C.ar    
  17 C17            7.4905     2.2631    -1.9063 C.ar    
  18 C18            6.5907     2.7547    -0.9824 C.ar    
  19 C19            5.7740     4.3273    -2.5992 C.ar    
  20 C20            6.6694     3.8432    -3.5312 C.ar    
  21 C21            7.5367     2.8078    -3.1881 C.ar    
  22 C22            8.5017     2.2835    -4.1855 C.ar    
  23 C23            8.5469     2.8292    -5.4672 C.ar    
  24 C24            9.4450     2.3398    -6.3923 C.ar    
  25 C25           10.3033     1.3043    -6.0480 C.ar    
  26 C26           10.2607     0.7587    -4.7721 C.ar    
  27 C27            9.3689     1.2482    -3.8409 C.ar    
  28 O28           11.1866     0.8235    -6.9618 O.3     
  29 C29           12.0400    -0.2425    -6.5406 C.3     
  30 C30           12.9580    -0.6475    -7.6957 C.3     
  31 C31           13.8718    -1.7888    -7.2448 C.3     
  32 C32           14.7898    -2.1938    -8.3999 C.3     
  33 I33           16.0810    -3.8066    -7.7628 I       
  34 H34           -0.9610     1.9032     0.0169 H       
  35 H35            3.3476    -0.4765    -0.0310 H       
  36 H36            0.8399     3.9517    -0.9989 H       
  37 H37            0.3312     3.9282     0.7048 H       
  38 H38            4.1167     2.1391     0.9992 H       
  39 H39            4.3775     1.6859    -0.6996 H       
  40 H40            2.4440     5.2679     0.2435 H       
  41 H41            2.6315     3.9831     1.4662 H       
  42 H42           -2.4196     0.6881    -0.8596 H       
  43 H43           -3.2286    -0.6231     0.0317 H       
  44 H44           -2.4014     0.6786     0.9203 H       
  45 H45            3.0798    -2.3460    -0.9317 H       
  46 H46            3.0960    -2.3579     0.8481 H       
  47 H47            2.4182    -3.7404    -0.0449 H       
  48 H48            4.5634     5.3730    -0.5133 H       
  49 H49            5.1723     4.2089     0.6877 H       
  50 H50            8.1575     1.4577    -1.6363 H       
  51 H51            6.5540     2.3333     0.0113 H       
  52 H52            5.1014     5.1297    -2.8641 H       
  53 H53            6.6977     4.2658    -4.5247 H       
  54 H54            7.8790     3.6342    -5.7358 H       
  55 H55            9.4805     2.7622    -7.3856 H       
  56 H56           10.9296    -0.0467    -4.5071 H       
  57 H57            9.3392     0.8264    -2.8471 H       
  58 H58           12.6437     0.0878    -5.6953 H       
  59 H59           11.4333    -1.0973    -6.2419 H       
  60 H60           12.3543    -0.9777    -8.5410 H       
  61 H61           13.5648     0.2074    -7.9945 H       
  62 H62           14.4755    -1.4586    -6.3995 H       
  63 H63           13.2650    -2.6436    -6.9460 H       
  64 H64           14.1861    -2.5240    -9.2452 H       
  65 H65           15.3965    -1.3390    -8.6987 H       
@<TRIPOS>BOND
   1    1    2 ar
   2    1    6 ar
   3    1   34 1
   4    2    3 ar
   5    2   11 1
   6    3    4 ar
   7    3   13 1
   8    4    5 ar
   9    4   35 1
  10    5    6 ar
  11    5    8 1
  12    6    7 1
  13    7   10 1
  14    7   36 1
  15    7   37 1
  16    8    9 1
  17    8   38 1
  18    8   39 1
  19    9   10 1
  20    9   15 1
  21   10   40 1
  22   10   41 1
  23   11   12 1
  24   12   42 1
  25   12   43 1
  26   12   44 1
  27   13   14 1
  28   14   45 1
  29   14   46 1
  30   14   47 1
  31   15   16 1
  32   15   48 1
  33   15   49 1
  34   16   19 ar
  35   16   18 ar
  36   17   18 ar
  37   17   21 ar
  38   17   50 1
  39   18   51 1
  40   19   20 ar
  41   19   52 1
  42   20   21 ar
  43   20   53 1
  44   21   22 1
  45   22   23 ar
  46   22   27 ar
  47   23   24 ar
  48   23   54 1
  49   24   25 ar
  50   24   55 1
  51   25   26 ar
  52   25   28 1
  53   26   27 ar
  54   26   56 1
  55   27   57 1
  56   28   29 1
  57   29   30 1
  58   29   58 1
  59   29   59 1
  60   30   31 1
  61   30   60 1
  62   30   61 1
  63   31   32 1
  64   31   62 1
  65   31   63 1
  66   32   33 1
  67   32   64 1
  68   32   65 1

#	End of record

