#	Name: ASD14300001
#	Creating user name:	WinNT
#	Creation time:	15. 06. 2019 21:31

#	Modifying user name:	WinNT
#	Modification time:	15. 06. 2019 21:31

#	Program:	/corina/corina34_cracker 3.40 0067  02.08.2006

@<TRIPOS>MOLECULE
ASD14300001
  39   43    0    0    0
SMALL
NO_CHARGES


@<TRIPOS>ATOM
   1 N1            -0.0157     1.3921     0.4377 N.pl3   
   2 C2            -0.0651     0.0382     0.5687 C.2     
   3 C3             1.1879    -0.4532     0.4337 C.2     
   4 C4             2.0505     0.6291     0.2108 C.2     
   5 C5             1.2903     1.7629     0.2163 C.2     
   6 C6             1.7812     3.1389     0.0189 C.ar    
   7 N7             3.0910     3.3767    -0.0499 N.ar    
   8 C8             3.5316     4.6175    -0.2283 C.ar    
   9 N9             2.6669     5.6215    -0.3380 N.ar    
  10 C10            1.3601     5.3862    -0.2696 C.ar    
  11 N11            0.9157     4.1461    -0.0963 N.ar    
  12 C12           -1.1120     2.2617     0.5103 C.ar    
  13 C13           -2.1927     2.0914    -0.3446 C.ar    
  14 C14           -3.2721     2.9499    -0.2703 C.ar    
  15 C15           -3.2770     3.9785     0.6540 C.ar    
  16 C16           -2.2019     4.1508     1.5064 C.ar    
  17 C17           -1.1223     3.2919     1.4412 C.ar    
  18 N18            0.4644     6.4303    -0.3833 N.3     
  19 C19           -0.9074     5.9315    -0.5483 C.3     
  20 C20           -0.4199     6.4953     0.7879 C.3     
  21 N21            4.8878     4.8643    -0.2992 N.3     
  22 C22            5.6574     3.6214    -0.1544 C.3     
  23 C23            5.4652     4.2851    -1.5195 C.3     
  24 H24           -0.9554    -0.5458     0.7500 H       
  25 H25            1.4730    -1.4934     0.4883 H       
  26 H26            3.1190     0.5758     0.0630 H       
  27 H27           -2.1892     1.2888    -1.0672 H       
  28 H28           -4.1130     2.8180    -0.9350 H       
  29 H29           -4.1220     4.6487     0.7099 H       
  30 H30           -2.2083     4.9555     2.2268 H       
  31 H31           -0.2849     3.4243     2.1102 H       
  32 H32           -1.5997     6.5392    -1.1310 H       
  33 H33           -1.0479     4.8530    -0.6209 H       
  34 H34           -0.2382     5.7894     1.5983 H       
  35 H35           -0.7900     7.4756     1.0882 H       
  36 H36            6.6432     3.6879     0.3057 H       
  37 H37            5.1034     2.7040     0.0442 H       
  38 H38            4.7842     3.8063    -2.2231 H       
  39 H39            6.3240     4.7902    -1.9615 H       
@<TRIPOS>BOND
   1    1    2 1
   2    1    5 1
   3    1   12 1
   4    2    3 2
   5    2   24 1
   6    3    4 1
   7    3   25 1
   8    4    5 2
   9    4   26 1
  10    5    6 1
  11    6    7 ar
  12    6   11 ar
  13    7    8 ar
  14    8    9 ar
  15    8   21 1
  16    9   10 ar
  17   10   11 ar
  18   10   18 1
  19   12   13 ar
  20   12   17 ar
  21   13   14 ar
  22   13   27 1
  23   14   15 ar
  24   14   28 1
  25   15   16 ar
  26   15   29 1
  27   16   17 ar
  28   16   30 1
  29   17   31 1
  30   18   19 1
  31   18   20 1
  32   19   20 1
  33   19   32 1
  34   19   33 1
  35   20   34 1
  36   20   35 1
  37   21   22 1
  38   21   23 1
  39   22   23 1
  40   22   36 1
  41   22   37 1
  42   23   38 1
  43   23   39 1

#	End of record

