#	Name: ASD13680028
#	Creating user name:	WinNT
#	Creation time:	15. 06. 2019 21:30

#	Modifying user name:	WinNT
#	Modification time:	15. 06. 2019 21:30

#	Program:	/corina/corina34_cracker 3.40 0067  02.08.2006

@<TRIPOS>MOLECULE
ASD13680028
  52   55    0    0    0
SMALL
NO_CHARGES


@<TRIPOS>ATOM
   1 C1             0.7785     1.5362    -0.9515 C.3     
   2 C2             0.7274     0.0244    -0.8755 C.2     
   3 C3             1.5604    -0.7381    -0.1611 C.2     
   4 C4             2.7093    -0.2080     0.6794 C.3     
   5 C5             2.9184     2.2144     0.1249 C.3     
   6 C6             2.2114     1.9991    -1.2103 C.3     
   7 C7             2.4030     1.2096     1.1528 C.3     
   8 C8             1.2496    -2.1544    -0.2765 C.2     
   9 C9             0.1864    -2.4125    -1.0942 C.2     
  10 S10           -0.4502    -0.9666    -1.7265 S.3     
  11 N11           -0.3056    -3.6775    -1.3714 N.am    
  12 C12            2.0040    -3.2025     0.4167 C.2     
  13 O13            1.6651    -3.5618     1.5291 O.2     
  14 N14            3.0731    -3.7684    -0.1777 N.am    
  15 C15           -1.3628    -3.8240    -2.1943 C.2     
  16 C16           -1.8876    -5.1736    -2.4900 C.ar    
  17 C17           -1.2120    -6.3052    -2.0291 C.ar    
  18 C18           -1.7072    -7.5618    -2.3087 C.ar    
  19 C19           -2.8710    -7.7024    -3.0442 C.ar    
  20 C20           -3.5452    -6.5853    -3.5042 C.ar    
  21 C21           -3.0641    -5.3224    -3.2264 C.ar    
  22 O22           -1.8847    -2.8461    -2.6933 O.2     
  23 C23            3.8539    -4.6863     0.5213 C.ar    
  24 C24            4.8848    -5.3527    -0.1322 C.ar    
  25 C25            5.6528    -6.2613     0.5739 C.ar    
  26 C26            5.3622    -6.4733     1.9150 C.ar    
  27 C27            4.3236    -5.7766     2.5000 C.ar    
  28 N28            3.6112    -4.9122     1.8027 N.ar    
  29 C29           -3.8037    -4.1065    -3.7221 C.3     
  30 H30            0.1355     1.8796    -1.7619 H       
  31 H31            0.4268     1.9577    -0.0098 H       
  32 H32            2.8525    -0.8550     1.5448 H       
  33 H33            3.6208    -0.2004     0.0817 H       
  34 H34            3.9917     2.0789    -0.0077 H       
  35 H35            2.7233     3.2267     0.4789 H       
  36 H36            2.7414     1.2393    -1.7846 H       
  37 H37            2.1964     2.9347    -1.7694 H       
  38 H38            1.3258     1.3289     1.2686 H       
  39 H39            2.8927     1.3863     2.1104 H       
  40 H40            0.1109    -4.4578    -0.9732 H       
  41 H41            3.2988    -3.5366    -1.0921 H       
  42 H42           -0.3035    -6.1968    -1.4554 H       
  43 H43           -1.1854    -8.4379    -1.9531 H       
  44 H44           -3.2545    -8.6886    -3.2603 H       
  45 H45           -4.4527    -6.7021    -4.0779 H       
  46 H46            5.0831    -5.1637    -1.1769 H       
  47 H47            6.4598    -6.7939     0.0928 H       
  48 H48            5.9424    -7.1761     2.4945 H       
  49 H49            4.0940    -5.9383     3.5428 H       
  50 H50           -3.3539    -3.7623    -4.6534 H       
  51 H51           -4.8487    -4.3629    -3.8964 H       
  52 H52           -3.7434    -3.3150    -2.9751 H       
@<TRIPOS>BOND
   1    1    2 1
   2    1    6 1
   3    1   30 1
   4    1   31 1
   5    2   10 1
   6    2    3 2
   7    3    4 1
   8    3    8 1
   9    4    7 1
  10    4   32 1
  11    4   33 1
  12    5    6 1
  13    5    7 1
  14    5   34 1
  15    5   35 1
  16    6   36 1
  17    6   37 1
  18    7   38 1
  19    7   39 1
  20    8    9 2
  21    8   12 1
  22    9   10 1
  23    9   11 1
  24   11   15 am
  25   11   40 1
  26   12   13 2
  27   12   14 am
  28   14   23 1
  29   14   41 1
  30   15   16 1
  31   15   22 2
  32   16   17 ar
  33   16   21 ar
  34   17   18 ar
  35   17   42 1
  36   18   19 ar
  37   18   43 1
  38   19   20 ar
  39   19   44 1
  40   20   21 ar
  41   20   45 1
  42   21   29 1
  43   23   24 ar
  44   23   28 ar
  45   24   25 ar
  46   24   46 1
  47   25   26 ar
  48   25   47 1
  49   26   27 ar
  50   26   48 1
  51   27   28 ar
  52   27   49 1
  53   29   50 1
  54   29   51 1
  55   29   52 1

#	End of record

