#	Name: ASD10950015
#	Creating user name:	WinNT
#	Creation time:	15. 06. 2019 21:28

#	Modifying user name:	WinNT
#	Modification time:	15. 06. 2019 21:28

#	Program:	/corina/corina34_cracker 3.40 0067  02.08.2006

@<TRIPOS>MOLECULE
ASD10950015
  63   67    0    0    0
SMALL
NO_CHARGES


@<TRIPOS>ATOM
   1 C1            -1.3269     1.4909     0.0625 C.3     
   2 O2            -1.1381     0.0513     0.0484 O.3     
   3 C3            -0.3096    -0.4477    -0.8894 C.2     
   4 O4             0.2401     0.2993    -1.6738 O.2     
   5 C5            -0.0696    -1.9035    -0.9638 C.ar    
   6 C6             0.7885    -2.4240    -1.9345 C.ar    
   7 C7             1.0081    -3.7844    -1.9983 C.ar    
   8 C8             0.3803    -4.6325    -1.1033 C.ar    
   9 C9            -0.4713    -4.1233    -0.1389 C.ar    
  10 C10           -0.6954    -2.7645    -0.0601 C.ar    
  11 C11            0.6247    -6.1176    -1.1795 C.3     
  12 N12            0.9683    -6.6412     0.1477 N.am    
  13 C13            2.1211    -6.2431     0.9595 C.3     
  14 C14            1.7313    -5.0665     1.8564 C.3     
  15 C15            2.9171    -4.6570     2.6914 C.2     
  16 C16            3.1899    -5.0596     3.9426 C.2     
  17 N17            4.3508    -4.4798     4.3765 N.pl3   
  18 C18            4.8665    -3.6695     3.3900 C.ar    
  19 C19            3.9942    -3.7492     2.2894 C.ar    
  20 C20            4.2686    -3.0226     1.1290 C.ar    
  21 C21            5.3847    -2.2369     1.0687 C.ar    
  22 C22            6.2490    -2.1553     2.1521 C.ar    
  23 C23            5.9992    -2.8662     3.3052 C.ar    
  24 C24            0.0372    -7.5510     0.4874 C.2     
  25 O25            0.0218    -8.1779     1.5280 O.2     
  26 C26           -0.9646    -7.6749    -0.5926 C.2     
  27 C27           -0.6390    -6.8311    -1.5998 C.2     
  28 C28           -1.3715    -6.6451    -2.8558 C.2     
  29 O29           -2.3683    -7.3050    -3.0821 O.2     
  30 C30           -0.8990    -5.6557    -3.8477 C.ar    
  31 C31           -1.5631    -4.4360    -3.9928 C.ar    
  32 C32           -1.1169    -3.5174    -4.9202 C.ar    
  33 C33           -0.0140    -3.8024    -5.7057 C.ar    
  34 C34            0.6487    -5.0097    -5.5674 C.ar    
  35 C35            0.2171    -5.9345    -4.6398 C.ar    
  36 C36            0.9399    -7.2484    -4.4907 C.3     
  37 O37           -2.0361    -8.5004    -0.5770 O.3     
  38 H38           -0.3677     1.9815     0.2281 H       
  39 H39           -1.7392     1.8127    -0.8938 H       
  40 H40           -2.0154     1.7592     0.8638 H       
  41 H41            1.2789    -1.7632    -2.6339 H       
  42 H42            1.6713    -4.1884    -2.7489 H       
  43 H43           -0.9584    -4.7909     0.5564 H       
  44 H44           -1.3603    -2.3683     0.6932 H       
  45 H45            1.4280    -6.3290    -1.8853 H       
  46 H46            2.4368    -7.0829     1.5786 H       
  47 H47            2.9407    -5.9455     0.3054 H       
  48 H48            1.4156    -4.2267     1.2373 H       
  49 H49            0.9117    -5.3641     2.5105 H       
  50 H50            2.5826    -5.7398     4.5213 H       
  51 H51            4.7508    -4.6188     5.2492 H       
  52 H52            3.6011    -3.0818     0.2820 H       
  53 H53            5.5965    -1.6751     0.1709 H       
  54 H54            7.1274    -1.5302     2.0892 H       
  55 H55            6.6776    -2.7960     4.1426 H       
  56 H56           -2.4243    -4.2124    -3.3806 H       
  57 H57           -1.6298    -2.5737    -5.0337 H       
  58 H58            0.3311    -3.0797    -6.4302 H       
  59 H59            1.5087    -5.2259    -6.1839 H       
  60 H60            1.6802    -7.1675    -3.6948 H       
  61 H61            0.2232    -8.0311    -4.2420 H       
  62 H62            1.4390    -7.4969    -5.4273 H       
  63 H63           -2.1108    -9.0328     0.2268 H       
@<TRIPOS>BOND
   1    1    2 1
   2    1   38 1
   3    1   39 1
   4    1   40 1
   5    2    3 1
   6    3    4 2
   7    3    5 1
   8    5    6 ar
   9    5   10 ar
  10    6    7 ar
  11    6   41 1
  12    7    8 ar
  13    7   42 1
  14    8    9 ar
  15    8   11 1
  16    9   10 ar
  17    9   43 1
  18   10   44 1
  19   11   12 1
  20   11   27 1
  21   11   45 1
  22   12   13 1
  23   12   24 am
  24   13   14 1
  25   13   46 1
  26   13   47 1
  27   14   15 1
  28   14   48 1
  29   14   49 1
  30   15   16 2
  31   15   19 1
  32   16   17 1
  33   16   50 1
  34   17   18 1
  35   17   51 1
  36   18   19 ar
  37   18   23 ar
  38   19   20 ar
  39   20   21 ar
  40   20   52 1
  41   21   22 ar
  42   21   53 1
  43   22   23 ar
  44   22   54 1
  45   23   55 1
  46   24   25 2
  47   24   26 1
  48   26   27 2
  49   26   37 1
  50   27   28 1
  51   28   29 2
  52   28   30 1
  53   30   31 ar
  54   30   35 ar
  55   31   32 ar
  56   31   56 1
  57   32   33 ar
  58   32   57 1
  59   33   34 ar
  60   33   58 1
  61   34   35 ar
  62   34   59 1
  63   35   36 1
  64   36   60 1
  65   36   61 1
  66   36   62 1
  67   37   63 1

#	End of record

