#	Name: ASD10160192
#	Creating user name:	WinNT
#	Creation time:	15. 06. 2019 21:25

#	Modifying user name:	WinNT
#	Modification time:	15. 06. 2019 21:25

#	Program:	/corina/corina34_cracker 3.40 0067  02.08.2006

@<TRIPOS>MOLECULE
ASD10160192
  36   37    0    0    0
SMALL
NO_CHARGES


@<TRIPOS>ATOM
   1 C1            -0.0357     1.4700     0.0138 C.2     
   2 C2            -0.0110    -0.0043     0.0048 C.ar    
   3 C3             1.2042    -0.6853    -0.1326 C.ar    
   4 C4             1.2221    -2.0656    -0.1400 C.ar    
   5 C5             0.0373    -2.7777    -0.0120 C.ar    
   6 C6            -1.1736    -2.1041     0.1249 C.ar    
   7 C7            -1.2007    -0.7264     0.1391 C.ar    
   8 O8             1.0007     2.0962    -0.0981 O.2     
   9 N9            -1.2075     2.1236     0.1406 N.am    
  10 S10           -1.2352     3.7794     0.1508 S.o2    
  11 O11           -2.6074     4.1058     0.3232 O.2     
  12 O12           -0.2681     4.1401     1.1273 O.2     
  13 C13           -0.6721     4.2517    -1.5077 C.3     
  14 O14            0.0593    -4.1351    -0.0206 O.3     
  15 C15           -0.1518    -4.7680    -1.2020 C.ar    
  16 C16           -0.0381    -6.1498    -1.2707 C.ar    
  17 C17           -0.2555    -6.7872    -2.4813 C.ar    
  18 C18           -0.5807    -6.0168    -3.5864 C.ar    
  19 C19           -0.6780    -4.6395    -3.4476 C.ar    
  20 N20           -0.4693    -4.0621    -2.2753 N.ar    
  21 O21           -0.9954    -3.8772    -4.5242 O.3     
  22 C22           -1.0804    -2.4658    -4.3174 C.3     
  23 F23           -2.3235    -2.8025     0.2491 F       
  24 F24            2.3575     0.0071    -0.2581 F       
  25 H25            2.1591    -2.5922    -0.2459 H       
  26 H26           -2.1401    -0.2051     0.2498 H       
  27 H27           -2.0347     1.6242     0.2259 H       
  28 H28           -1.3508     3.8379    -2.2534 H       
  29 H29           -0.6592     5.3384    -1.5912 H       
  30 H30            0.3323     3.8626    -1.6749 H       
  31 H31            0.2173    -6.7213    -0.3906 H       
  32 H32           -0.1731    -7.8610    -2.5622 H       
  33 H33           -0.7561    -6.4829    -4.5447 H       
  34 H34           -1.8466    -2.2533    -3.5719 H       
  35 H35           -0.1186    -2.0914    -3.9668 H       
  36 H36           -1.3407    -1.9761    -5.2557 H       
@<TRIPOS>BOND
   1    1    2 1
   2    1    8 2
   3    1    9 am
   4    2    3 ar
   5    2    7 ar
   6    3    4 ar
   7    3   24 1
   8    4    5 ar
   9    4   25 1
  10    5    6 ar
  11    5   14 1
  12    6    7 ar
  13    6   23 1
  14    7   26 1
  15    9   10 am
  16    9   27 1
  17   10   11 2
  18   10   12 2
  19   10   13 1
  20   13   28 1
  21   13   29 1
  22   13   30 1
  23   14   15 1
  24   15   16 ar
  25   15   20 ar
  26   16   17 ar
  27   16   31 1
  28   17   18 ar
  29   17   32 1
  30   18   19 ar
  31   18   33 1
  32   19   20 ar
  33   19   21 1
  34   21   22 1
  35   22   34 1
  36   22   35 1
  37   22   36 1

#	End of record

