#	Name: ASD11000341
#	Creating user name:	WinNT
#	Creation time:	15. 06. 2019 21:29

#	Modifying user name:	WinNT
#	Modification time:	15. 06. 2019 21:29

#	Program:	/corina/corina34_cracker 3.40 0067  02.08.2006

@<TRIPOS>MOLECULE
ASD11000341
  42   45    0    0    0
SMALL
NO_CHARGES


@<TRIPOS>ATOM
   1 N1            -0.0172     1.3214    -0.0112 N.ar    
   2 C2             0.0016    -0.0034    -0.0060 C.ar    
   3 N3             1.1402    -0.6810    -0.0150 N.ar    
   4 C4             2.3025    -0.0498    -0.0301 C.ar    
   5 C5             2.3192     1.3362    -0.0364 C.ar    
   6 C6             1.1099     2.0135    -0.0262 C.ar    
   7 C7             3.6238     2.0903    -0.0530 C.3     
   8 O8             4.0225     2.3227    -1.4055 O.3     
   9 C9             5.1876     2.9964    -1.5985 C.ar    
  10 C10            5.9305     3.4243    -0.5010 C.ar    
  11 C11            7.1135     4.1078    -0.6775 C.ar    
  12 C12            7.5758     4.3764    -1.9613 C.ar    
  13 C13            6.8279     3.9457    -3.0735 C.ar    
  14 C14            5.6311     3.2481    -2.8814 C.ar    
  15 N15            8.7580     5.0607    -2.1590 N.am    
  16 C16            9.2066     5.3223    -3.3991 C.2     
  17 C17            8.4941     4.9127    -4.5464 C.2     
  18 C18            7.3259     4.2361    -4.4194 C.2     
  19 O19           10.2549     5.9291    -3.5360 O.2     
  20 N20           -1.1976    -0.6966     0.0098 N.pl3   
  21 C21           -1.2011    -2.0907    -0.1033 C.ar    
  22 C22           -2.1493    -2.8413     0.5789 C.ar    
  23 C23           -0.2594    -2.7262    -0.9027 C.ar    
  24 C24           -0.2645    -4.1028    -1.0130 C.ar    
  25 C25           -1.2069    -4.8498    -0.3283 C.ar    
  26 C26           -2.1503    -4.2190     0.4654 C.ar    
  27 Cl27          -1.2109    -6.5799    -0.4701 Cl      
  28 Cl28          -3.3310    -5.1593     1.3228 Cl      
  29 H29            3.2273    -0.6076    -0.0371 H       
  30 H30            1.0881     3.0933    -0.0310 H       
  31 H31            3.4983     3.0449     0.4579 H       
  32 H32            4.3890     1.5039     0.4556 H       
  33 H33            5.5757     3.2185     0.4980 H       
  34 H34            7.6815     4.4352     0.1807 H       
  35 H35            5.0537     2.9151    -3.7312 H       
  36 H36            9.2726     5.3574    -1.3922 H       
  37 H37            8.8809     5.1386    -5.5291 H       
  38 H38            6.7747     3.9184    -5.2921 H       
  39 H39           -2.0349    -0.2152     0.0992 H       
  40 H40           -2.8850    -2.3494     1.1979 H       
  41 H41            0.4761    -2.1440    -1.4380 H       
  42 H42            0.4676    -4.5968    -1.6345 H       
@<TRIPOS>BOND
   1    1    2 ar
   2    1    6 ar
   3    2    3 ar
   4    2   20 1
   5    3    4 ar
   6    4    5 ar
   7    4   29 1
   8    5    6 ar
   9    5    7 1
  10    6   30 1
  11    7    8 1
  12    7   31 1
  13    7   32 1
  14    8    9 1
  15    9   10 ar
  16    9   14 ar
  17   10   11 ar
  18   10   33 1
  19   11   12 ar
  20   11   34 1
  21   12   13 ar
  22   12   15 1
  23   13   14 ar
  24   13   18 1
  25   14   35 1
  26   15   16 am
  27   15   36 1
  28   16   17 1
  29   16   19 2
  30   17   18 2
  31   17   37 1
  32   18   38 1
  33   20   21 1
  34   20   39 1
  35   21   22 ar
  36   21   23 ar
  37   22   26 ar
  38   22   40 1
  39   23   24 ar
  40   23   41 1
  41   24   25 ar
  42   24   42 1
  43   25   26 ar
  44   25   27 1
  45   26   28 1

#	End of record

