#	Name: ASD11000060
#	Creating user name:	WinNT
#	Creation time:	15. 06. 2019 21:28

#	Modifying user name:	WinNT
#	Modification time:	15. 06. 2019 21:28

#	Program:	/corina/corina34_cracker 3.40 0067  02.08.2006

@<TRIPOS>MOLECULE
ASD11000060
  61   64    0    0    0
SMALL
NO_CHARGES


@<TRIPOS>ATOM
   1 C1             0.7653     1.5025     1.2709 C.ar    
   2 C2             0.6479     0.1279     1.2026 C.ar    
   3 C3             1.6445    -0.6241     0.5984 C.ar    
   4 C4             2.7592     0.0042     0.0631 C.ar    
   5 C5             2.8765     1.3788     0.1314 C.ar    
   6 C6             1.8797     2.1308     0.7352 C.ar    
   7 O7             1.9950     3.4841     0.8020 O.3     
   8 O8             1.5290    -1.9773     0.5312 O.3     
   9 C9             2.5927    -2.6885    -0.1050 C.3     
  10 C10            2.3689    -4.1933     0.0573 C.3     
  11 N11            1.5272    -4.6826    -1.0396 N.am    
  12 C12            3.6992    -4.9040     0.0331 C.ar    
  13 C13            3.9274    -6.0132    -0.7509 C.ar    
  14 C14            4.7129    -4.4041     0.8395 C.ar    
  15 C15            5.1704    -6.6341    -0.7180 C.ar    
  16 C16            6.1818    -6.1428     0.0863 C.ar    
  17 C17            5.9529    -5.0158     0.8698 C.ar    
  18 C18            1.4848    -6.1375    -1.2615 C.3     
  19 C19            2.8848    -6.5910    -1.6718 C.3     
  20 O20            6.9415    -4.5199     1.6611 O.3     
  21 C21            6.6316    -3.3604     2.4367 C.3     
  22 O22            7.3946    -6.7576     0.1114 O.3     
  23 C23            7.5557    -7.9088    -0.7198 C.3     
  24 C24            0.9310     4.1953     1.4378 C.3     
  25 C25            0.8206    -3.8346    -1.8130 C.2     
  26 S26            0.7431    -2.1723    -1.4112 S.2     
  27 N27            0.1750    -4.2954    -2.9027 N.am    
  28 C28           -1.0551    -4.9470    -2.7635 C.ar    
  29 C29           -1.6701    -5.5158    -3.8708 C.ar    
  30 C30           -2.8854    -6.1588    -3.7298 C.ar    
  31 C31           -3.4886    -6.2358    -2.4870 C.ar    
  32 C32           -2.8781    -5.6696    -1.3829 C.ar    
  33 C33           -1.6608    -5.0312    -1.5163 C.ar    
  34 Br34          -3.7248    -6.9336    -5.2369 Br      
  35 H35           -0.0129     2.0884     1.7374 H       
  36 H36           -0.2197    -0.3614     1.6201 H       
  37 H37            3.5355    -0.5814    -0.4067 H       
  38 H38            3.7446     1.8680    -0.2851 H       
  39 H39            2.6149    -2.4367    -1.1653 H       
  40 H40            3.5413    -2.4106     0.3544 H       
  41 H41            1.8730    -4.3856     1.0087 H       
  42 H42            4.5317    -3.5303     1.4478 H       
  43 H43            5.3477    -7.5088    -1.3262 H       
  44 H44            1.1883    -6.6423    -0.3421 H       
  45 H45            0.7748    -6.3689    -2.0555 H       
  46 H46            3.0843    -6.2605    -2.6912 H       
  47 H47            2.9351    -7.6791    -1.6323 H       
  48 H48            6.3506    -2.5432     1.7723 H       
  49 H49            5.8029    -3.5836     3.1086 H       
  50 H50            7.5048    -3.0698     3.0208 H       
  51 H51            7.3893    -7.6315    -1.7608 H       
  52 H52            8.5662    -8.3011    -0.6054 H       
  53 H53            6.8344    -8.6719    -0.4274 H       
  54 H54           -0.0012     4.0067     0.9053 H       
  55 H55            0.8345     3.8583     2.4698 H       
  56 H56            1.1482     5.2633     1.4231 H       
  57 H57            0.5632    -4.1751    -3.7834 H       
  58 H58           -1.1996    -5.4555    -4.8410 H       
  59 H59           -4.4382    -6.7387    -2.3790 H       
  60 H60           -3.3517    -5.7307    -0.4142 H       
  61 H61           -1.1847    -4.5896    -0.6534 H       
@<TRIPOS>BOND
   1    1    2 ar
   2    1    6 ar
   3    1   35 1
   4    2    3 ar
   5    2   36 1
   6    3    4 ar
   7    3    8 1
   8    4    5 ar
   9    4   37 1
  10    5    6 ar
  11    5   38 1
  12    6    7 1
  13    7   24 1
  14    8    9 1
  15    9   10 1
  16    9   39 1
  17    9   40 1
  18   10   11 1
  19   10   12 1
  20   10   41 1
  21   11   18 1
  22   11   25 am
  23   12   13 ar
  24   12   14 ar
  25   13   15 ar
  26   13   19 1
  27   14   17 ar
  28   14   42 1
  29   15   16 ar
  30   15   43 1
  31   16   17 ar
  32   16   22 1
  33   17   20 1
  34   18   19 1
  35   18   44 1
  36   18   45 1
  37   19   46 1
  38   19   47 1
  39   20   21 1
  40   21   48 1
  41   21   49 1
  42   21   50 1
  43   22   23 1
  44   23   51 1
  45   23   52 1
  46   23   53 1
  47   24   54 1
  48   24   55 1
  49   24   56 1
  50   25   26 2
  51   25   27 am
  52   27   28 1
  53   27   57 1
  54   28   29 ar
  55   28   33 ar
  56   29   30 ar
  57   29   58 1
  58   30   31 ar
  59   30   34 1
  60   31   32 ar
  61   31   59 1
  62   32   33 ar
  63   32   60 1
  64   33   61 1

#	End of record

