#	Name: ASD10610160
#	Creating user name:	WinNT
#	Creation time:	15. 06. 2019 21:28

#	Modifying user name:	WinNT
#	Modification time:	15. 06. 2019 21:28

#	Program:	/corina/corina34_cracker 3.40 0067  02.08.2006

@<TRIPOS>MOLECULE
ASD10610160
  20   21    0    0    0
SMALL
NO_CHARGES


@<TRIPOS>ATOM
   1 O1            -0.0144     1.2087     0.0087 O.3     
   2 N2             0.0021    -0.0041     0.0020 N.2     
   3 C3             1.2365    -0.4366    -0.0121 C.2     
   4 N4             2.0404     0.6509    -0.0139 N.2     
   5 C5             1.2350     1.6837    -0.0007 C.2     
   6 C6             1.6408     3.1350     0.0032 C.3     
   7 C7             1.6728    -1.8542    -0.0234 C.ar    
   8 C8             0.7259    -2.8780    -0.0199 C.ar    
   9 C9             1.1374    -4.1957    -0.0305 C.ar    
  10 C10            2.4876    -4.5028    -0.0441 C.ar    
  11 C11            3.4325    -3.4920    -0.0472 C.ar    
  12 C12            3.0323    -2.1685    -0.0434 C.ar    
  13 F13            3.9553    -1.1820    -0.0530 F       
  14 Cl14           2.9967    -6.1624    -0.0567 Cl      
  15 Br15          -1.1186    -2.4620    -0.0002 Br      
  16 H16            0.7489     3.7616     0.0156 H       
  17 H17            2.2423     3.3418     0.8884 H       
  18 H18            2.2246     3.3515    -0.8914 H       
  19 H19            0.4045    -4.9890    -0.0278 H       
  20 H20            4.4843    -3.7372    -0.0574 H       
@<TRIPOS>BOND
   1    1    2 1
   2    1    5 1
   3    2    3 2
   4    3    4 1
   5    3    7 1
   6    4    5 2
   7    5    6 1
   8    6   16 1
   9    6   17 1
  10    6   18 1
  11    7    8 ar
  12    7   12 ar
  13    8    9 ar
  14    8   15 1
  15    9   10 ar
  16    9   19 1
  17   10   11 ar
  18   10   14 1
  19   11   12 ar
  20   11   20 1
  21   12   13 1

#	End of record

