#	Name: ASD11730003
#	Creating user name:	WinNT
#	Creation time:	15. 06. 2019 21:29

#	Modifying user name:	WinNT
#	Modification time:	15. 06. 2019 21:29

#	Program:	/corina/corina34_cracker 3.40 0067  02.08.2006

@<TRIPOS>MOLECULE
ASD11730003
 208  210    0    0    0
SMALL
NO_CHARGES


@<TRIPOS>ATOM
   1 C1             5.6469    -1.9854     4.8222 C.2     
   2 N2             5.7580    -2.7721     3.7335 N.am    
   3 C3             6.8778    -3.7097     3.6186 C.3     
   4 C4             7.1428    -3.9998     2.1637 C.2     
   5 N5             8.3290    -4.5152     1.7844 N.am    
   6 C6             8.5676    -4.8460     0.3774 C.3     
   7 C7             9.1932    -6.2137     0.2821 C.2     
   8 N8             9.5034    -6.7304    -0.9235 N.am    
   9 C9            10.1115    -8.0599    -1.0161 C.3     
  10 C10           10.8996    -8.1637    -2.2964 C.2     
  11 N11           11.5502    -9.3053    -2.5967 N.am    
  12 C12           12.3163    -9.4062    -3.8413 C.3     
  13 C13           12.4196   -10.8525    -4.2517 C.2     
  14 N14           13.0850   -11.1885    -5.3746 N.am    
  15 C15           13.2802   -12.5997    -5.7159 C.3     
  16 C16           14.5476   -12.7522    -6.5168 C.2     
  17 N17           15.1119   -13.9677    -6.6605 N.am    
  18 C18           16.3899   -14.1035    -7.3636 C.3     
  19 C19           16.5088   -15.4969    -7.9250 C.2     
  20 N20           17.6095   -15.8532    -8.6165 N.am    
  21 C21           17.7250   -17.2078    -9.1623 C.3     
  22 C22           19.1809   -17.5608    -9.3262 C.2     
  23 N23           19.5310   -18.7667    -9.8158 N.am    
  24 C24           20.9463   -19.1099    -9.9752 C.3     
  25 C25           21.4435   -18.5890   -11.2990 C.2     
  26 C26           22.9079   -18.5055   -11.5646 C.2     
  27 O27           23.6991   -18.8568   -10.7153 O.2     
  28 O28           23.3519   -18.0402   -12.7468 O.3     
  29 O29           20.6554   -18.2391   -12.1448 O.2     
  30 O30           20.0376   -16.7597    -9.0175 O.2     
  31 O31           15.6141   -16.2978    -7.7546 O.2     
  32 O32           15.0599   -11.7811    -7.0321 O.2     
  33 O33           11.9040   -11.7142    -3.5716 O.2     
  34 O34           10.9485    -7.2200    -3.0566 O.2     
  35 O35            9.4176    -6.8495     1.2902 O.2     
  36 O36            6.2886    -3.7694     1.3341 O.2     
  37 O37            6.4739    -2.0536     5.7066 O.2     
  38 C38            6.5293    -5.0116     4.3429 C.3     
  39 C39            5.2820    -5.6300     3.7085 C.3     
  40 C40            7.6998    -5.9898     4.2251 C.3     
  41 C41           17.5392   -13.8475    -6.3866 C.3     
  42 C42           17.4908   -12.3938    -5.9120 C.3     
  43 C43           18.5617   -12.1707    -4.8422 C.3     
  44 C44           17.7515   -11.4615    -7.0968 C.3     
  45 C45           12.0916   -13.0935    -6.5432 C.3     
  46 C46           12.2211   -14.6006    -6.7729 C.3     
  47 C47           12.0794   -15.3340    -5.4376 C.3     
  48 C48           11.1222   -15.0669    -7.7299 C.3     
  49 C49           17.0287   -17.2705   -10.5232 C.3     
  50 O50           17.7181   -16.4294   -11.4502 O.3     
  51 C51            9.0132    -9.1250    -1.0056 C.3     
  52 C52            8.3044    -9.1026     0.3241 C.ar    
  53 C53            7.1993    -8.2921     0.5047 C.ar    
  54 C54            6.5491    -8.2715     1.7245 C.ar    
  55 C55            7.0039    -9.0617     2.7635 C.ar    
  56 C56            8.1085    -9.8729     2.5826 C.ar    
  57 C57            8.7560    -9.8968     1.3615 C.ar    
  58 C58           13.7195    -8.8362    -3.6240 C.3     
  59 C59           13.6214    -7.3381    -3.3294 C.3     
  60 C60           15.0246    -6.7681    -3.1121 C.3     
  61 C61           14.9265    -5.2699    -2.8175 C.3     
  62 N62           16.2738    -4.7227    -2.6089 N.3     
  63 N63            4.5941    -0.2763     6.2043 N.am    
  64 C64            4.4985    -1.0164     4.9376 C.3     
  65 C65            4.5686     0.0190     3.7954 C.3     
  66 C66            5.2682     1.2302     4.4669 C.3     
  67 C67            4.6938     1.1636     5.9041 C.3     
  68 C68            4.5861    -0.8231     7.4361 C.2     
  69 N69            4.2587    -0.7340     9.8390 N.am    
  70 C70            4.5841     0.0640     8.6543 C.3     
  71 C71            5.9672     0.6946     8.8283 C.3     
  72 C72            6.9786    -0.3846     9.1171 C.2     
  73 O73            6.6389    -1.5441     9.1262 O.2     
  74 O74            8.2568    -0.0578     9.3642 O.3     
  75 O75            4.5804    -2.0291     7.5642 O.2     
  76 C76            3.6512    -0.1566    10.8944 C.2     
  77 N77            3.0126    -0.1376    13.2356 N.am    
  78 C78            3.2181    -0.9976    12.0675 C.3     
  79 C79            1.9104    -1.7147    11.7258 C.3     
  80 C80            0.8461    -0.6823    11.3488 C.3     
  81 C81            2.1415    -2.6626    10.5472 C.3     
  82 O82            3.4530     1.0400    10.9001 O.2     
  83 C83            3.1200    -0.6506    14.4773 C.2     
  84 N84            2.6032    -0.5969    16.8511 N.3     
  85 C85            2.9086     0.2341    15.6789 C.3     
  86 C86            4.1786     1.0446    15.9452 C.3     
  87 C87            3.9238     2.0319    17.0859 C.3     
  88 C88            5.1938     2.8424    17.3522 C.3     
  89 N89            4.9498     3.7877    18.4445 N.pl3   
  90 C90            5.9537     4.6287    18.8630 C.2     
  91 N91            7.1226     4.5849    18.2879 N.2     
  92 N92            5.7247     5.5158    19.8880 N.pl3   
  93 O93            3.3867    -1.8241    14.6277 O.2     
  94 C94            9.5108    -3.8099    -0.2372 C.3     
  95 C95            8.8266    -2.4676    -0.2747 C.2     
  96 O96            7.6608    -2.3720     0.0458 O.2     
  97 N97            9.5103    -1.3734    -0.6642 N.am    
  98 C98           21.1104   -20.6304    -9.9313 C.3     
  99 C99           20.8240   -21.8226    -6.4879 C.2     
 100 N100          19.5755   -21.8555    -6.8660 N.2     
 101 C101          19.4875   -21.4397    -8.1382 C.2     
 102 C102          20.7287   -21.1377    -8.5645 C.2     
 103 N103          21.5769   -21.3804    -7.5180 N.pl3   
 104 H104           5.0966    -2.7175     3.0261 H       
 105 H105           7.7676    -3.2701     4.0693 H       
 106 H106           9.0246    -4.6671     2.4431 H       
 107 H107           7.6209    -4.8411    -0.1627 H       
 108 H108           9.3239    -6.2219    -1.7298 H       
 109 H109          10.7765    -8.2154    -0.1666 H       
 110 H110          11.5111   -10.0601    -1.9887 H       
 111 H111          11.8120    -8.8411    -4.6252 H       
 112 H112          13.4346   -10.4958    -5.9568 H       
 113 H113          13.3555   -13.1877    -4.8012 H       
 114 H114          14.6717   -14.7526    -6.2984 H       
 115 H115          16.4361   -13.3790    -8.1767 H       
 116 H116          18.3251   -15.2127    -8.7528 H       
 117 H117          17.2541   -17.9158    -8.4802 H       
 118 H118          18.8458   -19.4074   -10.0627 H       
 119 H119          21.5227   -18.6587    -9.1675 H       
 120 H120          24.3100   -18.0047   -12.8728 H       
 121 H121           6.3358    -4.8015     5.3948 H       
 122 H122           5.4755    -5.8401     2.6566 H       
 123 H123           5.0337    -6.5575     4.2245 H       
 124 H124           4.4481    -4.9331     3.7924 H       
 125 H125           7.8148    -6.2953     3.1851 H       
 126 H126           8.6148    -5.5042     4.5645 H       
 127 H127           7.5038    -6.8669     4.8418 H       
 128 H128          17.4421   -14.5131    -5.5290 H       
 129 H129          18.4895   -14.0351    -6.8864 H       
 130 H130          16.5078   -12.1813    -5.4918 H       
 131 H131          19.5448   -12.3832    -5.2623 H       
 132 H132          18.5272   -11.1350    -4.5040 H       
 133 H133          18.3760   -12.8349    -3.9981 H       
 134 H134          18.7346   -11.6740    -7.5169 H       
 135 H135          16.9886   -11.6204    -7.8589 H       
 136 H136          17.7170   -10.4258    -6.7586 H       
 137 H137          11.1651   -12.8858    -6.0079 H       
 138 H138          12.0792   -12.5793    -7.5042 H       
 139 H139          13.1971   -14.8196    -7.2059 H       
 140 H140          11.0780   -15.1724    -5.0388 H       
 141 H141          12.2420   -16.4010    -5.5901 H       
 142 H142          12.8174   -14.9511    -4.7327 H       
 143 H143          11.2232   -14.5444    -8.6812 H       
 144 H144          11.2145   -16.1406    -7.8936 H       
 145 H145          10.1462   -14.8479    -7.2969 H       
 146 H146          17.0371   -18.2974   -10.8886 H       
 147 H147          15.9984   -16.9299   -10.4202 H       
 148 H148          17.3307   -16.4201   -12.3361 H       
 149 H149           8.2983    -8.9176    -1.8019 H       
 150 H150           9.4581   -10.1074    -1.1637 H       
 151 H151           6.8440    -7.6747    -0.3071 H       
 152 H152           5.6862    -7.6377     1.8658 H       
 153 H153           6.4964    -9.0451     3.7167 H       
 154 H154           8.4640   -10.4901     3.3945 H       
 155 H155           9.6168   -10.5333     1.2190 H       
 156 H156          14.1907    -9.3421    -2.7814 H       
 157 H157          14.3178    -8.9915    -4.5218 H       
 158 H158          13.1502    -6.8321    -4.1720 H       
 159 H159          13.0232    -7.1827    -2.4316 H       
 160 H160          15.4958    -7.2740    -2.2695 H       
 161 H161          15.6229    -6.9234    -4.0099 H       
 162 H162          14.4553    -4.7640    -3.6602 H       
 163 H163          14.3283    -5.1146    -1.9197 H       
 164 H164          16.8675    -4.9112    -3.4026 H       
 165 H165          16.2359    -3.7337    -2.4125 H       
 166 H166           3.5513    -1.5540     4.8929 H       
 167 H167           5.1662    -0.3608     2.9667 H       
 168 H168           3.5680     0.2898     3.4584 H       
 169 H169           6.3507     1.1024     4.4725 H       
 170 H170           4.9891     2.1633     3.9775 H       
 171 H171           3.7083     1.6279     5.9406 H       
 172 H172           5.3702     1.6515     6.6059 H       
 173 H173           4.4805    -1.6780     9.8638 H       
 174 H174           3.8393     0.8502     8.5301 H       
 175 H175           6.2455     1.2180     7.9136 H       
 176 H176           5.9427     1.4010     9.6580 H       
 177 H177           8.8688    -0.7845     9.5441 H       
 178 H178           2.7992     0.8009    13.1153 H       
 179 H179           3.9893    -1.7350    12.2903 H       
 180 H180           1.5725    -2.2858    12.5905 H       
 181 H181           1.1840    -0.1112    10.4841 H       
 182 H182          -0.0855    -1.1931    11.1054 H       
 183 H183           0.6814    -0.0070    12.1885 H       
 184 H184           2.9040    -3.3945    10.8137 H       
 185 H185           1.2113    -3.1777    10.3075 H       
 186 H186           2.4738    -2.0907     9.6808 H       
 187 H187           3.3591    -1.2355    17.0485 H       
 188 H188           2.3940    -0.0247    17.6554 H       
 189 H189           2.0775     0.9131    15.4884 H       
 190 H190           4.9886     0.3701    16.2226 H       
 191 H191           4.4550     1.5932    15.0448 H       
 192 H192           3.1138     2.7064    16.8084 H       
 193 H193           3.6474     1.4832    17.9863 H       
 194 H194           6.0038     2.1679    17.6297 H       
 195 H195           5.4702     3.3910    16.4518 H       
 196 H196           4.0799     3.8203    18.8724 H       
 197 H197           7.8309     5.1782    18.5832 H       
 198 H198           4.8548     5.5484    20.3159 H       
 199 H199           6.4330     6.1091    20.1832 H       
 200 H200          10.4160    -3.7396     0.3658 H       
 201 H201           9.7723    -4.1128    -1.2511 H       
 202 H202          10.4427    -1.4498    -0.9205 H       
 203 H203           9.0700    -0.5095    -0.6883 H       
 204 H204          20.4653   -21.0873   -10.6817 H       
 205 H205          22.1487   -20.8899   -10.1382 H       
 206 H206          21.1934   -22.0989    -5.5113 H       
 207 H207          18.5803   -21.3612    -8.7189 H       
 208 H208          22.5391   -21.2577    -7.5166 H       
@<TRIPOS>BOND
   1    1    2 am
   2    1   37 2
   3    1   64 1
   4    2    3 1
   5    2  104 1
   6    3    4 1
   7    3   38 1
   8    3  105 1
   9    4    5 am
  10    4   36 2
  11    5    6 1
  12    5  106 1
  13    6    7 1
  14    6   94 1
  15    6  107 1
  16    7    8 am
  17    7   35 2
  18    8    9 1
  19    8  108 1
  20    9   10 1
  21    9   51 1
  22    9  109 1
  23   10   11 am
  24   10   34 2
  25   11   12 1
  26   11  110 1
  27   12   13 1
  28   12   58 1
  29   12  111 1
  30   13   14 am
  31   13   33 2
  32   14   15 1
  33   14  112 1
  34   15   16 1
  35   15   45 1
  36   15  113 1
  37   16   17 am
  38   16   32 2
  39   17   18 1
  40   17  114 1
  41   18   19 1
  42   18   41 1
  43   18  115 1
  44   19   20 am
  45   19   31 2
  46   20   21 1
  47   20  116 1
  48   21   22 1
  49   21   49 1
  50   21  117 1
  51   22   23 am
  52   22   30 2
  53   23   24 1
  54   23  118 1
  55   24   25 1
  56   24   98 1
  57   24  119 1
  58   25   26 1
  59   25   29 2
  60   26   27 2
  61   26   28 1
  62   28  120 1
  63   38   39 1
  64   38   40 1
  65   38  121 1
  66   39  122 1
  67   39  123 1
  68   39  124 1
  69   40  125 1
  70   40  126 1
  71   40  127 1
  72   41   42 1
  73   41  128 1
  74   41  129 1
  75   42   43 1
  76   42   44 1
  77   42  130 1
  78   43  131 1
  79   43  132 1
  80   43  133 1
  81   44  134 1
  82   44  135 1
  83   44  136 1
  84   45   46 1
  85   45  137 1
  86   45  138 1
  87   46   47 1
  88   46   48 1
  89   46  139 1
  90   47  140 1
  91   47  141 1
  92   47  142 1
  93   48  143 1
  94   48  144 1
  95   48  145 1
  96   49   50 1
  97   49  146 1
  98   49  147 1
  99   50  148 1
 100   51   52 1
 101   51  149 1
 102   51  150 1
 103   52   53 ar
 104   52   57 ar
 105   53   54 ar
 106   53  151 1
 107   54   55 ar
 108   54  152 1
 109   55   56 ar
 110   55  153 1
 111   56   57 ar
 112   56  154 1
 113   57  155 1
 114   58   59 1
 115   58  156 1
 116   58  157 1
 117   59   60 1
 118   59  158 1
 119   59  159 1
 120   60   61 1
 121   60  160 1
 122   60  161 1
 123   61   62 1
 124   61  162 1
 125   61  163 1
 126   62  164 1
 127   62  165 1
 128   63   64 1
 129   63   67 1
 130   63   68 am
 131   64   65 1
 132   64  166 1
 133   65   66 1
 134   65  167 1
 135   65  168 1
 136   66   67 1
 137   66  169 1
 138   66  170 1
 139   67  171 1
 140   67  172 1
 141   68   70 1
 142   68   75 2
 143   69   70 1
 144   69   76 am
 145   69  173 1
 146   70   71 1
 147   70  174 1
 148   71   72 1
 149   71  175 1
 150   71  176 1
 151   72   73 2
 152   72   74 1
 153   74  177 1
 154   76   82 2
 155   76   78 1
 156   77   83 am
 157   77   78 1
 158   77  178 1
 159   78   79 1
 160   78  179 1
 161   79   80 1
 162   79   81 1
 163   79  180 1
 164   80  181 1
 165   80  182 1
 166   80  183 1
 167   81  184 1
 168   81  185 1
 169   81  186 1
 170   83   85 1
 171   83   93 2
 172   84   85 1
 173   84  187 1
 174   84  188 1
 175   85   86 1
 176   85  189 1
 177   86   87 1
 178   86  190 1
 179   86  191 1
 180   87   88 1
 181   87  192 1
 182   87  193 1
 183   88   89 1
 184   88  194 1
 185   88  195 1
 186   89   90 1
 187   89  196 1
 188   90   91 2
 189   90   92 1
 190   91  197 1
 191   92  198 1
 192   92  199 1
 193   94   95 1
 194   94  200 1
 195   94  201 1
 196   95   96 2
 197   95   97 am
 198   97  202 1
 199   97  203 1
 200   98  102 1
 201   98  204 1
 202   98  205 1
 203   99  100 2
 204   99  103 1
 205   99  206 1
 206  100  101 1
 207  101  102 2
 208  101  207 1
 209  102  103 1
 210  103  208 1

#	End of record

