#	Name: ASD11710006
#	Creating user name:	WinNT
#	Creation time:	15. 06. 2019 21:29

#	Modifying user name:	WinNT
#	Modification time:	15. 06. 2019 21:29

#	Program:	/corina/corina34_cracker 3.40 0067  02.08.2006

@<TRIPOS>MOLECULE
ASD11710006
  47   49    0    0    0
SMALL
NO_CHARGES


@<TRIPOS>ATOM
   1 C1             2.9655     5.4264     2.6503 C.ar    
   2 C2             2.0804     6.4873     2.6943 C.ar    
   3 C3             1.0293     6.5481     1.7986 C.ar    
   4 C4             0.8634     5.5482     0.8586 C.ar    
   5 C5             1.7490     4.4877     0.8141 C.ar    
   6 C6             2.7993     4.4262     1.7107 C.ar    
   7 C7             1.5679     3.3973    -0.2103 C.3     
   8 N8             2.3037     3.7447    -1.4285 N.am    
   9 C9             3.5866     3.3581    -1.5743 C.2     
  10 C10            4.2966     3.6161    -2.8452 C.ar    
  11 O11            4.1599     2.7973    -0.6608 O.2     
  12 C12            4.0308     4.7767    -3.5734 C.ar    
  13 C13            5.2398     2.7028    -3.3190 C.ar    
  14 C14            5.8991     2.9498    -4.5054 C.ar    
  15 C15            5.6274     4.1000    -5.2249 C.ar    
  16 C16            4.6971     5.0116    -4.7584 C.ar    
  17 S17            6.4749     4.4083    -6.7387 S.o2    
  18 N18            5.5047     3.8607    -7.9639 N.am    
  19 C19            5.1711     2.5050    -8.0388 C.ar    
  20 C20            3.8572     2.1242    -8.2781 C.ar    
  21 C21            6.1543     1.5371    -7.8796 C.ar    
  22 C22            5.8226     0.1984    -7.9544 C.ar    
  23 C23            4.5111    -0.1789    -8.1884 C.ar    
  24 C24            3.5300     0.7844    -8.3521 C.ar    
  25 O25            6.5419     5.8206    -6.8806 O.2     
  26 O26            7.6240     3.5724    -6.7327 O.2     
  27 F27            4.1890    -1.4889    -8.2620 F       
  28 C28            1.6451     4.5123    -2.4883 C.3     
  29 H29            3.7893     5.3812     3.3472 H       
  30 H30            2.2100     7.2686     3.4286 H       
  31 H31            0.3374     7.3767     1.8334 H       
  32 H32            0.0418     5.5953     0.1593 H       
  33 H33            3.4914     3.5978     1.6756 H       
  34 H34            1.9488     2.4571     0.1886 H       
  35 H35            0.5086     3.2904    -0.4437 H       
  36 H36            3.3048     5.4891    -3.2103 H       
  37 H37            5.4533     1.8050    -2.7580 H       
  38 H38            6.6291     2.2440    -4.8732 H       
  39 H39            4.4896     5.9075    -5.3247 H       
  40 H40            5.1678     4.4806    -8.6297 H       
  41 H41            3.0916     2.8753    -8.4059 H       
  42 H42            7.1775     1.8310    -7.6979 H       
  43 H43            6.5868    -0.5546    -7.8307 H       
  44 H44            2.5077     0.4878    -8.5345 H       
  45 H45            1.8187     5.5763    -2.3278 H       
  46 H46            2.0527     4.2195    -3.4559 H       
  47 H47            0.5738     4.3121    -2.4698 H       
@<TRIPOS>BOND
   1    1    2 ar
   2    1    6 ar
   3    1   29 1
   4    2    3 ar
   5    2   30 1
   6    3    4 ar
   7    3   31 1
   8    4    5 ar
   9    4   32 1
  10    5    6 ar
  11    5    7 1
  12    6   33 1
  13    7    8 1
  14    7   34 1
  15    7   35 1
  16    8    9 am
  17    8   28 1
  18    9   10 1
  19    9   11 2
  20   10   12 ar
  21   10   13 ar
  22   12   16 ar
  23   12   36 1
  24   13   14 ar
  25   13   37 1
  26   14   15 ar
  27   14   38 1
  28   15   16 ar
  29   15   17 1
  30   16   39 1
  31   17   18 am
  32   17   25 2
  33   17   26 2
  34   18   19 1
  35   18   40 1
  36   19   20 ar
  37   19   21 ar
  38   20   24 ar
  39   20   41 1
  40   21   22 ar
  41   21   42 1
  42   22   23 ar
  43   22   43 1
  44   23   24 ar
  45   23   27 1
  46   24   44 1
  47   28   45 1
  48   28   46 1
  49   28   47 1

#	End of record

