#	Name: ASD13110034
#	Creating user name:	WinNT
#	Creation time:	15. 06. 2019 21:30

#	Modifying user name:	WinNT
#	Modification time:	15. 06. 2019 21:30

#	Program:	/corina/corina34_cracker 3.40 0067  02.08.2006

@<TRIPOS>MOLECULE
ASD13110034
  39   40    0    0    0
SMALL
NO_CHARGES


@<TRIPOS>ATOM
   1 C1            -0.1422     2.0948     0.1207 C.3     
   2 C2            -0.2941     0.5724     0.1949 C.3     
   3 C3             0.1165    -0.0307    -1.1545 C.3     
   4 C4             1.4332     0.5675    -1.5656 C.2     
   5 C5             2.0020     1.6593    -1.0543 C.2     
   6 C6             1.3420     2.4597     0.0614 C.3     
   7 S7             2.5285    -0.0324    -2.8137 S.3     
   8 C8             3.6955     1.2136    -2.5864 C.2     
   9 N9             3.2125     1.9929    -1.6107 N.am    
  10 O10            4.7445     1.3564    -3.1892 O.2     
  11 C11            3.9544     3.1691    -1.1497 C.3     
  12 C12            4.7816     2.7994     0.0832 C.3     
  13 C13            5.8698     1.7998    -0.3138 C.3     
  14 N14            5.4057     4.0094     0.6349 N.3     
  15 C15            6.0507     3.7278     1.9243 C.3     
  16 C16            6.4622     5.0240     2.5738 C.2     
  17 O17            7.0745     5.0114     3.7682 O.3     
  18 O18            6.2409     6.0744     2.0193 O.2     
  19 C19            6.3628     4.5888    -0.3171 C.3     
  20 H20           -0.6434     2.4665    -0.7730 H       
  21 H21           -0.5924     2.5480     1.0039 H       
  22 H22            0.3492     0.1789     0.9820 H       
  23 H23           -1.3325     0.3187     0.4078 H       
  24 H24            0.2202    -1.1113    -1.0560 H       
  25 H25           -0.6404     0.2002    -1.9040 H       
  26 H26            1.4482     3.5253    -0.1417 H       
  27 H27            1.8156     2.2185     1.0131 H       
  28 H28            4.6181     3.5137    -1.9426 H       
  29 H29            3.2532     3.9629    -0.8921 H       
  30 H30            4.1325     2.3503     0.8349 H       
  31 H31            6.4591     1.5365     0.5645 H       
  32 H32            5.4066     0.9020    -0.7232 H       
  33 H33            6.5189     2.2489    -1.0656 H       
  34 H34            5.3506     3.2023     2.5737 H       
  35 H35            6.9318     3.1070     1.7620 H       
  36 H36            7.3195     5.8677     4.1449 H       
  37 H37            5.8336     4.9103    -1.2141 H       
  38 H38            6.8564     5.4462     0.1404 H       
  39 H39            7.1085     3.8400    -0.5839 H       
@<TRIPOS>BOND
   1    1    2 1
   2    1    6 1
   3    1   20 1
   4    1   21 1
   5    2    3 1
   6    2   22 1
   7    2   23 1
   8    3    4 1
   9    3   24 1
  10    3   25 1
  11    4    7 1
  12    4    5 2
  13    5    6 1
  14    5    9 1
  15    6   26 1
  16    6   27 1
  17    7    8 1
  18    8    9 am
  19    8   10 2
  20    9   11 1
  21   11   12 1
  22   11   28 1
  23   11   29 1
  24   12   13 1
  25   12   14 1
  26   12   30 1
  27   13   31 1
  28   13   32 1
  29   13   33 1
  30   14   15 1
  31   14   19 1
  32   15   16 1
  33   15   34 1
  34   15   35 1
  35   16   17 1
  36   16   18 2
  37   17   36 1
  38   19   37 1
  39   19   38 1
  40   19   39 1

#	End of record

