#	Name: ASD11030049
#	Creating user name:	WinNT
#	Creation time:	15. 06. 2019 21:29

#	Modifying user name:	WinNT
#	Modification time:	15. 06. 2019 21:29

#	Program:	/corina/corina34_cracker 3.40 0067  02.08.2006

@<TRIPOS>MOLECULE
ASD11030049
  86   91    0    0    0
SMALL
NO_CHARGES


@<TRIPOS>ATOM
   1 C1            -0.5105     5.0464    -5.6064 C.ar    
   2 C2            -1.4893     4.2228    -5.0683 C.ar    
   3 C3            -1.2080     3.4873    -3.9309 C.ar    
   4 N4            -0.0263     3.5586    -3.3541 N.ar    
   5 C5             0.9381     4.3343    -3.8368 C.ar    
   6 C6             0.7228     5.1031    -4.9808 C.ar    
   7 C7             2.2497     4.3832    -3.1564 C.2     
   8 C8             2.8076     3.3656    -2.4531 C.2     
   9 C9             4.0586     3.8124    -1.9635 C.ar    
  10 C10            4.2194     5.1408    -2.4071 C.ar    
  11 N11            3.0985     5.4653    -3.1418 N.pl3   
  12 C12            5.0589     3.2074    -1.1890 C.ar    
  13 C13            6.1837     3.9022    -0.8656 C.ar    
  14 C14            6.3524     5.2243    -1.3025 C.ar    
  15 C15            5.3690     5.8407    -2.0725 C.ar    
  16 C16            2.8485     6.7542    -3.7919 C.3     
  17 C17            2.2032     2.0028    -2.2325 C.3     
  18 C18            7.5772     5.9658    -0.9443 C.2     
  19 N19            8.5306     5.3723    -0.1989 N.am    
  20 O20            7.7263     7.1120    -1.3216 O.2     
  21 C21            9.7927     6.0678     0.0651 C.3     
  22 C22            9.6052     7.3465     0.8401 C.2     
  23 N23            8.6213     7.4411     1.7564 N.am    
  24 O24           10.3396     8.2905     0.6393 O.2     
  25 C25            8.4841     8.6035     2.5148 C.ar    
  26 C26            8.6933     9.8466     1.9224 C.ar    
  27 C27            8.5618    10.9914     2.6547 C.ar    
  28 C28            8.2148    10.9217     4.0098 C.ar    
  29 C29            8.0028     9.6684     4.6113 C.ar    
  30 C30            8.1337     8.5166     3.8565 C.ar    
  31 C31           10.8905     5.1557     0.6376 C.3     
  32 C32           11.8791     5.9095    -0.2677 C.3     
  33 C33           10.6806     6.2269    -1.1804 C.3     
  34 C34            8.0736    12.1504     4.7981 C.2     
  35 C35            8.2787    13.3546     4.2164 C.2     
  36 C36            3.1270     0.9166    -2.8109 C.3     
  37 C37            3.5330     0.0093    -1.6311 C.3     
  38 C38            2.4013     0.2080    -0.5923 C.3     
  39 C39            2.0800     1.7177    -0.7214 C.3     
  40 C40            8.1424    14.5406     4.9773 C.2     
  41 O41            7.8409    14.4770     6.1543 O.2     
  42 O42            8.3470    15.7418     4.3971 O.3     
  43 O43            7.6667     9.5895     5.9235 O.3     
  44 C44            7.6197     8.2846     6.5040 C.3     
  45 C45            7.8092     8.3928     8.0183 C.3     
  46 C46            6.2641     7.6416     6.2043 C.3     
  47 H47           -0.7053     5.6267    -6.4961 H       
  48 H48           -2.4619     4.1570    -5.5331 H       
  49 H49           -1.9682     2.8459    -3.5100 H       
  50 H50            1.5072     5.7335    -5.3728 H       
  51 H51            4.9366     2.1897    -0.8487 H       
  52 H52            6.9512     3.4326    -0.2684 H       
  53 H53            5.5010     6.8589    -2.4075 H       
  54 H54            3.2036     6.7166    -4.8217 H       
  55 H55            1.7789     6.9638    -3.7838 H       
  56 H56            3.3771     7.5411    -3.2538 H       
  57 H57            1.2223     1.9488    -2.7046 H       
  58 H58            8.3810     4.4848     0.1627 H       
  59 H59            8.0087     6.7007     1.8884 H       
  60 H60            8.9614     9.9053     0.8778 H       
  61 H61            8.7259    11.9517     2.1886 H       
  62 H62            7.9721     7.5506     4.3116 H       
  63 H63           11.0716     5.3057     1.7019 H       
  64 H64           10.7684     4.1057     0.3718 H       
  65 H65           12.3149     6.7918     0.2011 H       
  66 H66           12.6244     5.2642    -0.7327 H       
  67 H67           10.5005     5.4699    -1.9437 H       
  68 H68           10.6941     7.2399    -1.5824 H       
  69 H69            7.8059    12.0940     5.8428 H       
  70 H70            8.5464    13.4111     3.1716 H       
  71 H71            2.5941     0.3350    -3.5631 H       
  72 H72            4.0125     1.3752    -3.2511 H       
  73 H73            3.5801    -1.0321    -1.9494 H       
  74 H74            4.4903     0.3266    -1.2177 H       
  75 H75            1.5308    -0.3956    -0.8492 H       
  76 H76            2.7533    -0.0275     0.4121 H       
  77 H77            2.8027     2.3108    -0.1611 H       
  78 H78            1.0668     1.9229    -0.3759 H       
  79 H79            8.2311    16.4925     4.9955 H       
  80 H80            8.4146     7.6701     6.0813 H       
  81 H81            7.0142     9.0073     8.4409 H       
  82 H82            7.7733     7.3974     8.4610 H       
  83 H83            8.7749     8.8509     8.2318 H       
  84 H84            6.1291     7.5645     5.1254 H       
  85 H85            6.2282     6.6463     6.6470 H       
  86 H86            5.4691     8.2561     6.6269 H       
@<TRIPOS>BOND
   1    1    2 ar
   2    1    6 ar
   3    1   47 1
   4    2    3 ar
   5    2   48 1
   6    3    4 ar
   7    3   49 1
   8    4    5 ar
   9    5    6 ar
  10    5    7 1
  11    6   50 1
  12    7    8 2
  13    7   11 1
  14    8    9 1
  15    8   17 1
  16    9   10 ar
  17    9   12 ar
  18   10   11 1
  19   10   15 ar
  20   11   16 1
  21   12   13 ar
  22   12   51 1
  23   13   14 ar
  24   13   52 1
  25   14   15 ar
  26   14   18 1
  27   15   53 1
  28   16   54 1
  29   16   55 1
  30   16   56 1
  31   17   36 1
  32   17   39 1
  33   17   57 1
  34   18   19 am
  35   18   20 2
  36   19   21 1
  37   19   58 1
  38   21   22 1
  39   21   31 1
  40   21   33 1
  41   22   23 am
  42   22   24 2
  43   23   25 1
  44   23   59 1
  45   25   26 ar
  46   25   30 ar
  47   26   27 ar
  48   26   60 1
  49   27   28 ar
  50   27   61 1
  51   28   29 ar
  52   28   34 1
  53   29   30 ar
  54   29   43 1
  55   30   62 1
  56   31   32 1
  57   31   63 1
  58   31   64 1
  59   32   33 1
  60   32   65 1
  61   32   66 1
  62   33   67 1
  63   33   68 1
  64   34   35 2
  65   34   69 1
  66   35   40 1
  67   35   70 1
  68   36   37 1
  69   36   71 1
  70   36   72 1
  71   37   38 1
  72   37   73 1
  73   37   74 1
  74   38   39 1
  75   38   75 1
  76   38   76 1
  77   39   77 1
  78   39   78 1
  79   40   41 2
  80   40   42 1
  81   42   79 1
  82   43   44 1
  83   44   45 1
  84   44   46 1
  85   44   80 1
  86   45   81 1
  87   45   82 1
  88   45   83 1
  89   46   84 1
  90   46   85 1
  91   46   86 1

#	End of record

