#	Name: ASD11920039
#	Creating user name:	WinNT
#	Creation time:	15. 06. 2019 21:29

#	Modifying user name:	WinNT
#	Modification time:	15. 06. 2019 21:29

#	Program:	/corina/corina34_cracker 3.40 0067  02.08.2006

@<TRIPOS>MOLECULE
ASD11920039
  39   40    0    0    0
SMALL
NO_CHARGES


@<TRIPOS>ATOM
   1 C1             0.3855     1.3661     0.6200 C.2     
   2 O2             0.5106     0.0267     0.7066 O.3     
   3 C3             1.4668     2.1770     0.6329 C.2     
   4 C4             1.3102     3.5782     0.5413 C.2     
   5 O5             2.3112     4.2721     0.5566 O.2     
   6 N6             0.1217     4.1838     0.4383 N.2     
   7 C7            -0.9978     3.5379     0.4131 C.2     
   8 C8            -0.9736     2.0267     0.4976 C.3     
   9 C9             0.0153    -0.5682     1.8232 C.ar    
  10 C10            0.0167    -1.9513     1.9327 C.ar    
  11 C11           -0.4871    -2.5536     3.0694 C.ar    
  12 C12           -0.9924    -1.7794     4.0973 C.ar    
  13 C13           -0.9950    -0.4005     3.9908 C.ar    
  14 C14           -0.4877     0.2069     2.8589 C.ar    
  15 C15           -1.5470     0.4402     5.1131 C.3     
  16 C16           -0.4259     0.7740     6.0993 C.3     
  17 C17           -0.9650     1.5952     7.1955 C.1     
  18 N18           -1.3812     2.2289     8.0416 N.1     
  19 C19           -2.3058     4.2772     0.2959 C.3     
  20 C20           -1.6581     1.4688    -0.7519 C.3     
  21 C21           -1.9734    -0.0135    -0.5418 C.3     
  22 I22            3.3859     1.3516     0.7902 I       
  23 H23           -1.5691     1.7326     1.3619 H       
  24 H24            0.4109    -2.5566     1.1298 H       
  25 H25           -0.4866    -3.6302     3.1550 H       
  26 H26           -1.3860    -2.2522     4.9849 H       
  27 H27           -0.4859     1.2838     2.7781 H       
  28 H28           -1.9599     1.3633     4.7064 H       
  29 H29           -2.3320    -0.1127     5.6290 H       
  30 H30           -0.0129    -0.1491     6.5061 H       
  31 H31            0.3592     1.3269     5.5834 H       
  32 H32           -2.1212     5.3507     0.3370 H       
  33 H33           -2.7813     4.0263    -0.6522 H       
  34 H34           -2.9607     3.9894     1.1183 H       
  35 H35           -2.5838     2.0150    -0.9336 H       
  36 H36           -0.9955     1.5813    -1.6100 H       
  37 H37           -2.4754    -0.4070    -1.4257 H       
  38 H38           -1.0463    -0.5622    -0.3760 H       
  39 H39           -2.6231    -0.1273     0.3260 H       
@<TRIPOS>BOND
   1    1    2 1
   2    1    3 2
   3    1    8 1
   4    2    9 1
   5    3    4 1
   6    3   22 1
   7    4    5 2
   8    4    6 1
   9    6    7 2
  10    7    8 1
  11    7   19 1
  12    8   20 1
  13    8   23 1
  14    9   10 ar
  15    9   14 ar
  16   10   11 ar
  17   10   24 1
  18   11   12 ar
  19   11   25 1
  20   12   13 ar
  21   12   26 1
  22   13   14 ar
  23   13   15 1
  24   14   27 1
  25   15   16 1
  26   15   28 1
  27   15   29 1
  28   16   17 1
  29   16   30 1
  30   16   31 1
  31   17   18 3
  32   19   32 1
  33   19   33 1
  34   19   34 1
  35   20   21 1
  36   20   35 1
  37   20   36 1
  38   21   37 1
  39   21   38 1
  40   21   39 1

#	End of record

