#	Name: ASD17120001
#	Creating user name:	WinNT
#	Creation time:	15. 06. 2019 21:31

#	Modifying user name:	WinNT
#	Modification time:	15. 06. 2019 21:31

#	Program:	/corina/corina34_cracker 3.40 0067  02.08.2006

@<TRIPOS>MOLECULE
ASD17120001
  27   28    0    0    0
SMALL
NO_CHARGES


@<TRIPOS>ATOM
   1 C1            -0.4689     1.3676    -0.8060 C.ar    
   2 C2            -0.3788     0.0240    -1.1180 C.ar    
   3 C3             0.6329     2.0366    -0.3066 C.ar    
   4 C4             0.8132    -0.6507    -0.9306 C.ar    
   5 C5             1.8248     1.3620    -0.1193 C.ar    
   6 C6             4.2307    -2.5272    -2.1859 C.ar    
   7 C7             4.7388    -2.8177    -3.4377 C.ar    
   8 C8             4.9497    -0.4752    -3.8948 C.ar    
   9 C9             1.9151     0.0185    -0.4317 C.ar    
  10 S10            3.4340    -0.8417    -0.1918 S.o2    
  11 O11            4.3319     0.0869     0.4004 O.2     
  12 O12            3.0997    -2.0878     0.4039 O.2     
  13 C13            4.0818    -1.2114    -1.7882 C.ar    
  14 C14            5.0985    -1.7914    -4.2933 C.ar    
  15 Cl15           5.7374    -2.1556    -5.8659 Cl      
  16 C16            4.4414    -0.1858    -2.6422 C.ar    
  17 N17            4.2826     1.2226    -2.2154 N.pl3   
  18 O18            4.4954     2.1257    -3.0044 O.2     
  19 O19            3.9392     1.4783    -1.0752 O.2     
  20 H20           -1.3988     1.8958    -0.9566 H       
  21 H21           -1.2397    -0.4988    -1.5078 H       
  22 H22            0.5626     3.0865    -0.0632 H       
  23 H23            0.8833    -1.7006    -1.1737 H       
  24 H24            2.6858     1.8849     0.2702 H       
  25 H25            3.9457    -3.3281    -1.5197 H       
  26 H26            4.8554    -3.8456    -3.7481 H       
  27 H27            5.2306     0.3263    -4.5620 H       
@<TRIPOS>BOND
   1    1    2 ar
   2    1    3 ar
   3    1   20 1
   4    2    4 ar
   5    2   21 1
   6    3    5 ar
   7    3   22 1
   8    4    9 ar
   9    4   23 1
  10    5    9 ar
  11    5   24 1
  12    6    7 ar
  13    6   13 ar
  14    6   25 1
  15    7   14 ar
  16    7   26 1
  17    8   14 ar
  18    8   16 ar
  19    8   27 1
  20    9   10 1
  21   10   11 2
  22   10   12 2
  23   10   13 1
  24   13   16 ar
  25   14   15 1
  26   16   17 1
  27   17   18 2
  28   17   19 2

#	End of record

