#	Name: ASD11920026
#	Creating user name:	WinNT
#	Creation time:	15. 06. 2019 21:29

#	Modifying user name:	WinNT
#	Modification time:	15. 06. 2019 21:29

#	Program:	/corina/corina34_cracker 3.40 0067  02.08.2006

@<TRIPOS>MOLECULE
ASD11920026
  48   51    0    0    0
SMALL
NO_CHARGES


@<TRIPOS>ATOM
   1 C1            -0.0168     1.3898     0.0097 C.ar    
   2 C2             0.0021    -0.0041     0.0020 C.ar    
   3 C3             1.2217    -0.6792    -0.0133 C.ar    
   4 C4             2.4025     0.0349    -0.0207 C.ar    
   5 C5             2.3776     1.4180    -0.0130 C.ar    
   6 C6             1.1703     2.0934     0.0021 C.ar    
   7 C7             3.6705     2.1921    -0.0207 C.3     
   8 C8             4.0885     2.4577    -1.4440 C.ar    
   9 C9             3.6628     3.6104    -2.0846 C.ar    
  10 C10            4.0456     3.8504    -3.3820 C.ar    
  11 C11            4.8617     2.9401    -4.0607 C.ar    
  12 C12            5.2866     1.7822    -3.4091 C.ar    
  13 C13            4.9007     1.5524    -2.1042 C.ar    
  14 C14            3.6047     5.0932    -4.1189 C.3     
  15 C15            4.0819     5.2613    -5.5452 C.2     
  16 N16            4.8659     4.3219    -6.1017 N.am    
  17 C17            5.2596     3.2173    -5.4527 C.2     
  18 O18            5.9691     2.4180    -6.0308 O.2     
  19 O19            5.2960     4.5079    -7.4379 O.3     
  20 O20            3.7580     6.2396    -6.1838 O.2     
  21 C21           -1.2701    -0.7656     0.0106 C.ar    
  22 C22           -1.2473    -2.1606     0.0029 C.ar    
  23 C23           -2.4276    -2.8688     0.0108 C.ar    
  24 C24           -3.6491    -2.1899     0.0265 C.ar    
  25 C25           -3.6705    -0.7924     0.0343 C.ar    
  26 C26           -2.4887    -0.0867     0.0321 C.ar    
  27 C27           -4.9155    -2.9480     0.0346 C.2     
  28 O28           -6.0927    -2.2929     0.0498 O.3     
  29 O29           -4.8963    -4.1627     0.0275 O.2     
  30 N30           -7.1750    -3.0203     0.0562 N.3     
  31 H31           -0.9588     1.9181     0.0170 H       
  32 H32            1.2423    -1.7590    -0.0189 H       
  33 H33            3.3479    -0.4870    -0.0322 H       
  34 H34            1.1569     3.1733     0.0077 H       
  35 H35            3.5299     3.1395     0.4995 H       
  36 H36            4.4441     1.6124     0.4829 H       
  37 H37            3.0321     4.3173    -1.5660 H       
  38 H38            5.9172     1.0711    -3.9220 H       
  39 H39            5.2284     0.6567    -1.5975 H       
  40 H40            2.5149     5.1085    -4.1268 H       
  41 H41            3.9434     5.9582    -3.5487 H       
  42 H42            5.8561     3.7948    -7.7737 H       
  43 H43           -0.3033    -2.6850    -0.0097 H       
  44 H44           -2.4097    -3.9487     0.0044 H       
  45 H45           -4.6137    -0.2666     0.0465 H       
  46 H46           -2.5049     0.9932     0.0384 H       
  47 H47           -7.1740    -3.6631     0.8339 H       
  48 H48           -8.0005    -2.4402     0.0675 H       
@<TRIPOS>BOND
   1    1    2 ar
   2    1    6 ar
   3    1   31 1
   4    2    3 ar
   5    2   21 1
   6    3    4 ar
   7    3   32 1
   8    4    5 ar
   9    4   33 1
  10    5    6 ar
  11    5    7 1
  12    6   34 1
  13    7    8 1
  14    7   35 1
  15    7   36 1
  16    8    9 ar
  17    8   13 ar
  18    9   10 ar
  19    9   37 1
  20   10   11 ar
  21   10   14 1
  22   11   12 ar
  23   11   17 1
  24   12   13 ar
  25   12   38 1
  26   13   39 1
  27   14   15 1
  28   14   40 1
  29   14   41 1
  30   15   16 am
  31   15   20 2
  32   16   17 am
  33   16   19 1
  34   17   18 2
  35   19   42 1
  36   21   22 ar
  37   21   26 ar
  38   22   23 ar
  39   22   43 1
  40   23   24 ar
  41   23   44 1
  42   24   25 ar
  43   24   27 1
  44   25   26 ar
  45   25   45 1
  46   26   46 1
  47   27   28 1
  48   27   29 2
  49   28   30 1
  50   30   47 1
  51   30   48 1

#	End of record

