#	Name: ASD10160466
#	Creating user name:	WinNT
#	Creation time:	15. 06. 2019 21:26

#	Modifying user name:	WinNT
#	Modification time:	15. 06. 2019 21:26

#	Program:	/corina/corina34_cracker 3.40 0067  02.08.2006

@<TRIPOS>MOLECULE
ASD10160466
  38   39    0    0    0
SMALL
NO_CHARGES


@<TRIPOS>ATOM
   1 C1             2.3054    -2.4884    -4.8771 C.2     
   2 C2             1.7176    -2.9200    -3.6069 C.ar    
   3 C3             0.4006    -3.4114    -3.5687 C.ar    
   4 C4            -0.1467    -3.8168    -2.3645 C.ar    
   5 C5             0.6020    -3.7386    -1.1990 C.ar    
   6 C6             1.9083    -3.2515    -1.2327 C.ar    
   7 C7             2.4675    -2.8506    -2.4240 C.ar    
   8 O8             3.4421    -2.0648    -4.9068 O.2     
   9 O9            -0.3309    -3.4871    -4.7086 O.3     
  10 C10           -1.6610    -3.9964    -4.5932 C.3     
  11 F11            2.6291    -3.1783    -0.0924 F       
  12 O12            0.0604    -4.1376    -0.0206 O.3     
  13 C13           -2.3093    -3.9261     0.1058 C.ar    
  14 C14           -1.1742    -4.7065    -0.0456 C.ar    
  15 C15           -1.3137    -6.0801    -0.2242 C.ar    
  16 C16           -2.5904    -6.6160    -0.2436 C.ar    
  17 C17           -3.6819    -5.7706    -0.0852 C.ar    
  18 N18           -3.5110    -4.4704     0.0822 N.ar    
  19 O19           -4.9380    -6.2857    -0.1030 O.3     
  20 C20           -6.0188    -5.3661     0.0649 C.3     
  21 C21           -6.4630    -4.8457    -1.3036 C.3     
  22 C22           -7.1910    -6.0755     0.7458 C.3     
  23 Cl23          -2.8244    -8.3221    -0.4634 Cl      
  24 H24            1.7286    -2.5512    -5.7880 H       
  25 H25           -1.1580    -4.1944    -2.3316 H       
  26 H26            3.4811    -2.4786    -2.4475 H       
  27 H27           -2.1338    -4.0037    -5.5753 H       
  28 H28           -1.6283    -5.0118    -4.1982 H       
  29 H29           -2.2356    -3.3622    -3.9180 H       
  30 H30           -2.2089    -2.8603     0.2493 H       
  31 H31           -0.4468    -6.7127    -0.3452 H       
  32 H32           -5.6917    -4.5299     0.6828 H       
  33 H33           -6.7902    -5.6819    -1.9216 H       
  34 H34           -7.2874    -4.1442    -1.1755 H       
  35 H35           -5.6279    -4.3403    -1.7887 H       
  36 H36           -6.8745    -6.4462     1.7208 H       
  37 H37           -8.0154    -5.3740     0.8739 H       
  38 H38           -7.5182    -6.9117     0.1278 H       
@<TRIPOS>BOND
   1    1    2 1
   2    1    8 2
   3    1   24 1
   4    2    3 ar
   5    2    7 ar
   6    3    4 ar
   7    3    9 1
   8    4    5 ar
   9    4   25 1
  10    5    6 ar
  11    5   12 1
  12    6    7 ar
  13    6   11 1
  14    7   26 1
  15    9   10 1
  16   10   27 1
  17   10   28 1
  18   10   29 1
  19   12   14 1
  20   13   14 ar
  21   13   18 ar
  22   13   30 1
  23   14   15 ar
  24   15   16 ar
  25   15   31 1
  26   16   17 ar
  27   16   23 1
  28   17   18 ar
  29   17   19 1
  30   19   20 1
  31   20   21 1
  32   20   22 1
  33   20   32 1
  34   21   33 1
  35   21   34 1
  36   21   35 1
  37   22   36 1
  38   22   37 1
  39   22   38 1

#	End of record

