#	Name: ASD13110017
#	Creating user name:	WinNT
#	Creation time:	15. 06. 2019 21:30

#	Modifying user name:	WinNT
#	Modification time:	15. 06. 2019 21:30

#	Program:	/corina/corina34_cracker 3.40 0067  02.08.2006

@<TRIPOS>MOLECULE
ASD13110017
  52   55    0    0    0
SMALL
NO_CHARGES


@<TRIPOS>ATOM
   1 C1             0.2379     1.4739    -0.0323 C.3     
   2 C2            -0.1037    -0.0171    -0.0005 C.3     
   3 H3             0.1793    -0.4743    -0.9487 H       
   4 N4            -1.5458    -0.1832     0.2103 N.am    
   5 C5            -2.0600     0.0443     1.5711 C.3     
   6 C6            -1.4538    -1.0191     2.4856 C.3     
   7 C7             0.0314    -1.1333     2.2640 C.ar    
   8 C8             0.6526    -0.6814     1.1225 C.ar    
   9 C9             2.0255    -0.8304     0.9793 C.ar    
  10 C10            2.7735    -1.4222     1.9761 C.ar    
  11 C11            2.1506    -1.8694     3.1267 C.ar    
  12 C12            0.7888    -1.7258     3.2675 C.ar    
  13 C13            0.1133    -2.2150     4.5227 C.3     
  14 C14           -0.2390    -1.0202     5.4111 C.3     
  15 O15           -1.0806    -2.9203     4.1773 O.3     
  16 C16            1.0582    -3.1514     5.2784 C.3     
  17 F17            0.4020    -3.6708     6.3995 F       
  18 C18           -2.3668    -0.5303    -0.8006 C.2     
  19 O19           -1.9169    -0.7120    -1.9121 O.2     
  20 C20           -3.8439    -0.6926    -0.5498 C.3     
  21 C21           -4.5317    -1.0809    -1.8332 C.ar    
  22 C22           -5.0086    -0.1174    -2.6754 C.ar    
  23 Cl23          -4.8186     1.5578    -2.2613 Cl      
  24 C24           -5.6447    -0.4660    -3.8619 C.ar    
  25 C25           -5.8059    -1.7768    -4.2100 C.ar    
  26 C26           -5.3296    -2.7811    -3.3706 C.ar    
  27 N27           -5.3343    -4.1505    -3.4314 N.pl3   
  28 H28           -5.7127    -4.6805    -4.1503 H       
  29 N29           -4.7056    -4.6613    -2.2911 N.2     
  30 C30           -4.3096    -3.6855    -1.5236 C.2     
  31 Cl31          -3.4833    -3.8484    -0.0056 Cl      
  32 C32           -4.6801    -2.4306    -2.1715 C.ar    
  33 H33            1.3092     1.5980    -0.1904 H       
  34 H34           -0.3074     1.9543    -0.8447 H       
  35 H35           -0.0449     1.9317     0.9157 H       
  36 H36           -1.7677     1.0365     1.9149 H       
  37 H37           -3.1466    -0.0426     1.5742 H       
  38 H38           -1.6414    -0.7477     3.5245 H       
  39 H39           -1.9224    -1.9808     2.2769 H       
  40 H40            2.5116    -0.4807     0.0806 H       
  41 H41            3.8410    -1.5360     1.8581 H       
  42 H42            2.7309    -2.3303     3.9123 H       
  43 H43           -0.7980    -0.2873     4.8294 H       
  44 H44           -0.8470    -1.3582     6.2502 H       
  45 H45            0.6770    -0.5640     5.7865 H       
  46 H46           -0.9324    -3.6919     3.6136 H       
  47 H47            1.3606    -3.9686     4.6235 H       
  48 H48            1.9403    -2.5968     5.5984 H       
  49 H49           -4.0024    -1.4705     0.1971 H       
  50 H50           -4.2564     0.2489    -0.1869 H       
  51 H51           -6.0160     0.3092    -4.5158 H       
  52 H52           -6.3020    -2.0341    -5.1342 H       
@<TRIPOS>BOND
   1    1    2 1
   2    1   33 1
   3    1   34 1
   4    1   35 1
   5    2    3 1
   6    2    8 1
   7    2    4 1
   8    4    5 1
   9    4   18 am
  10    5    6 1
  11    5   36 1
  12    5   37 1
  13    6    7 1
  14    6   38 1
  15    6   39 1
  16    7   12 ar
  17    7    8 ar
  18    8    9 ar
  19    9   10 ar
  20    9   40 1
  21   10   11 ar
  22   10   41 1
  23   11   12 ar
  24   11   42 1
  25   12   13 1
  26   13   14 1
  27   13   15 1
  28   13   16 1
  29   14   43 1
  30   14   44 1
  31   14   45 1
  32   15   46 1
  33   16   17 1
  34   16   47 1
  35   16   48 1
  36   18   19 2
  37   18   20 1
  38   20   21 1
  39   20   49 1
  40   20   50 1
  41   21   32 ar
  42   21   22 ar
  43   22   23 1
  44   22   24 ar
  45   24   25 ar
  46   24   51 1
  47   25   26 ar
  48   25   52 1
  49   26   32 ar
  50   26   27 1
  51   27   28 1
  52   27   29 1
  53   29   30 2
  54   30   31 1
  55   30   32 1

#	End of record

