#	Name: ASD11360001
#	Creating user name:	WinNT
#	Creation time:	15. 06. 2019 21:29

#	Modifying user name:	WinNT
#	Modification time:	15. 06. 2019 21:29

#	Program:	/corina/corina34_cracker 3.40 0067  02.08.2006

@<TRIPOS>MOLECULE
ASD11360001
  79   84    0    0    0
SMALL
NO_CHARGES


@<TRIPOS>ATOM
   1 O1            -0.0174     1.4316     0.0099 O.3     
   2 O2             1.4397     3.1282    -0.7324 O.3     
   3 O3             2.8192     1.2724    -1.8396 O.3     
   4 O4             0.6124    -0.3945    -5.3697 O.3     
   5 O5            -2.3213    -5.5498    -6.8286 O.3     
   6 C6             0.6487    -0.4519    -2.2885 C.3     
   7 C7            -0.6320    -1.2754    -1.9752 C.3     
   8 C8             1.2433    -0.3706    -0.8806 C.3     
   9 C9            -1.4968    -1.3827    -3.2120 C.3     
  10 C10           -0.6879    -2.1462    -4.2656 C.3     
  11 C11            0.0021    -0.0041     0.0020 C.3     
  12 C12           -1.2262    -0.5328    -0.7792 C.3     
  13 C13           -1.5199    -2.3655    -5.5297 C.3     
  14 C14            1.4785    -1.2448    -3.2764 C.3     
  15 C15            2.2002     0.8049    -0.6398 C.3     
  16 C16            0.6745    -1.5524    -4.5444 C.3     
  17 C17            1.3387     1.8930    -0.0006 C.3     
  18 C18           -2.7400    -3.2110    -5.1476 C.3     
  19 C19           -2.7504    -2.1979    -2.8601 C.3     
  20 C20            0.2751     0.9190    -2.8416 C.3     
  21 C21           -3.5828    -2.4720    -4.1099 C.3     
  22 C22           -0.6836    -3.1298    -6.5579 C.3     
  23 C23            1.7853     2.2749     1.4210 C.3     
  24 C24           -3.5817    -3.5361    -6.3769 C.3     
  25 C25           -1.9801    -1.0363    -6.1241 C.3     
  26 C26            3.3111     0.3373     0.3203 C.3     
  27 C27            1.0858     3.6560     1.5877 C.3     
  28 C28           -1.5147    -3.4817    -7.7882 C.3     
  29 C29            0.9964     4.1826     0.1417 C.3     
  30 C30           -2.7388    -4.3059    -7.3942 C.3     
  31 C31           -0.3003     3.4946     2.2055 C.3     
  32 C32            1.9081     5.4027    -0.0190 C.3     
  33 C33           -0.4457     4.5712    -0.1862 C.3     
  34 H34           -0.3373    -2.2801    -1.6553 H       
  35 H35            1.6864    -1.3322    -0.5762 H       
  36 H36           -1.7983    -0.4052    -3.5656 H       
  37 H37           -0.5090    -3.1591    -3.8422 H       
  38 H38            0.0690    -0.4319     1.0000 H       
  39 H39           -1.8569     0.2885    -1.1087 H       
  40 H40           -1.7963    -1.2242    -0.1579 H       
  41 H41            2.3740    -0.6725    -3.5422 H       
  42 H42            1.7976    -2.1839    -2.8103 H       
  43 H43            1.2537    -2.3122    -5.1096 H       
  44 H44           -2.3842    -4.1492    -4.7034 H       
  45 H45           -2.4423    -3.1432    -2.4109 H       
  46 H46           -3.3466    -1.6360    -2.1397 H       
  47 H47           -0.3440     1.4470    -2.1164 H       
  48 H48            1.1817     1.4934    -3.0319 H       
  49 H49           -0.2795     0.7966    -3.7720 H       
  50 H50           -3.9739    -1.5430    -4.5137 H       
  51 H51           -4.4340    -3.1074    -3.8330 H       
  52 H52            0.1648    -2.5119    -6.8626 H       
  53 H53           -0.3021    -4.0457    -6.1011 H       
  54 H54            1.4182     1.5675     2.1597 H       
  55 H55            2.8603     2.4279     1.5022 H       
  56 H56           -4.4278    -4.1641    -6.0740 H       
  57 H57           -3.9753    -2.6303    -6.8305 H       
  58 H58           -1.1098    -0.4323    -6.3807 H       
  59 H59           -2.5693    -1.2243    -7.0217 H       
  60 H60           -2.5897    -0.5036    -5.3943 H       
  61 H61            3.9830     1.1693     0.5313 H       
  62 H62            2.8638    -0.0133     1.2504 H       
  63 H63            3.8725    -0.4748    -0.1416 H       
  64 H64            1.7036     4.3152     2.1975 H       
  65 H65           -1.8284    -2.5791    -8.3098 H       
  66 H66           -0.8976    -4.0744    -8.4749 H       
  67 H67           -3.3425    -4.5028    -8.2839 H       
  68 H68            3.4259     2.0135    -1.7062 H       
  69 H69            1.4767    -0.0687    -5.6560 H       
  70 H70           -0.2068     3.0516     3.1970 H       
  71 H71           -0.7776     4.4711     2.2873 H       
  72 H72           -0.9065     2.8457     1.5734 H       
  73 H73            1.8520     5.7655    -1.0453 H       
  74 H74            1.5854     6.1896     0.6627 H       
  75 H75            2.9356     5.1213     0.2113 H       
  76 H76           -1.0900     3.6984    -0.0814 H       
  77 H77           -0.7765     5.3515     0.4992 H       
  78 H78           -0.4984     4.9409    -1.2103 H       
  79 H79           -1.7814    -6.0901    -7.4217 H       
@<TRIPOS>BOND
   1    1   11 1
   2    1   17 1
   3    2   17 1
   4    2   29 1
   5    3   68 1
   6    3   15 1
   7    4   69 1
   8    4   16 1
   9    5   79 1
  10    5   30 1
  11    6    7 1
  12    6   14 1
  13    6   20 1
  14    6    8 1
  15    7    9 1
  16    7   12 1
  17    7   34 1
  18    8   35 1
  19    8   11 1
  20    8   15 1
  21    9   10 1
  22    9   19 1
  23    9   36 1
  24   10   13 1
  25   10   37 1
  26   10   16 1
  27   11   12 1
  28   11   38 1
  29   12   39 1
  30   12   40 1
  31   13   18 1
  32   13   22 1
  33   13   25 1
  34   14   16 1
  35   14   41 1
  36   14   42 1
  37   15   26 1
  38   15   17 1
  39   16   43 1
  40   17   23 1
  41   18   21 1
  42   18   24 1
  43   18   44 1
  44   19   21 1
  45   19   45 1
  46   19   46 1
  47   20   47 1
  48   20   48 1
  49   20   49 1
  50   21   50 1
  51   21   51 1
  52   22   28 1
  53   22   52 1
  54   22   53 1
  55   23   27 1
  56   23   54 1
  57   23   55 1
  58   24   30 1
  59   24   56 1
  60   24   57 1
  61   25   58 1
  62   25   59 1
  63   25   60 1
  64   26   61 1
  65   26   62 1
  66   26   63 1
  67   27   29 1
  68   27   31 1
  69   27   64 1
  70   28   30 1
  71   28   65 1
  72   28   66 1
  73   29   32 1
  74   29   33 1
  75   30   67 1
  76   31   70 1
  77   31   71 1
  78   31   72 1
  79   32   73 1
  80   32   74 1
  81   32   75 1
  82   33   76 1
  83   33   77 1
  84   33   78 1

#	End of record

