#	Name: ASD11000222
#	Creating user name:	WinNT
#	Creation time:	15. 06. 2019 21:28

#	Modifying user name:	WinNT
#	Modification time:	15. 06. 2019 21:28

#	Program:	/corina/corina34_cracker 3.40 0067  02.08.2006

@<TRIPOS>MOLECULE
ASD11000222
  47   50    0    0    0
SMALL
NO_CHARGES


@<TRIPOS>ATOM
   1 N1            -0.0172     1.3214    -0.0111 N.ar    
   2 C2             0.0016    -0.0034    -0.0059 C.ar    
   3 N3             1.1402    -0.6810    -0.0154 N.ar    
   4 C4             2.3025    -0.0498    -0.0304 C.ar    
   5 C5             2.3192     1.3362    -0.0362 C.ar    
   6 C6             1.1099     2.0135    -0.0260 C.ar    
   7 N7            -1.1977    -0.6966     0.0102 N.pl3   
   8 C8            -1.2012    -2.0901    -0.1028 C.ar    
   9 C9            -2.1494    -2.8411     0.5800 C.ar    
  10 C10           -0.2602    -2.7256    -0.9024 C.ar    
  11 C11           -0.2669    -4.1043    -1.0122 C.ar    
  12 C12           -1.2112    -4.8497    -0.3252 C.ar    
  13 C13           -2.1516    -4.2178     0.4667 C.ar    
  14 C14            3.6238     2.0903    -0.0528 C.3     
  15 C15            4.0505     2.3396    -1.5008 C.3     
  16 C16            5.3551     3.0937    -1.5174 C.ar    
  17 C17            6.5338     2.4053    -1.5268 C.ar    
  18 C18            7.7443     3.1065    -1.5422 C.ar    
  19 C19            7.7338     4.5149    -1.5478 C.ar    
  20 C20            6.5159     5.1898    -1.5380 C.ar    
  21 C21            5.3467     4.4829    -1.5287 C.ar    
  22 C22           -1.2169    -6.3518    -0.4462 C.3     
  23 C23           -0.2290    -6.9481     0.5585 C.3     
  24 C24            9.1478     2.7070    -1.5550 C.2     
  25 N25            9.8699     3.7908    -1.5669 N.2     
  26 N26            9.0432     4.9191    -1.5630 N.pl3   
  27 F27            0.6474    -4.7243    -1.7899 F       
  28 H28            3.2272    -0.6076    -0.0377 H       
  29 H29            1.0881     3.0933    -0.0306 H       
  30 H30           -2.0350    -0.2152     0.0999 H       
  31 H31           -2.8845    -2.3489     1.1994 H       
  32 H32            0.4756    -2.1441    -1.4380 H       
  33 H33           -2.8865    -4.8016     1.0010 H       
  34 H34            3.4983     3.0447     0.4584 H       
  35 H35            4.3891     1.5037     0.4555 H       
  36 H36            4.1760     1.3852    -2.0121 H       
  37 H37            3.2852     2.9262    -2.0092 H       
  38 H38            6.5318     1.3253    -1.5220 H       
  39 H39            6.4954     6.2696    -1.5418 H       
  40 H40            4.4045     5.0106    -1.5211 H       
  41 H41           -2.2182    -6.7293    -0.2389 H       
  42 H42           -0.9235    -6.6361    -1.4568 H       
  43 H43            0.7724    -6.5707     0.3511 H       
  44 H44           -0.5224    -6.6639     1.5690 H       
  45 H45           -0.2331    -8.0346     0.4710 H       
  46 H46            9.5211     1.6935    -1.5542 H       
  47 H47            9.3479     5.8400    -1.5696 H       
@<TRIPOS>BOND
   1    1    2 ar
   2    1    6 ar
   3    2    3 ar
   4    2    7 1
   5    3    4 ar
   6    4    5 ar
   7    4   28 1
   8    5    6 ar
   9    5   14 1
  10    6   29 1
  11    7    8 1
  12    7   30 1
  13    8    9 ar
  14    8   10 ar
  15    9   13 ar
  16    9   31 1
  17   10   11 ar
  18   10   32 1
  19   11   12 ar
  20   11   27 1
  21   12   13 ar
  22   12   22 1
  23   13   33 1
  24   14   15 1
  25   14   34 1
  26   14   35 1
  27   15   16 1
  28   15   36 1
  29   15   37 1
  30   16   17 ar
  31   16   21 ar
  32   17   18 ar
  33   17   38 1
  34   18   19 ar
  35   18   24 1
  36   19   20 ar
  37   19   26 1
  38   20   21 ar
  39   20   39 1
  40   21   40 1
  41   22   23 1
  42   22   41 1
  43   22   42 1
  44   23   43 1
  45   23   44 1
  46   23   45 1
  47   24   25 2
  48   24   46 1
  49   25   26 1
  50   26   47 1

#	End of record

