#	Name: ASD10420126
#	Creating user name:	WinNT
#	Creation time:	15. 06. 2019 21:27

#	Modifying user name:	WinNT
#	Modification time:	15. 06. 2019 21:27

#	Program:	/corina/corina34_cracker 3.40 0067  02.08.2006

@<TRIPOS>MOLECULE
ASD10420126
  27   29    0    0    0
SMALL
NO_CHARGES


@<TRIPOS>ATOM
   1 Cl1            1.2976    -4.6211    -0.0449 Cl      
   2 Cl2           -3.4173    -1.9273     0.0280 Cl      
   3 C3            -0.0169     1.3956     0.0097 C.ar    
   4 C4             0.0021    -0.0041     0.0020 C.ar    
   5 C5             1.2317    -0.6879    -0.0134 C.ar    
   6 C6             2.4154     0.0241    -0.0216 C.ar    
   7 C7             2.3815     1.4198    -0.0145 C.ar    
   8 C8             1.1531     2.0939     0.0023 C.ar    
   9 C9            -0.4062    -2.1302    -0.0043 C.2     
  10 C10           -1.1388    -3.4125    -0.0026 C.ar    
  11 C11           -2.5360    -3.4229     0.0114 C.ar    
  12 C12           -3.2140    -4.6259     0.0125 C.ar    
  13 C13           -2.5135    -5.8187    -0.0003 C.ar    
  14 C14           -1.1302    -5.8165    -0.0138 C.ar    
  15 C15           -0.4382    -4.6215    -0.0208 C.ar    
  16 N16           -0.9656    -0.9452     0.0070 N.2     
  17 O17            0.9341    -2.0072    -0.0169 O.3     
  18 C18            3.6410     2.1862    -0.0227 C.2     
  19 O19            4.7070     1.6030    -0.0357 O.2     
  20 O20            3.6101     3.5334    -0.0158 O.3     
  21 H21           -0.9597     1.9224     0.0170 H       
  22 H22            3.3618    -0.4960    -0.0332 H       
  23 H23            1.1336     3.1737     0.0083 H       
  24 H24           -4.2939    -4.6355     0.0236 H       
  25 H25           -3.0492    -6.7564     0.0006 H       
  26 H26           -0.5901    -6.7517    -0.0233 H       
  27 H27            4.4613     3.9922    -0.0217 H       
@<TRIPOS>BOND
   1    1   15 1
   2    2   11 1
   3    3    4 ar
   4    3    8 ar
   5    3   21 1
   6    4    5 ar
   7    4   16 1
   8    5    6 ar
   9    5   17 1
  10    6    7 ar
  11    6   22 1
  12    7    8 ar
  13    7   18 1
  14    8   23 1
  15    9   10 1
  16    9   16 2
  17    9   17 1
  18   10   11 ar
  19   10   15 ar
  20   11   12 ar
  21   12   13 ar
  22   12   24 1
  23   13   14 ar
  24   13   25 1
  25   14   15 ar
  26   14   26 1
  27   18   19 2
  28   18   20 1
  29   20   27 1

#	End of record

