#	Name: ASD11000226
#	Creating user name:	WinNT
#	Creation time:	15. 06. 2019 21:29

#	Modifying user name:	WinNT
#	Modification time:	15. 06. 2019 21:29

#	Program:	/corina/corina34_cracker 3.40 0067  02.08.2006

@<TRIPOS>MOLECULE
ASD11000226
  48   51    0    0    0
SMALL
NO_CHARGES


@<TRIPOS>ATOM
   1 N1            -0.0172     1.3215    -0.0112 N.ar    
   2 C2             0.0016    -0.0034    -0.0060 C.ar    
   3 N3             1.1403    -0.6810    -0.0154 N.ar    
   4 C4             2.3025    -0.0498    -0.0305 C.ar    
   5 C5             2.3192     1.3363    -0.0363 C.ar    
   6 C6             1.1099     2.0136    -0.0261 C.ar    
   7 N7            -1.1974    -0.6965     0.0102 N.pl3   
   8 C8            -1.2009    -2.0922    -0.1029 C.ar    
   9 C9            -2.1490    -2.8418     0.5799 C.ar    
  10 C10           -0.2593    -2.7267    -0.9029 C.ar    
  11 C11           -0.2640    -4.1045    -1.0142 C.ar    
  12 C12           -1.2105    -4.8534    -0.3259 C.ar    
  13 C13           -2.1530    -4.2191     0.4680 C.ar    
  14 C14            3.6238     2.0904    -0.0529 C.3     
  15 C15            4.0504     2.3397    -1.5010 C.3     
  16 C16            5.3550     3.0939    -1.5176 C.ar    
  17 C17            6.5537     2.3943    -1.5271 C.ar    
  18 C18            7.7587     3.0635    -1.5423 C.ar    
  19 C19            7.7757     4.4541    -1.5486 C.ar    
  20 C20            6.5577     5.1603    -1.5394 C.ar    
  21 C21            5.3472     4.4601    -1.5288 C.ar    
  22 O22           -1.2153    -6.2094    -0.4353 O.3     
  23 C23           -2.2164    -6.9160     0.2999 C.3     
  24 F24            0.6511    -4.7227    -1.7924 F       
  25 F25           -2.0675    -6.6496     1.6652 F       
  26 F26           -3.4843    -6.5004    -0.1207 F       
  27 N27            8.9663     5.1490    -1.5633 N.am    
  28 C28            8.9823     6.4934    -1.5690 C.2     
  29 C29            7.7898     7.2484    -1.5603 C.2     
  30 C30            6.5862     6.6241    -1.5462 C.2     
  31 O31           10.0535     7.0748    -1.5816 O.2     
  32 H32            3.2273    -0.6075    -0.0378 H       
  33 H33            1.0881     3.0934    -0.0306 H       
  34 H34           -2.0347    -0.2151     0.0999 H       
  35 H35           -2.8836    -2.3484     1.1990 H       
  36 H36            0.4759    -2.1439    -1.4379 H       
  37 H37           -2.8881    -4.8018     1.0031 H       
  38 H38            3.4983     3.0448     0.4583 H       
  39 H39            4.3891     1.5038     0.4554 H       
  40 H40            4.1759     1.3853    -2.0122 H       
  41 H41            3.2852     2.9263    -2.0093 H       
  42 H42            6.5422     1.3143    -1.5222 H       
  43 H43            8.6861     2.5100    -1.5490 H       
  44 H44            4.4102     4.9971    -1.5216 H       
  45 H45           -2.1082    -7.9864     0.1247 H       
  46 H46            9.8046     4.6610    -1.5694 H       
  47 H47            7.8362     8.3274    -1.5648 H       
  48 H48            5.6689     7.1940    -1.5401 H       
@<TRIPOS>BOND
   1    1    2 ar
   2    1    6 ar
   3    2    3 ar
   4    2    7 1
   5    3    4 ar
   6    4    5 ar
   7    4   32 1
   8    5    6 ar
   9    5   14 1
  10    6   33 1
  11    7    8 1
  12    7   34 1
  13    8    9 ar
  14    8   10 ar
  15    9   13 ar
  16    9   35 1
  17   10   11 ar
  18   10   36 1
  19   11   12 ar
  20   11   24 1
  21   12   13 ar
  22   12   22 1
  23   13   37 1
  24   14   15 1
  25   14   38 1
  26   14   39 1
  27   15   16 1
  28   15   40 1
  29   15   41 1
  30   16   17 ar
  31   16   21 ar
  32   17   18 ar
  33   17   42 1
  34   18   19 ar
  35   18   43 1
  36   19   20 ar
  37   19   27 1
  38   20   21 ar
  39   20   30 1
  40   21   44 1
  41   22   23 1
  42   23   25 1
  43   23   26 1
  44   23   45 1
  45   27   28 am
  46   27   46 1
  47   28   29 1
  48   28   31 2
  49   29   30 2
  50   29   47 1
  51   30   48 1

#	End of record

