#	Name: ASD13790011
#	Creating user name:	WinNT
#	Creation time:	15. 06. 2019 21:30

#	Modifying user name:	WinNT
#	Modification time:	15. 06. 2019 21:30

#	Program:	/corina/corina34_cracker 3.40 0067  02.08.2006

@<TRIPOS>MOLECULE
ASD13790011
  33   36    0    0    0
SMALL
NO_CHARGES


@<TRIPOS>ATOM
   1 C1            -0.0178     1.4631     0.0101 C.2     
   2 C2             0.0021    -0.0041     0.0020 C.2     
   3 N3             1.2693    -0.4553    -0.0125 N.am    
   4 C4             2.1708     0.7042    -0.0149 C.3     
   5 C5             1.2854     1.9201     0.0001 C.2     
   6 N6            -0.0820     3.6342     0.0226 N.2     
   7 N7            -0.8110     2.5754     0.0283 N.pl3   
   8 C8             1.1997     3.3183     0.0084 C.2     
   9 C9             2.3355     4.2658     0.0034 C.2     
  10 O10            3.5201     4.0824     0.6170 O.3     
  11 C11            4.3069     5.1488     0.3970 C.2     
  12 C12            3.6326     6.0323    -0.3638 C.2     
  13 C13            2.3667     5.4697    -0.6260 C.2     
  14 C14            3.0450     0.6840     1.2124 C.ar    
  15 C15            4.3700     1.0687     1.1237 C.ar    
  16 C16            5.1719     1.0501     2.2493 C.ar    
  17 C17            4.6488     0.6473     3.4641 C.ar    
  18 C18            3.3240     0.2635     3.5530 C.ar    
  19 C19            2.5208     0.2862     2.4279 C.ar    
  20 N20            6.5907     1.4611     2.1542 N.pl3   
  21 O21           -0.9870    -0.7119     0.0077 O.2     
  22 O22            7.0515     1.8156     1.0839 O.2     
  23 O23            7.2973     1.4447     3.1461 O.2     
  24 H24            1.5410    -1.3864    -0.0198 H       
  25 H25            2.7860     0.6992    -0.9146 H       
  26 H26           -1.7809     2.5674     0.0380 H       
  27 H27            5.3130     5.2764     0.7684 H       
  28 H28            3.9945     6.9890    -0.7106 H       
  29 H29            1.5742     5.9112    -1.2120 H       
  30 H30            4.7786     1.3834     0.1748 H       
  31 H31            5.2756     0.6321     4.3435 H       
  32 H32            2.9156    -0.0516     4.5018 H       
  33 H33            1.4846    -0.0101     2.4980 H       
@<TRIPOS>BOND
   1    1    2 1
   2    1    5 2
   3    1    7 1
   4    2    3 am
   5    2   21 2
   6    3    4 1
   7    3   24 1
   8    4    5 1
   9    4   14 1
  10    4   25 1
  11    5    8 1
  12    6    7 1
  13    6    8 2
  14    7   26 1
  15    8    9 1
  16    9   10 1
  17    9   13 2
  18   10   11 1
  19   11   12 2
  20   11   27 1
  21   12   13 1
  22   12   28 1
  23   13   29 1
  24   14   15 ar
  25   14   19 ar
  26   15   16 ar
  27   15   30 1
  28   16   17 ar
  29   16   20 1
  30   17   18 ar
  31   17   31 1
  32   18   19 ar
  33   18   32 1
  34   19   33 1
  35   20   22 2
  36   20   23 2

#	End of record

