#	Name: ASD10950055
#	Creating user name:	WinNT
#	Creation time:	15. 06. 2019 21:28

#	Modifying user name:	WinNT
#	Modification time:	15. 06. 2019 21:28

#	Program:	/corina/corina34_cracker 3.40 0067  02.08.2006

@<TRIPOS>MOLECULE
ASD10950055
  59   62    0    0    0
SMALL
NO_CHARGES


@<TRIPOS>ATOM
   1 C1            -0.0187     1.5258     0.0104 C.3     
   2 C2             0.0021    -0.0041     0.0020 C.3     
   3 O3             0.7043    -0.4851     1.1784 O.3     
   4 C4             0.8122    -1.8200     1.3230 C.2     
   5 O5             0.3326    -2.5620     0.4893 O.2     
   6 C6             1.5136    -2.3817     2.4956 C.ar    
   7 C7             1.6271    -3.7649     2.6486 C.ar    
   8 C8             2.2833    -4.2826     3.7460 C.ar    
   9 C9             2.8284    -3.4346     4.6938 C.ar    
  10 C10            2.7195    -2.0629     4.5483 C.ar    
  11 C11            2.0709    -1.5316     3.4529 C.ar    
  12 C12            3.5434    -4.0075     5.8903 C.3     
  13 N13            4.7376    -3.2104     6.1935 N.am    
  14 C14            5.8802    -2.9970     5.3018 C.3     
  15 C15            5.6346    -1.7518     4.4473 C.3     
  16 C16            6.8099    -1.5322     3.5299 C.2     
  17 C17            6.9586    -2.0258     2.2905 C.2     
  18 C18            5.9584    -2.9034     1.5830 C.3     
  19 N19            8.1525    -1.6135     1.7644 N.pl3   
  20 C20            8.8180    -0.8245     2.6756 C.ar    
  21 C21            8.0039    -0.7344     3.8192 C.ar    
  22 C22            8.4288     0.0126     4.9197 C.ar    
  23 C23            9.6350     0.6531     4.8798 C.ar    
  24 C24           10.4419     0.5677     3.7533 C.ar    
  25 C25           10.0407    -0.1610     2.6553 C.ar    
  26 C26            4.5983    -2.7098     7.4344 C.2     
  27 O27            5.4103    -2.0019     7.9959 O.2     
  28 C28            3.3094    -3.1484     8.0138 C.2     
  29 C29            2.6590    -3.9250     7.1124 C.2     
  30 C30            1.3958    -4.5394     7.2834 C.2     
  31 O31            0.7850    -4.3925     8.3219 O.2     
  32 C32            0.8088    -5.3762     6.1760 C.3     
  33 O33            2.8532    -2.8261     9.2446 O.3     
  34 H34            1.0039     1.9031     0.0027 H       
  35 H35           -0.5459     1.8868    -0.8726 H       
  36 H36           -0.5289     1.8773     0.9072 H       
  37 H37           -1.0205    -0.3814     0.0098 H       
  38 H38            0.5123    -0.3556    -0.8948 H       
  39 H39            1.2019    -4.4279     1.9098 H       
  40 H40            2.3716    -5.3523     3.8658 H       
  41 H41            3.1468    -1.4066     5.2920 H       
  42 H42            1.9866    -0.4608     3.3405 H       
  43 H43            3.8232    -5.0434     5.6984 H       
  44 H44            6.7835    -2.8577     5.8956 H       
  45 H45            6.0019    -3.8645     4.6531 H       
  46 H46            4.7312    -1.8910     3.8534 H       
  47 H47            5.5129    -0.8843     5.0959 H       
  48 H48            5.2590    -2.2806     1.0252 H       
  49 H49            6.4808    -3.5685     0.8954 H       
  50 H50            5.4117    -3.4958     2.3167 H       
  51 H51            8.4812    -1.8431     0.8811 H       
  52 H52            7.8061     0.0841     5.7992 H       
  53 H53            9.9632     1.2307     5.7313 H       
  54 H54           11.3926     1.0799     3.7366 H       
  55 H55           10.6755    -0.2214     1.7837 H       
  56 H56            1.4955    -5.3921     5.3296 H       
  57 H57            0.6500    -6.3933     6.5342 H       
  58 H58           -0.1436    -4.9484     5.8631 H       
  59 H59            3.4525    -2.2607     9.7507 H       
@<TRIPOS>BOND
   1    1    2 1
   2    1   34 1
   3    1   35 1
   4    1   36 1
   5    2    3 1
   6    2   37 1
   7    2   38 1
   8    3    4 1
   9    4    5 2
  10    4    6 1
  11    6    7 ar
  12    6   11 ar
  13    7    8 ar
  14    7   39 1
  15    8    9 ar
  16    8   40 1
  17    9   10 ar
  18    9   12 1
  19   10   11 ar
  20   10   41 1
  21   11   42 1
  22   12   13 1
  23   12   29 1
  24   12   43 1
  25   13   14 1
  26   13   26 am
  27   14   15 1
  28   14   44 1
  29   14   45 1
  30   15   16 1
  31   15   46 1
  32   15   47 1
  33   16   17 2
  34   16   21 1
  35   17   18 1
  36   17   19 1
  37   18   48 1
  38   18   49 1
  39   18   50 1
  40   19   20 1
  41   19   51 1
  42   20   21 ar
  43   20   25 ar
  44   21   22 ar
  45   22   23 ar
  46   22   52 1
  47   23   24 ar
  48   23   53 1
  49   24   25 ar
  50   24   54 1
  51   25   55 1
  52   26   27 2
  53   26   28 1
  54   28   29 2
  55   28   33 1
  56   29   30 1
  57   30   31 2
  58   30   32 1
  59   32   56 1
  60   32   57 1
  61   32   58 1
  62   33   59 1

#	End of record

