#	Name: ASD11000022
#	Creating user name:	WinNT
#	Creation time:	15. 06. 2019 21:28

#	Modifying user name:	WinNT
#	Modification time:	15. 06. 2019 21:28

#	Program:	/corina/corina34_cracker 3.40 0067  02.08.2006

@<TRIPOS>MOLECULE
ASD11000022
  62   65    0    0    0
SMALL
NO_CHARGES


@<TRIPOS>ATOM
   1 C1             0.9979     1.8392     1.3014 C.ar    
   2 C2             0.7309     0.4976     1.1096 C.ar    
   3 C3             1.7386    -0.3565     0.6869 C.ar    
   4 C4             3.0145     0.1364     0.4572 C.ar    
   5 C5             3.2815     1.4780     0.6489 C.ar    
   6 C6             2.2737     2.3322     1.0712 C.ar    
   7 O7             2.5364     3.6531     1.2595 O.3     
   8 C8             1.4514     4.4747     1.6951 C.3     
   9 O9             1.4757    -1.6773     0.4981 O.3     
  10 C10            2.5606    -2.4988     0.0621 C.3     
  11 C11            2.0769    -3.9419    -0.0940 C.3     
  12 N12            1.5767    -4.4311     1.1951 N.am    
  13 C13            0.9725    -3.9928    -1.1201 C.ar    
  14 C14           -0.2149    -4.6526    -0.8921 C.ar    
  15 C15            1.1850    -3.3455    -2.3299 C.ar    
  16 C16           -1.1888    -4.6773    -1.8833 C.ar    
  17 C17           -0.9804    -4.0378    -3.0912 C.ar    
  18 C18            0.2156    -3.3628    -3.3160 C.ar    
  19 C19            0.7555    -5.6530     1.1816 C.3     
  20 C20           -0.5257    -5.3494     0.4067 C.3     
  21 C21            1.8578    -3.7881     2.3458 C.2     
  22 O22            2.6244    -2.8448     2.3432 O.2     
  23 C23            1.2336    -4.2300     3.6111 C.ar    
  24 C24            2.0234    -4.4654     4.7373 C.ar    
  25 C25           -0.1489    -4.4082     3.6860 C.ar    
  26 C26           -0.7249    -4.8208     4.8695 C.ar    
  27 C27            0.0646    -5.0580     5.9810 C.ar    
  28 C28            1.4346    -4.8778     5.9151 C.ar    
  29 O29            0.4301    -2.7255    -4.4981 O.3     
  30 C30            1.6818    -2.0543    -4.6554 C.3     
  31 O31           -1.9397    -4.0679    -4.0547 O.3     
  32 C32           -3.1412    -4.7799    -3.7520 C.3     
  33 C33            3.5161    -4.2701     4.6672 C.3     
  34 H34            0.2121     2.5051     1.6262 H       
  35 H35           -0.2625     0.1136     1.2892 H       
  36 H36            3.7993    -0.5288     0.1287 H       
  37 H37            4.2751     1.8618     0.4704 H       
  38 H38            1.0815     4.1101     2.6535 H       
  39 H39            1.7959     5.5028     1.8060 H       
  40 H40            0.6491     4.4378     0.9582 H       
  41 H41            2.9304    -2.1339    -0.8962 H       
  42 H42            3.3631    -2.4623     0.7989 H       
  43 H43            2.9058    -4.5687    -0.4229 H       
  44 H44            2.1149    -2.8240    -2.5022 H       
  45 H45           -2.1168    -5.2013    -1.7085 H       
  46 H46            1.3013    -6.4587     0.6905 H       
  47 H47            0.5088    -5.9429     2.2029 H       
  48 H48           -1.1676    -4.7095     1.0121 H       
  49 H49           -1.0473    -6.2831     0.1966 H       
  50 H50           -0.7662    -4.2231     2.8193 H       
  51 H51           -1.7944    -4.9587     4.9289 H       
  52 H52           -0.3913    -5.3809     6.9052 H       
  53 H53            2.0452    -5.0645     6.7861 H       
  54 H54            1.7233    -1.5890    -5.6402 H       
  55 H55            1.7821    -1.2878    -3.8869 H       
  56 H56            2.4947    -2.7740    -4.5590 H       
  57 H57           -2.9028    -5.8228    -3.5434 H       
  58 H58           -3.6173    -4.3343    -2.8786 H       
  59 H59           -3.8200    -4.7255    -4.6031 H       
  60 H60            3.7675    -3.2658     5.0081 H       
  61 H61            4.0089    -5.0042     5.3045 H       
  62 H62            3.8514    -4.3989     3.6381 H       
@<TRIPOS>BOND
   1    1    2 ar
   2    1    6 ar
   3    1   34 1
   4    2    3 ar
   5    2   35 1
   6    3    4 ar
   7    3    9 1
   8    4    5 ar
   9    4   36 1
  10    5    6 ar
  11    5   37 1
  12    6    7 1
  13    7    8 1
  14    8   38 1
  15    8   39 1
  16    8   40 1
  17    9   10 1
  18   10   11 1
  19   10   41 1
  20   10   42 1
  21   11   12 1
  22   11   13 1
  23   11   43 1
  24   12   19 1
  25   12   21 am
  26   13   14 ar
  27   13   15 ar
  28   14   16 ar
  29   14   20 1
  30   15   18 ar
  31   15   44 1
  32   16   17 ar
  33   16   45 1
  34   17   18 ar
  35   17   31 1
  36   18   29 1
  37   19   20 1
  38   19   46 1
  39   19   47 1
  40   20   48 1
  41   20   49 1
  42   21   22 2
  43   21   23 1
  44   23   24 ar
  45   23   25 ar
  46   24   33 1
  47   24   28 ar
  48   25   26 ar
  49   25   50 1
  50   26   27 ar
  51   26   51 1
  52   27   28 ar
  53   27   52 1
  54   28   53 1
  55   29   30 1
  56   30   54 1
  57   30   55 1
  58   30   56 1
  59   31   32 1
  60   32   57 1
  61   32   58 1
  62   32   59 1
  63   33   60 1
  64   33   61 1
  65   33   62 1

#	End of record

