#	Name: ASD10420002
#	Creating user name:	WinNT
#	Creation time:	15. 06. 2019 21:27

#	Modifying user name:	WinNT
#	Modification time:	15. 06. 2019 21:27

#	Program:	/corina/corina34_cracker 3.40 0067  02.08.2006

@<TRIPOS>MOLECULE
ASD10420002
  58   62    0    0    0
SMALL
NO_CHARGES


@<TRIPOS>ATOM
   1 N1            -0.1237     0.2617    -0.6008 N.pl3   
   2 C2            -0.5325    -0.9686    -1.0402 C.2     
   3 C3            -1.9381    -0.9683    -1.0935 C.2     
   4 C4            -2.3678     0.2907    -0.6761 C.2     
   5 C5            -1.2410     1.0414    -0.3806 C.2     
   6 C6             1.2067     0.5304    -0.4577 C.2     
   7 C7             2.1357    -0.4072    -0.7458 C.2     
   8 C8             1.7439    -1.6757    -1.1982 C.2     
   9 C9             0.4175    -1.9564    -1.3436 C.2     
  10 C10           -1.2370     2.3815     0.0792 C.2     
  11 N11           -1.2085     3.3976    -0.8058 N.am    
  12 C12           -1.3187     4.7936    -0.3563 C.3     
  13 C13           -0.1657     5.5951    -0.9697 C.3     
  14 N14           -0.1658     5.4100    -2.4270 N.3     
  15 C15            0.0769     4.0063    -2.7859 C.3     
  16 C16           -1.0600     3.1400    -2.2463 C.3     
  17 O17           -1.2595     2.6154     1.2744 O.2     
  18 C18           -3.7982     0.7533    -0.5711 C.3     
  19 C19           -4.3156     0.4748     0.8166 C.ar    
  20 C20           -4.4937     1.5151     1.7092 C.ar    
  21 C21           -4.6172    -0.8201     1.1946 C.ar    
  22 C22           -5.0920    -1.0771     2.4675 C.ar    
  23 C23           -5.2660    -0.0394     3.3631 C.ar    
  24 C24           -4.9691     1.2589     2.9839 C.ar    
  25 F25           -5.1384     2.2743     3.8589 F       
  26 C26           -4.1702     2.9275     1.2950 C.3     
  27 C27           -2.8010    -2.0957    -1.5147 C.ar    
  28 C28           -2.8349    -3.2705    -0.7632 C.ar    
  29 C29           -3.6413    -4.3172    -1.1606 C.ar    
  30 C30           -4.4150    -4.2034    -2.3019 C.ar    
  31 C31           -4.3854    -3.0410    -3.0517 C.ar    
  32 C32           -3.5878    -1.9850    -2.6613 C.ar    
  33 H33            1.5205     1.5038    -0.1105 H       
  34 H34            3.1847    -0.1789    -0.6277 H       
  35 H35            2.4871    -2.4245    -1.4292 H       
  36 H36            0.1009    -2.9288    -1.6911 H       
  37 H37           -2.2704     5.2104    -0.6859 H       
  38 H38           -1.2551     4.8343     0.7311 H       
  39 H39           -0.2936     6.6524    -0.7374 H       
  40 H40            0.7807     5.2438    -0.5585 H       
  41 H41           -1.0268     5.7435    -2.8338 H       
  42 H42            0.1250     3.9113    -3.8707 H       
  43 H43            1.0199     3.6771    -2.3494 H       
  44 H44           -0.8278     2.0877    -2.4097 H       
  45 H45           -1.9890     3.3963    -2.7556 H       
  46 H46           -3.8494     1.8238    -0.7699 H       
  47 H47           -4.4073     0.2188    -1.3000 H       
  48 H48           -4.4822    -1.6317     0.4949 H       
  49 H49           -5.3273    -2.0893     2.7616 H       
  50 H50           -5.6375    -0.2403     4.3571 H       
  51 H51           -5.0317     3.3644     0.7900 H       
  52 H52           -3.9282     3.5187     2.1781 H       
  53 H53           -3.3166     2.9208     0.6172 H       
  54 H54           -2.2308    -3.3608     0.1275 H       
  55 H55           -3.6684    -5.2272    -0.5797 H       
  56 H56           -5.0444    -5.0256    -2.6091 H       
  57 H57           -4.9914    -2.9584    -3.9418 H       
  58 H58           -3.5659    -1.0780    -3.2472 H       
@<TRIPOS>BOND
   1    1    2 1
   2    1    6 1
   3    1    5 1
   4    2    3 2
   5    2    9 1
   6    3    4 1
   7    3   27 1
   8    4    5 2
   9    4   18 1
  10    5   10 1
  11    6    7 2
  12    6   33 1
  13    7    8 1
  14    7   34 1
  15    8    9 2
  16    8   35 1
  17    9   36 1
  18   10   11 am
  19   10   17 2
  20   11   12 1
  21   11   16 1
  22   12   13 1
  23   12   37 1
  24   12   38 1
  25   13   14 1
  26   13   39 1
  27   13   40 1
  28   14   15 1
  29   14   41 1
  30   15   16 1
  31   15   42 1
  32   15   43 1
  33   16   44 1
  34   16   45 1
  35   18   19 1
  36   18   46 1
  37   18   47 1
  38   19   20 ar
  39   19   21 ar
  40   20   26 1
  41   20   24 ar
  42   21   22 ar
  43   21   48 1
  44   22   23 ar
  45   22   49 1
  46   23   24 ar
  47   23   50 1
  48   24   25 1
  49   26   51 1
  50   26   52 1
  51   26   53 1
  52   27   28 ar
  53   27   32 ar
  54   28   29 ar
  55   28   54 1
  56   29   30 ar
  57   29   55 1
  58   30   31 ar
  59   30   56 1
  60   31   32 ar
  61   31   57 1
  62   32   58 1

#	End of record

