#	Name: ASD13490059
#	Creating user name:	WinNT
#	Creation time:	15. 06. 2019 21:30

#	Modifying user name:	WinNT
#	Modification time:	15. 06. 2019 21:30

#	Program:	/corina/corina34_cracker 3.40 0067  02.08.2006

@<TRIPOS>MOLECULE
ASD13490059
  55   59    0    0    0
SMALL
NO_CHARGES


@<TRIPOS>ATOM
   1 C1            -0.0155     1.4973     0.0129 C.2     
   2 C2             0.0070    -0.0057     0.0047 C.3     
   3 C3             0.2476    -0.5314    -1.4101 C.3     
   4 N4             1.1381     2.1894     0.0030 N.am    
   5 C5             1.3493     0.2929    -2.0817 C.3     
   6 C6             2.3441     1.4862    -0.1194 C.ar    
   7 C7             2.4816     0.5350    -1.1200 C.ar    
   8 C8             3.3934     1.7349     0.7532 C.ar    
   9 C9             3.6606    -0.1785    -1.2349 C.ar    
  10 C10            4.7055     0.0679    -0.3588 C.ar    
  11 C11            4.5726     1.0244     0.6302 C.ar    
  12 O12           -1.0753     2.0869     0.0235 O.2     
  13 C13            1.1336     3.6499     0.1175 C.3     
  14 C14            1.1822     4.2711    -1.2798 C.3     
  15 N15           -1.2774    -0.5108     0.4960 N.pl3   
  16 N16           -1.4471    -1.5724     1.2026 N.2     
  17 N17           -2.6936    -1.7400     1.4712 N.2     
  18 C18           -3.3955    -0.7368     0.9145 C.2     
  19 C19           -2.4844     0.0634     0.2880 C.2     
  20 C20           -4.8652    -0.5371     0.9740 C.ar    
  21 C21           -5.6672    -1.4474     1.6641 C.ar    
  22 C22           -7.0342    -1.2583     1.7172 C.ar    
  23 C23           -7.6096    -0.1641     1.0844 C.ar    
  24 C24           -6.8127     0.7425     0.3974 C.ar    
  25 C25           -5.4460     0.5622     0.3461 C.ar    
  26 N26           -8.9977     0.0255     1.1388 N.pl3   
  27 C27           -9.7031     1.0522     0.5661 C.2     
  28 C28          -11.0005     0.8471     0.8630 C.2     
  29 N29          -11.0905    -0.2722     1.5964 N.2     
  30 C30           -9.8983    -0.7765     1.7639 C.2     
  31 C31          -12.1522     1.7241     0.4441 C.3     
  32 F32            3.7934    -1.1148    -2.1998 F       
  33 F33            0.1271     3.7701    -2.0498 F       
  34 F34            1.0648     5.6614    -1.1764 F       
  35 F35            2.3990     3.9500    -1.8909 F       
  36 F36           -5.1071    -2.5122     2.2788 F       
  37 H37            0.8048    -0.3569     0.6592 H       
  38 H38            0.5539    -1.5763    -1.3621 H       
  39 H39           -0.6720    -0.4489    -1.9894 H       
  40 H40            1.7239    -0.2465    -2.9516 H       
  41 H41            0.9384     1.2499    -2.4034 H       
  42 H42            3.2893     2.4817     1.5264 H       
  43 H43            5.6264    -0.4890    -0.4489 H       
  44 H44            5.3913     1.2168     1.3078 H       
  45 H45            0.2252     3.9716     0.6268 H       
  46 H46            2.0041     3.9722     0.6889 H       
  47 H47           -2.6863     0.9696    -0.2638 H       
  48 H48           -7.6561    -1.9618     2.2508 H       
  49 H49           -7.2632     1.5924    -0.0937 H       
  50 H50           -4.8272     1.2707    -0.1845 H       
  51 H51           -9.2963     1.8688    -0.0119 H       
  52 H52           -9.6664    -1.6788     2.3103 H       
  53 H53          -12.5389     1.3820    -0.5159 H       
  54 H54          -12.9415     1.6701     1.1939 H       
  55 H55          -11.8091     2.7546     0.3511 H       
@<TRIPOS>BOND
   1    1    2 1
   2    1    4 am
   3    1   12 2
   4    2    3 1
   5    2   15 1
   6    2   37 1
   7    3    5 1
   8    3   38 1
   9    3   39 1
  10    4    6 1
  11    4   13 1
  12    5    7 1
  13    5   40 1
  14    5   41 1
  15    6    7 ar
  16    6    8 ar
  17    7    9 ar
  18    8   11 ar
  19    8   42 1
  20    9   10 ar
  21    9   32 1
  22   10   11 ar
  23   10   43 1
  24   11   44 1
  25   13   14 1
  26   13   45 1
  27   13   46 1
  28   14   33 1
  29   14   34 1
  30   14   35 1
  31   15   16 1
  32   15   19 1
  33   16   17 2
  34   17   18 1
  35   18   19 2
  36   18   20 1
  37   19   47 1
  38   20   21 ar
  39   20   25 ar
  40   21   22 ar
  41   21   36 1
  42   22   23 ar
  43   22   48 1
  44   23   24 ar
  45   23   26 1
  46   24   25 ar
  47   24   49 1
  48   25   50 1
  49   26   27 1
  50   26   30 1
  51   27   28 2
  52   27   51 1
  53   28   29 1
  54   28   31 1
  55   29   30 2
  56   30   52 1
  57   31   53 1
  58   31   54 1
  59   31   55 1

#	End of record

