#	Name: ASD10950003
#	Creating user name:	WinNT
#	Creation time:	15. 06. 2019 21:28

#	Modifying user name:	WinNT
#	Modification time:	15. 06. 2019 21:28

#	Program:	/corina/corina34_cracker 3.40 0067  02.08.2006

@<TRIPOS>MOLECULE
ASD10950003
  59   62    0    0    0
SMALL
NO_CHARGES


@<TRIPOS>ATOM
   1 C1            -1.3483     0.8811     1.4555 C.3     
   2 O2            -1.1190    -0.5286     1.1936 O.3     
   3 C3            -0.3510    -0.8361     0.1304 C.2     
   4 O4             0.1144     0.0491    -0.5590 O.2     
   5 C5            -0.0749    -2.2499    -0.1970 C.ar    
   6 C6             0.7207    -2.5722    -1.2982 C.ar    
   7 C7             0.9746    -3.8945    -1.5983 C.ar    
   8 C8             0.4428    -4.9003    -0.8109 C.ar    
   9 C9            -0.3465    -4.5880     0.2818 C.ar    
  10 C10           -0.6036    -3.2698     0.5967 C.ar    
  11 C11            0.7240    -6.3426    -1.1453 C.3     
  12 N12            1.1557    -7.0642     0.0574 N.am    
  13 C13            2.3404    -6.7622     0.8646 C.3     
  14 C14            1.9683    -5.7641     1.9629 C.3     
  15 C15            3.1869    -5.4534     2.7932 C.2     
  16 C16            3.5407    -6.0455     3.9448 C.2     
  17 N17            4.7073    -5.5020     4.4096 N.pl3   
  18 C18            5.1436    -4.5220     3.5464 C.ar    
  19 C19            4.2135    -4.4523     2.4934 C.ar    
  20 C20            4.4017    -3.5354     1.4573 C.ar    
  21 C21            5.4899    -2.7094     1.4718 C.ar    
  22 C22            6.4109    -2.7746     2.5086 C.ar    
  23 C23            6.2465    -3.6740     3.5389 C.ar    
  24 C24            0.2717    -8.0516     0.2885 C.2     
  25 O25            0.3328    -8.8405     1.2103 O.2     
  26 C26           -0.7863    -8.0341    -0.7456 C.2     
  27 C27           -0.5406    -7.0229    -1.6150 C.2     
  28 C28           -1.3183    -6.6725    -2.7440 C.2     
  29 O29           -0.9293    -5.8109    -3.5052 O.2     
  30 C30           -2.6297    -7.3690    -3.0012 C.3     
  31 C31           -3.5417    -6.4532    -3.8200 C.3     
  32 C32           -2.3762    -8.6628    -3.7777 C.3     
  33 O33           -1.8311    -8.8891    -0.8128 O.3     
  34 H34           -0.3940     1.3781     1.6299 H       
  35 H35           -1.8424     1.3346     0.5962 H       
  36 H36           -1.9805     0.9888     2.3368 H       
  37 H37            1.1362    -1.7881    -1.9139 H       
  38 H38            1.5895    -4.1452    -2.4500 H       
  39 H39           -0.7588    -5.3779     0.8920 H       
  40 H40           -1.2198    -3.0273     1.4499 H       
  41 H41            1.4925    -6.4051    -1.9158 H       
  42 H42            2.7141    -7.6798     1.3189 H       
  43 H43            3.1132    -6.3308     0.2283 H       
  44 H44            1.5946    -4.8465     1.5085 H       
  45 H45            1.1954    -6.1954     2.5991 H       
  46 H46            2.9864    -6.8337     4.4325 H       
  47 H47            5.1593    -5.7673     5.2257 H       
  48 H48            3.6897    -3.4795     0.6471 H       
  49 H49            5.6349    -2.0004     0.6702 H       
  50 H50            7.2663    -2.1153     2.5059 H       
  51 H51            6.9685    -3.7170     4.3409 H       
  52 H52           -3.1091    -7.6037    -2.0508 H       
  53 H53           -3.0623    -6.2186    -4.7705 H       
  54 H54           -4.4901    -6.9570    -4.0061 H       
  55 H55           -3.7222    -5.5315    -3.2669 H       
  56 H56           -1.8560    -8.4326    -4.7074 H       
  57 H57           -1.7640    -9.3340    -3.1754 H       
  58 H58           -3.3281    -9.1435    -4.0033 H       
  59 H59           -1.8459    -9.5483    -0.1054 H       
@<TRIPOS>BOND
   1    1    2 1
   2    1   34 1
   3    1   35 1
   4    1   36 1
   5    2    3 1
   6    3    4 2
   7    3    5 1
   8    5    6 ar
   9    5   10 ar
  10    6    7 ar
  11    6   37 1
  12    7    8 ar
  13    7   38 1
  14    8    9 ar
  15    8   11 1
  16    9   10 ar
  17    9   39 1
  18   10   40 1
  19   11   12 1
  20   11   27 1
  21   11   41 1
  22   12   13 1
  23   12   24 am
  24   13   14 1
  25   13   42 1
  26   13   43 1
  27   14   15 1
  28   14   44 1
  29   14   45 1
  30   15   16 2
  31   15   19 1
  32   16   17 1
  33   16   46 1
  34   17   18 1
  35   17   47 1
  36   18   19 ar
  37   18   23 ar
  38   19   20 ar
  39   20   21 ar
  40   20   48 1
  41   21   22 ar
  42   21   49 1
  43   22   23 ar
  44   22   50 1
  45   23   51 1
  46   24   25 2
  47   24   26 1
  48   26   27 2
  49   26   33 1
  50   27   28 1
  51   28   29 2
  52   28   30 1
  53   30   31 1
  54   30   32 1
  55   30   52 1
  56   31   53 1
  57   31   54 1
  58   31   55 1
  59   32   56 1
  60   32   57 1
  61   32   58 1
  62   33   59 1

#	End of record

