#	Name: ASD11000270
#	Creating user name:	WinNT
#	Creation time:	15. 06. 2019 21:29

#	Modifying user name:	WinNT
#	Modification time:	15. 06. 2019 21:29

#	Program:	/corina/corina34_cracker 3.40 0067  02.08.2006

@<TRIPOS>MOLECULE
ASD11000270
  49   51    0    0    0
SMALL
NO_CHARGES


@<TRIPOS>ATOM
   1 C1             0.0044     1.4958     0.0689 C.3     
   2 C2             0.0383    -0.0335     0.1165 C.3     
   3 C3             0.7809    -0.5612    -1.1142 C.3     
   4 C4             2.1913     0.0341    -1.1438 C.3     
   5 C5             2.0950     1.5614    -1.1549 C.3     
   6 N6             1.3772     2.0165     0.0427 N.3     
   7 C7             0.8698    -2.0639    -1.0428 C.ar    
   8 C8             0.9030    -2.8104    -2.2058 C.ar    
   9 C9             0.9846    -4.1888    -2.1402 C.ar    
  10 C10            1.0335    -4.8206    -0.9117 C.ar    
  11 C11            1.0012    -4.0740     0.2513 C.ar    
  12 C12            0.9240    -2.6954     0.1857 C.ar    
  13 C13            1.3860     3.4825     0.1363 C.3     
  14 C14            0.5922     3.9196     1.3691 C.3     
  15 C15            2.8288     3.9771     0.2571 C.3     
  16 C16            3.4789     3.3415     1.4589 C.ar    
  17 C17            3.9227     3.3329     3.8119 C.ar    
  18 C18            3.3279     3.9136     2.7086 C.ar    
  19 C19            4.2206     2.1841     1.3110 C.ar    
  20 C20            4.8171     1.5992     2.4112 C.ar    
  21 C21            4.6718     2.1744     3.6653 C.ar    
  22 O22            0.0763    -0.1790    -2.2973 O.3     
  23 O23            5.2580     1.6012     4.7491 O.3     
  24 O24            2.8342     5.3981     0.4084 O.3     
  25 H25           -0.5240     1.8196    -0.8278 H       
  26 H26           -0.5112     1.8753     0.9511 H       
  27 H27            0.5546    -0.3581     1.0199 H       
  28 H28           -0.9808    -0.4201     0.1202 H       
  29 H29            2.7414    -0.2895    -0.2602 H       
  30 H30            2.7104    -0.3043    -2.0406 H       
  31 H31            3.0978     1.9885    -1.1615 H       
  32 H32            1.5567     1.8849    -2.0458 H       
  33 H33            0.8648    -2.3167    -3.1656 H       
  34 H34            1.0098    -4.7720    -3.0488 H       
  35 H35            1.0965    -5.8975    -0.8604 H       
  36 H36            1.0391    -4.5677     1.2111 H       
  37 H37            0.9025    -2.1119     1.0942 H       
  38 H38            0.9303     3.9065    -0.7584 H       
  39 H39            1.0480     3.4956     2.2639 H       
  40 H40            0.5988     5.0073     1.4386 H       
  41 H41           -0.4356     3.5672     1.2831 H       
  42 H42            3.3825     3.7054    -0.6417 H       
  43 H43            3.8048     3.7804     4.7877 H       
  44 H44            2.7446     4.8155     2.8222 H       
  45 H45            4.3334     1.7367     0.3345 H       
  46 H46            5.3958     0.6947     2.2953 H       
  47 H47            0.4914    -0.4807    -3.1170 H       
  48 H48            4.7024     0.9493     5.1979 H       
  49 H49            2.3585     5.7122     1.1896 H       
@<TRIPOS>BOND
   1    1    2 1
   2    1    6 1
   3    1   25 1
   4    1   26 1
   5    2    3 1
   6    2   27 1
   7    2   28 1
   8    3    4 1
   9    3    7 1
  10    3   22 1
  11    4    5 1
  12    4   29 1
  13    4   30 1
  14    5    6 1
  15    5   31 1
  16    5   32 1
  17    6   13 1
  18    7    8 ar
  19    7   12 ar
  20    8    9 ar
  21    8   33 1
  22    9   10 ar
  23    9   34 1
  24   10   11 ar
  25   10   35 1
  26   11   12 ar
  27   11   36 1
  28   12   37 1
  29   13   14 1
  30   13   15 1
  31   13   38 1
  32   14   39 1
  33   14   40 1
  34   14   41 1
  35   15   16 1
  36   15   24 1
  37   15   42 1
  38   16   19 ar
  39   16   18 ar
  40   17   18 ar
  41   17   21 ar
  42   17   43 1
  43   18   44 1
  44   19   20 ar
  45   19   45 1
  46   20   21 ar
  47   20   46 1
  48   21   23 1
  49   22   47 1
  50   23   48 1
  51   24   49 1

#	End of record

