#	Name: ASD10410210
#	Creating user name:	WinNT
#	Creation time:	15. 06. 2019 21:27

#	Modifying user name:	WinNT
#	Modification time:	15. 06. 2019 21:27

#	Program:	/corina/corina34_cracker 3.40 0067  02.08.2006

@<TRIPOS>MOLECULE
ASD10410210
  56   60    0    0    0
SMALL
NO_CHARGES


@<TRIPOS>ATOM
   1 C1            -0.0183     1.3926    -0.0799 C.ar    
   2 C2            -0.0058     0.0095     0.0248 C.ar    
   3 C3             1.2007    -0.6691     0.1144 C.ar    
   4 C4             2.3904     0.0318     0.0998 C.ar    
   5 C5             2.3788     1.4166    -0.0050 C.ar    
   6 C6             1.1705     2.0952    -0.0951 C.ar    
   7 O7            -1.1770    -0.6815     0.0400 O.3     
   8 N8             3.5843     2.1280    -0.0193 N.pl3   
   9 C9             3.6715     3.3385    -0.7063 C.2     
  10 N10            4.7101     4.1389    -0.7071 N.2     
  11 N11            2.7107     3.8654    -1.4744 N.2     
  12 C12            3.1200     5.0123    -1.9729 C.2     
  13 N13            4.3820     5.2365    -1.5194 N.pl3   
  14 C14            5.1894     6.3368    -1.8040 C.ar    
  15 N15            2.3974     5.8395    -2.8109 N.pl3   
  16 C16            6.1979     6.6965    -0.9011 C.ar    
  17 C17           -1.0898    -2.1036     0.1500 C.3     
  18 C18           -2.4978    -2.7023     0.1509 C.3     
  19 N19           -3.1373    -2.4514    -1.1476 N.3     
  20 C20           -4.3942    -3.2120    -1.2732 C.3     
  21 C21           -5.5175    -2.1942    -1.5623 C.3     
  22 C22           -4.7477    -0.9808    -2.1470 C.3     
  23 C23           -3.4374    -1.0143    -1.3215 C.3     
  24 N24            4.9893     7.0097    -2.9178 N.ar    
  25 C25            5.7396     8.0709    -3.2316 C.ar    
  26 C26            6.7728     8.4890    -2.3571 C.ar    
  27 C27            6.9957     7.7698    -1.1660 C.ar    
  28 C28            5.5214     8.7851    -4.4227 C.ar    
  29 C29            6.3006     9.8614    -4.7174 C.ar    
  30 C30            7.3160    10.2707    -3.8558 C.ar    
  31 C31            7.5572     9.6034    -2.6933 C.ar    
  32 H32           -0.9580     1.9199    -0.1541 H       
  33 H33            1.2095    -1.7460     0.1958 H       
  34 H34            3.3296    -0.4967     0.1703 H       
  35 H35            1.1605     3.1720    -0.1770 H       
  36 H36            4.3590     1.7790     0.4486 H       
  37 H37            1.5001     5.5907    -3.0824 H       
  38 H38            2.7875     6.6692    -3.1278 H       
  39 H39            6.3430     6.1248     0.0037 H       
  40 H40           -0.5271    -2.4996    -0.6954 H       
  41 H41           -0.5829    -2.3658     1.0787 H       
  42 H42           -2.4356    -3.7767     0.3237 H       
  43 H43           -3.0884    -2.2406     0.9421 H       
  44 H44           -4.3169    -3.9226    -2.0961 H       
  45 H45           -4.6027    -3.7400    -0.3427 H       
  46 H46           -6.2204    -2.5933    -2.2935 H       
  47 H47           -6.0325    -1.9170    -0.6425 H       
  48 H48           -4.5442    -1.1221    -3.2085 H       
  49 H49           -5.2934    -0.0529    -1.9759 H       
  50 H50           -3.5870    -0.5378    -0.3526 H       
  51 H51           -2.6324    -0.5219    -1.8672 H       
  52 H52            7.7755     8.0636    -0.4789 H       
  53 H53            4.7385     8.4806    -5.1015 H       
  54 H54            6.1293    10.4066    -5.6338 H       
  55 H55            7.9203    11.1280    -4.1134 H       
  56 H56            8.3471     9.9305    -2.0334 H       
@<TRIPOS>BOND
   1    1    2 ar
   2    1    6 ar
   3    1   32 1
   4    2    3 ar
   5    2    7 1
   6    3    4 ar
   7    3   33 1
   8    4    5 ar
   9    4   34 1
  10    5    6 ar
  11    5    8 1
  12    6   35 1
  13    7   17 1
  14    8    9 1
  15    8   36 1
  16    9   10 2
  17    9   11 1
  18   10   13 1
  19   11   12 2
  20   12   13 1
  21   12   15 1
  22   13   14 1
  23   14   16 ar
  24   14   24 ar
  25   15   37 1
  26   15   38 1
  27   16   27 ar
  28   16   39 1
  29   17   18 1
  30   17   40 1
  31   17   41 1
  32   18   19 1
  33   18   42 1
  34   18   43 1
  35   19   20 1
  36   19   23 1
  37   20   21 1
  38   20   44 1
  39   20   45 1
  40   21   22 1
  41   21   46 1
  42   21   47 1
  43   22   23 1
  44   22   48 1
  45   22   49 1
  46   23   50 1
  47   23   51 1
  48   24   25 ar
  49   25   26 ar
  50   25   28 ar
  51   26   27 ar
  52   26   31 ar
  53   27   52 1
  54   28   29 ar
  55   28   53 1
  56   29   30 ar
  57   29   54 1
  58   30   31 ar
  59   30   55 1
  60   31   56 1

#	End of record

