#	Name: ASD11770001
#	Creating user name:	WinNT
#	Creation time:	15. 06. 2019 21:29

#	Modifying user name:	WinNT
#	Modification time:	15. 06. 2019 21:29

#	Program:	/corina/corina34_cracker 3.40 0067  02.08.2006

@<TRIPOS>MOLECULE
ASD11770001
  45   46    0    0    0
SMALL
NO_CHARGES


@<TRIPOS>ATOM
   1 C1            -0.0168     1.3888     0.0097 C.ar    
   2 C2             0.0021    -0.0041     0.0020 C.ar    
   3 C3            -1.1749    -0.7069     0.0090 C.ar    
   4 C4            -2.3952    -0.0243     0.0243 C.ar    
   5 C5            -2.4111     1.3739     0.0325 C.ar    
   6 C6            -1.2309     2.0715     0.0307 C.ar    
   7 S7             1.4980     2.2888     0.0000 S.3     
   8 C8             0.9461     4.0167     0.0146 C.3     
   9 F9             0.1869     4.2541     1.1655 F       
  10 F10            2.0606     4.8623     0.0085 F       
  11 F11            0.1651     4.2664    -1.1190 F       
  12 C12           -3.6631    -0.7776     0.0314 C.2     
  13 N13           -4.8385    -0.1183     0.0462 N.am    
  14 O14           -3.6480    -1.9935     0.0239 O.2     
  15 C15           -6.0980    -0.8666     0.0532 C.3     
  16 C16           -6.1765    -1.7065    -1.1531 C.1     
  17 C17           -6.1566    -1.7547     1.2977 C.3     
  18 C18           -7.2732     0.1130     0.0699 C.3     
  19 N19           -6.2370    -2.3547    -2.0840 N.1     
  20 O20           -8.5017    -0.6169     0.0768 O.3     
  21 C21           -9.6506     0.1090     0.0917 C.ar    
  22 C22          -10.8793    -0.5370     0.0991 C.ar    
  23 C23           -9.5948     1.4926     0.1053 C.ar    
  24 C24          -10.7769     2.2339     0.1206 C.ar    
  25 C25          -12.0083     1.5749     0.1221 C.ar    
  26 C26          -12.0518     0.1961     0.1138 C.ar    
  27 C27          -10.9356    -2.0429     0.0905 C.3     
  28 F28          -12.2711    -2.4597     0.1002 F       
  29 F29          -10.3045    -2.5267    -1.0606 F       
  30 F30          -10.2836    -2.5405     1.2239 F       
  31 C31          -10.7276     3.6650     0.1351 C.1     
  32 N32          -10.6885     4.8003     0.1467 N.1     
  33 H33            0.9449    -0.5307    -0.0098 H       
  34 H34           -1.1597    -1.7868     0.0024 H       
  35 H35           -3.3521     1.9038     0.0443 H       
  36 H36           -1.2425     3.1514     0.0374 H       
  37 H37           -4.8506     0.8516     0.0522 H       
  38 H38           -6.0985    -1.1328     2.1910 H       
  39 H39           -7.0937    -2.3115     1.3030 H       
  40 H40           -5.3194    -2.4526     1.2858 H       
  41 H41           -7.2151     0.7349     0.9632 H       
  42 H42           -7.2314     0.7457    -0.8167 H       
  43 H43           -8.6395     1.9963     0.1044 H       
  44 H44          -12.9259     2.1444     0.1343 H       
  45 H45          -13.0046    -0.3124     0.1146 H       
@<TRIPOS>BOND
   1    1    2 ar
   2    1    7 1
   3    1    6 ar
   4    2    3 ar
   5    2   33 1
   6    3    4 ar
   7    3   34 1
   8    4    5 ar
   9    4   12 1
  10    5    6 ar
  11    5   35 1
  12    6   36 1
  13    7    8 1
  14    8    9 1
  15    8   10 1
  16    8   11 1
  17   12   13 am
  18   12   14 2
  19   13   15 1
  20   13   37 1
  21   15   16 1
  22   15   17 1
  23   15   18 1
  24   16   19 3
  25   17   38 1
  26   17   39 1
  27   17   40 1
  28   18   20 1
  29   18   41 1
  30   18   42 1
  31   20   21 1
  32   21   22 ar
  33   21   23 ar
  34   22   27 1
  35   22   26 ar
  36   23   24 ar
  37   23   43 1
  38   24   25 ar
  39   24   31 1
  40   25   26 ar
  41   25   44 1
  42   26   45 1
  43   27   28 1
  44   27   29 1
  45   27   30 1
  46   31   32 3

#	End of record

