#	Name: ASD10160321
#	Creating user name:	WinNT
#	Creation time:	15. 06. 2019 21:25

#	Modifying user name:	WinNT
#	Modification time:	15. 06. 2019 21:25

#	Program:	/corina/corina34_cracker 3.40 0067  02.08.2006

@<TRIPOS>MOLECULE
ASD10160321
  46   47    0    0    0
SMALL
NO_CHARGES


@<TRIPOS>ATOM
   1 N1            -0.0169     1.3944     0.0097 N.pl3   
   2 N2             0.0021    -0.0041     0.0020 N.2     
   3 C3             1.2313    -0.4347    -0.0120 C.2     
   4 C4             2.1118     0.7290    -0.0142 C.ar    
   5 C5             3.5017     0.8955    -0.0265 C.ar    
   6 C6             4.0326     2.1679    -0.0248 C.ar    
   7 C7             3.1942     3.2815    -0.0104 C.ar    
   8 C8             1.8371     3.1338     0.0023 C.ar    
   9 C9             1.2738     1.8601    -0.0001 C.ar    
  10 C10           -1.2214     2.2283     0.0202 C.3     
  11 C11           -2.0577     1.9319    -1.2262 C.3     
  12 C12           -2.0448     1.9192     1.2722 C.3     
  13 O13            5.3818     2.3375    -0.0367 O.3     
  14 Si14           6.0258     2.4282    -1.5325 Si      
  15 C15            5.6612     0.8554    -2.4620 C.3     
  16 C16            5.2819     3.8739    -2.4422 C.3     
  17 C17            7.8698     2.6591    -1.4017 C.3     
  18 C18            8.4807     1.4719    -0.6546 C.3     
  19 C19            8.4739     2.7442    -2.8048 C.3     
  20 C20            8.1692     3.9508    -0.6383 C.3     
  21 H21            1.5432    -1.4686    -0.0202 H       
  22 H22            4.1529     0.0341    -0.0370 H       
  23 H23            3.6232     4.2726    -0.0088 H       
  24 H24            1.1996     4.0055     0.0137 H       
  25 H25           -0.9352     3.2800     0.0241 H       
  26 H26           -2.3439     0.8801    -1.2301 H       
  27 H27           -2.9539     2.5522    -1.2184 H       
  28 H28           -1.4712     2.1521    -2.1182 H       
  29 H29           -1.4489     2.1303     2.1602 H       
  30 H30           -2.9409     2.5396     1.2800 H       
  31 H31           -2.3310     0.8674     1.2683 H       
  32 H32            4.5823     0.7203    -2.5385 H       
  33 H33            6.0916     0.9160    -3.4616 H       
  34 H34            6.0964     0.0096    -1.9297 H       
  35 H35            5.4952     4.7941    -1.8984 H       
  36 H36            5.7123     3.9345    -3.4418 H       
  37 H37            4.2030     3.7388    -2.5187 H       
  38 H38            8.2674     0.5516    -1.1984 H       
  39 H39            9.5596     1.6069    -0.5781 H       
  40 H40            8.0503     1.4112     0.3450 H       
  41 H41            8.0387     3.5900    -3.3371 H       
  42 H42            9.5528     2.8793    -2.7283 H       
  43 H43            8.2606     1.8240    -3.3487 H       
  44 H44            7.7388     3.8902     0.3613 H       
  45 H45            9.2481     4.0859    -0.5618 H       
  46 H46            7.7340     4.7966    -1.1706 H       
@<TRIPOS>BOND
   1    1    2 1
   2    1    9 1
   3    1   10 1
   4    2    3 2
   5    3    4 1
   6    3   21 1
   7    4    5 ar
   8    4    9 ar
   9    5    6 ar
  10    5   22 1
  11    6    7 ar
  12    6   13 1
  13    7    8 ar
  14    7   23 1
  15    8    9 ar
  16    8   24 1
  17   10   11 1
  18   10   12 1
  19   10   25 1
  20   11   26 1
  21   11   27 1
  22   11   28 1
  23   12   29 1
  24   12   30 1
  25   12   31 1
  26   13   14 1
  27   14   15 1
  28   14   16 1
  29   14   17 1
  30   15   32 1
  31   15   33 1
  32   15   34 1
  33   16   35 1
  34   16   36 1
  35   16   37 1
  36   17   18 1
  37   17   20 1
  38   17   19 1
  39   18   38 1
  40   18   39 1
  41   18   40 1
  42   19   41 1
  43   19   42 1
  44   19   43 1
  45   20   44 1
  46   20   45 1
  47   20   46 1

#	End of record

