#	Name: ASD10610043
#	Creating user name:	WinNT
#	Creation time:	15. 06. 2019 21:27

#	Modifying user name:	WinNT
#	Modification time:	15. 06. 2019 21:27

#	Program:	/corina/corina34_cracker 3.40 0067  02.08.2006

@<TRIPOS>MOLECULE
ASD10610043
  59   63    0    0    0
SMALL
NO_CHARGES


@<TRIPOS>ATOM
   1 S1             2.2537     0.2089     2.7155 S.3     
   2 N2             3.3732    -0.3403     3.6634 N.2     
   3 N3             4.4493     0.3163     3.4837 N.2     
   4 C4             4.4863     1.2885     2.6029 C.2     
   5 C5             3.2695     1.4557     1.9683 C.2     
   6 C6             2.9061     2.4303     0.9272 C.2     
   7 O7             3.7044     3.2821     0.5863 O.2     
   8 N8             1.6885     2.3788     0.3515 N.am    
   9 O9            -0.5546     4.0861     0.0638 O.3     
  10 C10           -0.1688     3.3117    -1.0791 C.3     
  11 C11            1.2861     3.4132    -0.6047 C.3     
  12 C12            0.7422     4.6964     0.0354 C.3     
  13 C13            2.2900     3.6381    -1.7059 C.2     
  14 N14            3.0257     2.6077    -2.1678 N.am    
  15 O15            2.4358     4.7463    -2.1766 O.2     
  16 C16            3.9221     2.8017    -3.3102 C.3     
  17 C17            3.1222     2.6949    -4.6101 C.3     
  18 C18            4.9951     1.7437    -3.2922 C.ar    
  19 C19            6.3186     2.1110    -3.4741 C.ar    
  20 C20            7.3012     1.1335    -3.4562 C.ar    
  21 C21            6.9116    -0.1937    -3.2534 C.ar    
  22 C22            5.5589    -0.4803    -3.0783 C.ar    
  23 N23            4.6605     0.4829    -3.0981 N.ar    
  24 F24            6.6477     3.4070    -3.6673 F       
  25 C25            7.9211    -1.2790    -3.2255 C.ar    
  26 C26            8.0283    -2.1142    -2.1018 C.ar    
  27 C27            8.9818    -3.1315    -2.0875 C.ar    
  28 C28            9.8147    -3.3125    -3.1766 C.ar    
  29 C29            9.7077    -2.4876    -4.2836 C.ar    
  30 C30            8.7632    -1.4788    -4.3149 C.ar    
  31 O31            5.7027    -1.0637     0.2877 O.3     
  32 N32            6.2821    -0.9357    -0.7701 N.2     
  33 C33            7.1334    -1.9153    -0.9374 C.2     
  34 N34            7.0428    -2.7128     0.1515 N.2     
  35 C35            6.1343    -2.1613     0.9167 C.2     
  36 C36            5.6638    -2.6690     2.2554 C.3     
  37 F37            9.0922    -3.9395    -1.0104 F       
  38 Cl38          10.7606    -2.7266    -5.6430 Cl      
  39 C39            5.7086     2.1225     2.3175 C.3     
  40 H40            1.0787     1.6569     0.5703 H       
  41 H41           -0.5589     2.2940    -1.0640 H       
  42 H42           -0.3513     3.8184    -2.0268 H       
  43 H43            0.7975     5.5646    -0.6212 H       
  44 H44            1.1503     4.8920     1.0270 H       
  45 H45            2.9617     1.7376    -1.7439 H       
  46 H46            4.3829     3.7875    -3.2471 H       
  47 H47            2.6615     1.7091    -4.6731 H       
  48 H48            2.3462     3.4602    -4.6231 H       
  49 H49            3.7892     2.8393    -5.4600 H       
  50 H50            8.3408     1.3905    -3.5956 H       
  51 H51            5.2447    -1.5015    -2.9208 H       
  52 H52           10.5526    -4.1011    -3.1635 H       
  53 H53            8.6819    -0.8424    -5.1837 H       
  54 H54            4.9008    -1.9983     2.6505 H       
  55 H55            5.2439    -3.6680     2.1380 H       
  56 H56            6.5063    -2.7078     2.9458 H       
  57 H57            6.3131     1.6320     1.5545 H       
  58 H58            5.4022     3.1061     1.9615 H       
  59 H59            6.2945     2.2326     3.2300 H       
@<TRIPOS>BOND
   1    1    2 1
   2    1    5 1
   3    2    3 2
   4    3    4 1
   5    4    5 2
   6    4   39 1
   7    5    6 1
   8    6    7 2
   9    6    8 am
  10    8   11 1
  11    8   40 1
  12    9   10 1
  13    9   12 1
  14   10   11 1
  15   10   41 1
  16   10   42 1
  17   11   12 1
  18   11   13 1
  19   12   43 1
  20   12   44 1
  21   13   14 am
  22   13   15 2
  23   14   16 1
  24   14   45 1
  25   16   17 1
  26   16   18 1
  27   16   46 1
  28   17   47 1
  29   17   48 1
  30   17   49 1
  31   18   19 ar
  32   18   23 ar
  33   19   20 ar
  34   19   24 1
  35   20   21 ar
  36   20   50 1
  37   21   22 ar
  38   21   25 1
  39   22   23 ar
  40   22   51 1
  41   25   26 ar
  42   25   30 ar
  43   26   27 ar
  44   26   33 1
  45   27   28 ar
  46   27   37 1
  47   28   29 ar
  48   28   52 1
  49   29   30 ar
  50   29   38 1
  51   30   53 1
  52   31   32 1
  53   31   35 1
  54   32   33 2
  55   33   34 1
  56   34   35 2
  57   35   36 1
  58   36   54 1
  59   36   55 1
  60   36   56 1
  61   39   57 1
  62   39   58 1
  63   39   59 1

#	End of record

