#	Name: ASD10410167
#	Creating user name:	WinNT
#	Creation time:	15. 06. 2019 21:27

#	Modifying user name:	WinNT
#	Modification time:	15. 06. 2019 21:27

#	Program:	/corina/corina34_cracker 3.40 0067  02.08.2006

@<TRIPOS>MOLECULE
ASD10410167
  70   76    0    0    0
SMALL
NO_CHARGES


@<TRIPOS>ATOM
   1 C1             0.2037     1.7124     0.5627 C.ar    
   2 C2             0.3206     0.3646     0.8752 C.ar    
   3 C3             1.5534    -0.2673     0.7745 C.ar    
   4 C4             2.6625     0.4448     0.3636 C.ar    
   5 C5             2.5456     1.7931     0.0510 C.ar    
   6 C6             1.3131     2.4247     0.1517 C.ar    
   7 C7             1.6804    -1.7300     1.1142 C.3     
   8 N8             3.6706     2.5154    -0.3653 N.pl3   
   9 C9             3.5220     3.6028    -1.2262 C.2     
  10 N10            4.4826     4.4121    -1.6038 N.2     
  11 N11            2.3773     3.9851    -1.8046 N.2     
  12 C12            2.5921     5.0453    -2.5538 C.2     
  13 N13            3.9056     5.3597    -2.4645 N.pl3   
  14 C14            4.5579     6.4172    -3.1024 C.ar    
  15 N15            1.6443     5.7175    -3.3022 N.pl3   
  16 N16           -0.8037    -0.3573     1.2922 N.3     
  17 C17           -1.1737    -1.3757     0.2995 C.3     
  18 C18           -2.3549    -2.1934     0.8273 C.3     
  19 N19           -3.4851    -1.2952     1.1025 N.3     
  20 C20           -3.1151    -0.2768     2.0953 C.3     
  21 C21           -1.9339     0.5409     1.5675 C.3     
  22 N22            3.8847     7.2368    -3.8902 N.ar    
  23 N23            4.4400     8.2202    -4.4961 N.ar    
  24 C24            5.7178     8.4978    -4.3880 C.ar    
  25 C25            6.5439     7.6921    -3.5725 C.ar    
  26 C26            5.9328     6.6214    -2.9070 C.ar    
  27 C27           -4.6651    -2.0528     1.5402 C.3     
  28 C28           -5.1391    -3.0200     0.4127 C.3     
  29 C29           -5.8622    -1.1016     1.7679 C.3     
  30 C30           -6.9466    -1.5837     0.7565 C.3     
  31 C31           -6.2252    -3.9089     1.0919 C.3     
  32 C32           -7.4223    -2.9577     1.3196 C.3     
  33 C33           -6.0418    -2.0563    -0.4357 C.3     
  34 C34            6.3023     9.6713    -5.1311 C.3     
  35 C35            7.9601     7.7721    -3.2805 C.2     
  36 C36            8.4114     6.8385    -2.4616 C.2     
  37 S37            7.1274     5.7558    -1.9559 S.3     
  38 H38           -0.7558     2.2026     0.6367 H       
  39 H39            3.6212    -0.0465     0.2857 H       
  40 H40            1.2221     3.4730    -0.0914 H       
  41 H41            1.5411    -2.3259     0.2122 H       
  42 H42            2.6705    -1.9224     1.5275 H       
  43 H43            0.9215    -1.9996     1.8487 H       
  44 H44            4.5534     2.2596    -0.0551 H       
  45 H45            0.7231     5.4137    -3.3039 H       
  46 H46            1.9003     6.4929    -3.8256 H       
  47 H47           -1.4569    -0.8881    -0.6334 H       
  48 H48           -0.3248    -2.0359     0.1220 H       
  49 H49           -2.6497    -2.9304     0.0803 H       
  50 H50           -2.0631    -2.7027     1.7458 H       
  51 H51           -3.9640     0.3834     2.2727 H       
  52 H52           -2.8319    -0.7644     3.0282 H       
  53 H53           -1.6391     1.2779     2.3145 H       
  54 H54           -2.2257     1.0502     0.6490 H       
  55 H55           -4.4420    -2.6101     2.4500 H       
  56 H56           -4.3516    -3.5533    -0.1198 H       
  57 H57           -6.2295    -1.1911     2.7902 H       
  58 H58           -5.5751    -0.0719     1.5551 H       
  59 H59           -7.7333    -0.8661     0.5234 H       
  60 H60           -6.5114    -4.7289     0.4334 H       
  61 H61           -5.8599    -4.2945     2.0437 H       
  62 H62           -7.6455    -2.8757     2.3834 H       
  63 H63           -8.2970    -3.3101     0.7730 H       
  64 H64           -5.4702    -1.2340    -0.8661 H       
  65 H65           -6.6122    -2.5925    -1.1942 H       
  66 H66            6.2430    10.5628    -4.5068 H       
  67 H67            7.3451     9.4656    -5.3726 H       
  68 H68            5.7415     9.8344    -6.0515 H       
  69 H69            8.5982     8.5359    -3.7000 H       
  70 H70            9.4396     6.7545    -2.1420 H       
@<TRIPOS>BOND
   1    1    2 ar
   2    1    6 ar
   3    1   38 1
   4    2    3 ar
   5    2   16 1
   6    3    4 ar
   7    3    7 1
   8    4    5 ar
   9    4   39 1
  10    5    6 ar
  11    5    8 1
  12    6   40 1
  13    7   41 1
  14    7   42 1
  15    7   43 1
  16    8    9 1
  17    8   44 1
  18    9   10 2
  19    9   11 1
  20   10   13 1
  21   11   12 2
  22   12   13 1
  23   12   15 1
  24   13   14 1
  25   14   22 ar
  26   14   26 ar
  27   15   45 1
  28   15   46 1
  29   16   17 1
  30   16   21 1
  31   17   18 1
  32   17   47 1
  33   17   48 1
  34   18   19 1
  35   18   49 1
  36   18   50 1
  37   19   20 1
  38   19   27 1
  39   20   21 1
  40   20   51 1
  41   20   52 1
  42   21   53 1
  43   21   54 1
  44   22   23 ar
  45   23   24 ar
  46   24   25 ar
  47   24   34 1
  48   25   26 ar
  49   25   35 1
  50   26   37 1
  51   27   28 1
  52   27   29 1
  53   27   55 1
  54   28   31 1
  55   28   33 1
  56   28   56 1
  57   29   30 1
  58   29   57 1
  59   29   58 1
  60   30   32 1
  61   30   33 1
  62   30   59 1
  63   31   32 1
  64   31   60 1
  65   31   61 1
  66   32   62 1
  67   32   63 1
  68   33   64 1
  69   33   65 1
  70   34   66 1
  71   34   67 1
  72   34   68 1
  73   35   36 2
  74   35   69 1
  75   36   37 1
  76   36   70 1

#	End of record

