#	Name: ASD14170003
#	Creating user name:	WinNT
#	Creation time:	15. 06. 2019 21:30

#	Modifying user name:	WinNT
#	Modification time:	15. 06. 2019 21:30

#	Program:	/corina/corina34_cracker 3.40 0067  02.08.2006

@<TRIPOS>MOLECULE
ASD14170003
  27   28    0    0    0
SMALL
NO_CHARGES


@<TRIPOS>ATOM
   1 C1            -0.0170     1.4041     0.0098 C.2     
   2 C2             0.0021    -0.0041     0.0020 C.2     
   3 C3             1.3290    -0.3966    -0.0128 C.2     
   4 N4             2.0793     0.7279    -0.0139 N.pl3   
   5 N5             1.2175     1.8305     0.0003 N.2     
   6 N6             1.8016    -1.7022    -0.0239 N.pl3   
   7 C7             3.5432     0.7829    -0.0276 C.3     
   8 C8            -1.2502     2.2702     0.0205 C.3     
   9 F9            -1.6253     2.5311     1.3428 F       
  10 F10           -0.9785     3.4766    -0.6338 F       
  11 F11           -2.2916     1.6071    -0.6375 F       
  12 C12           -1.1802    -0.8998     0.0085 C.ar    
  13 C13           -2.0552    -0.9103    -1.0763 C.ar    
  14 C14           -3.1538    -1.7453    -1.0659 C.ar    
  15 C15           -3.3876    -2.5722     0.0206 C.ar    
  16 C16           -2.5209    -2.5649     1.1013 C.ar    
  17 C17           -1.4163    -1.7378     1.0969 C.ar    
  18 F18           -4.4644    -3.3881     0.0265 F       
  19 H19            1.1769    -2.4443    -0.0216 H       
  20 H20            2.7566    -1.8723    -0.0339 H       
  21 H21            3.8965     0.8020    -1.0586 H       
  22 H22            3.8778     1.6831     0.4879 H       
  23 H23            3.9445    -0.0956     0.4777 H       
  24 H24           -1.8739    -0.2657    -1.9237 H       
  25 H25           -3.8326    -1.7538    -1.9059 H       
  26 H26           -2.7075    -3.2108     1.9465 H       
  27 H27           -0.7385    -1.7362     1.9378 H       
@<TRIPOS>BOND
   1    1    2 1
   2    1    5 2
   3    1    8 1
   4    2    3 2
   5    2   12 1
   6    3    4 1
   7    3    6 1
   8    4    5 1
   9    4    7 1
  10    6   19 1
  11    6   20 1
  12    7   21 1
  13    7   22 1
  14    7   23 1
  15    8    9 1
  16    8   10 1
  17    8   11 1
  18   12   13 ar
  19   12   17 ar
  20   13   14 ar
  21   13   24 1
  22   14   15 ar
  23   14   25 1
  24   15   16 ar
  25   15   18 1
  26   16   17 ar
  27   16   26 1
  28   17   27 1

#	End of record

