#	Name: ASD11000208
#	Creating user name:	WinNT
#	Creation time:	15. 06. 2019 21:28

#	Modifying user name:	WinNT
#	Modification time:	15. 06. 2019 21:28

#	Program:	/corina/corina34_cracker 3.40 0067  02.08.2006

@<TRIPOS>MOLECULE
ASD11000208
  37   39    0    0    0
SMALL
NO_CHARGES


@<TRIPOS>ATOM
   1 C1             0.0107     1.4386    -0.0104 C.ar    
   2 C2             0.0211     0.0517    -0.0258 C.ar    
   3 C3             1.2225    -0.6299    -0.0388 C.ar    
   4 C4             2.4184     0.0726    -0.0370 C.ar    
   5 C5             2.4080     1.4595    -0.0226 C.ar    
   6 C6             1.2067     2.1410    -0.0081 C.ar    
   7 O7            -1.1720     2.1096    -0.0033 O.3     
   8 O8             3.6011    -0.5983    -0.0489 O.3     
   9 C9             4.7937     0.1889    -0.0462 C.3     
  10 C10            8.1314    -2.3339    -0.0861 C.ar    
  11 N11            7.6103    -1.9325    -1.2363 N.ar    
  12 C12            6.5553    -1.1351    -1.2589 C.ar    
  13 C13            5.9957    -0.7200    -0.0606 C.ar    
  14 C14            6.5660    -1.1586     1.1242 C.ar    
  15 N15            7.6207    -1.9554     1.0764 N.ar    
  16 N16            9.2330    -3.1736    -0.0994 N.pl3   
  17 C17            9.8683    -3.5127     1.0997 C.ar    
  18 C18           10.4220    -4.7763     1.2603 C.ar    
  19 C19           11.0491    -5.1086     2.4461 C.ar    
  20 C20           11.1249    -4.1826     3.4735 C.ar    
  21 C21           10.5736    -2.9237     3.3153 C.ar    
  22 C22            9.9515    -2.5846     2.1294 C.ar    
  23 Cl23          11.9127    -4.6026     4.9624 Cl      
  24 Cl24          11.7416    -6.6876     2.6485 Cl      
  25 H25           -0.9101    -0.4953    -0.0272 H       
  26 H26            1.2306    -1.7098    -0.0500 H       
  27 H27            3.3393     2.0065    -0.0208 H       
  28 H28            1.1985     3.2210     0.0035 H       
  29 H29           -1.5143     2.2939     0.8821 H       
  30 H30            4.8100     0.8268    -0.9299 H       
  31 H31            4.8178     0.8090     0.8499 H       
  32 H32            6.1351    -0.8110    -2.1996 H       
  33 H33            6.1539    -0.8538     2.0748 H       
  34 H34            9.5638    -3.5264    -0.9402 H       
  35 H35           10.3623    -5.4985     0.4596 H       
  36 H36           10.6334    -2.2038     4.1181 H       
  37 H37            9.5256    -1.6000     2.0050 H       
@<TRIPOS>BOND
   1    1    2 ar
   2    1    6 ar
   3    1    7 1
   4    2    3 ar
   5    2   25 1
   6    3    4 ar
   7    3   26 1
   8    4    5 ar
   9    4    8 1
  10    5    6 ar
  11    5   27 1
  12    6   28 1
  13    7   29 1
  14    8    9 1
  15    9   13 1
  16    9   30 1
  17    9   31 1
  18   10   11 ar
  19   10   15 ar
  20   10   16 1
  21   11   12 ar
  22   12   13 ar
  23   12   32 1
  24   13   14 ar
  25   14   15 ar
  26   14   33 1
  27   16   17 1
  28   16   34 1
  29   17   18 ar
  30   17   22 ar
  31   18   19 ar
  32   18   35 1
  33   19   20 ar
  34   19   24 1
  35   20   21 ar
  36   20   23 1
  37   21   22 ar
  38   21   36 1
  39   22   37 1

#	End of record

