#	Name: ASD13680006
#	Creating user name:	WinNT
#	Creation time:	15. 06. 2019 21:30

#	Modifying user name:	WinNT
#	Modification time:	15. 06. 2019 21:30

#	Program:	/corina/corina34_cracker 3.40 0067  02.08.2006

@<TRIPOS>MOLECULE
ASD13680006
  49   52    0    0    0
SMALL
NO_CHARGES


@<TRIPOS>ATOM
   1 C1            -0.0190     1.5123     0.0242 C.3     
   2 C2             0.0025    -0.0020     0.0099 C.2     
   3 C3             0.7558    -0.7677     0.8048 C.2     
   4 C4             1.7297    -0.2380     1.8432 C.3     
   5 C5             1.8877     2.2211     1.4594 C.3     
   6 C6             1.4089     2.0561     0.0198 C.3     
   7 C7             1.2759     1.1321     2.3378 C.3     
   8 C8             0.5454    -2.1871     0.5660 C.2     
   9 C9            -0.3625    -2.4431    -0.4219 C.2     
  10 S10           -0.9725    -0.9921    -1.0681 S.3     
  11 N11           -0.7351    -3.7101    -0.8405 N.am    
  12 C12            1.2399    -3.2400     1.3125 C.2     
  13 O13            0.7529    -3.6823     2.3365 O.2     
  14 N14            2.4178    -3.7182     0.8651 N.am    
  15 C15            3.1304    -4.6403     1.6286 C.ar    
  16 N16            2.6947    -4.9693     2.8347 N.ar    
  17 C17            3.3389    -5.8382     3.5898 C.ar    
  18 C18            4.5000    -6.4392     3.1449 C.ar    
  19 C19            4.9903    -6.1214     1.8858 C.ar    
  20 C20            4.2893    -5.2108     1.1148 C.ar    
  21 C21           -1.6425    -3.8543    -1.8265 C.2     
  22 C22           -2.0398    -5.2052    -2.2728 C.ar    
  23 O23           -2.1340    -2.8726    -2.3486 O.2     
  24 C24           -1.4773    -6.3352    -1.6754 C.ar    
  25 C25           -1.8530    -7.5933    -2.0965 C.ar    
  26 C26           -2.7852    -7.7388    -3.1094 C.ar    
  27 C27           -3.3470    -6.6252    -3.7063 C.ar    
  28 C28           -2.9845    -5.3585    -3.2908 C.ar    
  29 Cl29          -3.6955    -3.9612    -4.0363 Cl      
  30 H30           -0.5467     1.8749    -0.8579 H       
  31 H31           -0.5349     1.8583     0.9199 H       
  32 H32            1.7727    -0.9298     2.6844 H       
  33 H33            2.7208    -0.1514     1.3980 H       
  34 H34            2.9745     2.1438     1.4907 H       
  35 H35            1.5845     3.1996     1.8320 H       
  36 H36            2.0626     1.3584    -0.5036 H       
  37 H37            1.4289     3.0227    -0.4836 H       
  38 H38            0.1887     1.1941     2.2885 H       
  39 H39            1.6009     1.2719     3.3687 H       
  40 H40           -0.3430    -4.4934    -0.4239 H       
  41 H41            2.7695    -3.4205     0.0116 H       
  42 H42            2.9536    -6.0824     4.5688 H       
  43 H43            5.0212    -7.1489     3.7702 H       
  44 H44            5.8964    -6.5773     1.5148 H       
  45 H45            4.6401    -4.9439     0.1288 H       
  46 H46           -0.7493    -6.2239    -0.8854 H       
  47 H47           -1.4184    -8.4677    -1.6349 H       
  48 H48           -3.0748    -8.7269    -3.4353 H       
  49 H49           -4.0737    -6.7460    -4.4960 H       
@<TRIPOS>BOND
   1    1    2 1
   2    1    6 1
   3    1   30 1
   4    1   31 1
   5    2   10 1
   6    2    3 2
   7    3    4 1
   8    3    8 1
   9    4    7 1
  10    4   32 1
  11    4   33 1
  12    5    6 1
  13    5    7 1
  14    5   34 1
  15    5   35 1
  16    6   36 1
  17    6   37 1
  18    7   38 1
  19    7   39 1
  20    8    9 2
  21    8   12 1
  22    9   10 1
  23    9   11 1
  24   11   21 am
  25   11   40 1
  26   12   13 2
  27   12   14 am
  28   14   15 1
  29   14   41 1
  30   15   16 ar
  31   15   20 ar
  32   16   17 ar
  33   17   18 ar
  34   17   42 1
  35   18   19 ar
  36   18   43 1
  37   19   20 ar
  38   19   44 1
  39   20   45 1
  40   21   22 1
  41   21   23 2
  42   22   24 ar
  43   22   28 ar
  44   24   25 ar
  45   24   46 1
  46   25   26 ar
  47   25   47 1
  48   26   27 ar
  49   26   48 1
  50   27   28 ar
  51   27   49 1
  52   28   29 1

#	End of record

