#	Name: ASD10220112
#	Creating user name:	WinNT
#	Creation time:	15. 06. 2019 21:26

#	Modifying user name:	WinNT
#	Modification time:	15. 06. 2019 21:26

#	Program:	/corina/corina34_cracker 3.40 0067  02.08.2006

@<TRIPOS>MOLECULE
ASD10220112
  41   44    0    0    0
SMALL
NO_CHARGES


@<TRIPOS>ATOM
   1 C1            -0.0807     1.4467    -0.1467 C.2     
   2 C2            -0.1129    -0.0269    -0.2832 C.ar    
   3 C3            -1.2552    -0.7520     0.1277 C.ar    
   4 C4            -2.4138    -0.0078     0.6531 C.2     
   5 C5            -2.4848     1.3866     0.5574 C.2     
   6 C6            -1.4095     2.1665    -0.0593 C.2     
   7 O7            -3.5199    -0.4294     1.2615 O.3     
   8 C8            -4.3264     0.5958     1.5758 C.2     
   9 C9            -3.7520     1.7699     1.1690 C.2     
  10 C10           -4.2967     3.1295     1.3180 C.2     
  11 O11           -3.6224     4.0926     1.0050 O.2     
  12 C12           -5.6607     3.3241     1.8469 C.ar    
  13 C13           -5.9810     4.4917     2.5464 C.ar    
  14 O14            0.9693     2.0531    -0.1016 O.2     
  15 O15           -1.5709     3.2964    -0.4747 O.2     
  16 C16            0.9782    -0.7111    -0.8129 C.ar    
  17 C17            0.9405    -2.0901    -0.9200 C.ar    
  18 C18           -0.1725    -2.7983    -0.5039 C.ar    
  19 C19           -1.2708    -2.1362     0.0203 C.ar    
  20 C20           -6.6364     2.3444     1.6449 C.ar    
  21 C21           -7.9095     2.5277     2.1395 C.ar    
  22 C22           -8.2262     3.6846     2.8385 C.ar    
  23 C23           -7.2585     4.6688     3.0393 C.ar    
  24 O24           -7.5721     5.8010     3.7245 O.3     
  25 C25           -6.5322     6.7666     3.8926 C.3     
  26 O26           -9.4824     3.8608     3.3231 O.3     
  27 C27          -10.4254     2.8159     3.0764 C.3     
  28 H28           -5.2813     0.5083     2.0727 H       
  29 H29           -5.2308     5.2530     2.7011 H       
  30 H30            1.8520    -0.1666    -1.1391 H       
  31 H31            1.7876    -2.6182    -1.3323 H       
  32 H32           -0.1854    -3.8749    -0.5884 H       
  33 H33           -2.1368    -2.6949     0.3433 H       
  34 H34           -6.3930     1.4438     1.1008 H       
  35 H35           -8.6628     1.7698     1.9826 H       
  36 H36           -5.7021     6.3156     4.4363 H       
  37 H37           -6.1866     7.1022     2.9148 H       
  38 H38           -6.9148     7.6184     4.4548 H       
  39 H39          -11.3866     3.0827     3.5157 H       
  40 H40          -10.5427     2.6786     2.0015 H       
  41 H41          -10.0662     1.8891     3.5239 H       
@<TRIPOS>BOND
   1    1    2 1
   2    1   14 2
   3    1    6 1
   4    2    3 ar
   5    2   16 ar
   6    3    4 1
   7    3   19 ar
   8    4    5 2
   9    4    7 1
  10    5    6 1
  11    5    9 1
  12    6   15 2
  13    7    8 1
  14    8    9 2
  15    8   28 1
  16    9   10 1
  17   10   11 2
  18   10   12 1
  19   12   20 ar
  20   12   13 ar
  21   13   23 ar
  22   13   29 1
  23   16   17 ar
  24   16   30 1
  25   17   18 ar
  26   17   31 1
  27   18   19 ar
  28   18   32 1
  29   19   33 1
  30   20   21 ar
  31   20   34 1
  32   21   22 ar
  33   21   35 1
  34   22   23 ar
  35   22   26 1
  36   23   24 1
  37   24   25 1
  38   25   36 1
  39   25   37 1
  40   25   38 1
  41   26   27 1
  42   27   39 1
  43   27   40 1
  44   27   41 1

#	End of record

