#	Name: ASD10610068
#	Creating user name:	WinNT
#	Creation time:	15. 06. 2019 21:27

#	Modifying user name:	WinNT
#	Modification time:	15. 06. 2019 21:27

#	Program:	/corina/corina34_cracker 3.40 0067  02.08.2006

@<TRIPOS>MOLECULE
ASD10610068
  51   55    0    0    0
SMALL
NO_CHARGES


@<TRIPOS>ATOM
   1 O1            -0.0174     1.4293     0.0099 O.3     
   2 C2             0.0021    -0.0041     0.0020 C.3     
   3 C3             1.3600     0.0520     0.7127 C.3     
   4 C4             1.4159     1.4068    -0.0039 C.3     
   5 C5             1.2778     0.1407     2.2148 C.2     
   6 O6             0.2898     0.6068     2.7416 O.2     
   7 N7             2.3022    -0.2980     2.9729 N.am    
   8 C8             2.2223    -0.2117     4.4331 C.3     
   9 C9             3.1332    -1.2747     5.0829 C.3     
  10 C10            4.4526    -0.5004     5.2873 C.3     
  11 C11            4.0453     0.9531     5.4023 C.ar    
  12 C12            4.7423     2.0403     5.8965 C.ar    
  13 C13            4.1557     3.3034     5.9005 C.ar    
  14 C14            2.8628     3.4652     5.4043 C.ar    
  15 C15            2.1756     2.3753     4.9141 C.ar    
  16 C16            2.7627     1.1195     4.9112 C.ar    
  17 C17            4.9019     4.4698     6.4300 C.ar    
  18 C18            4.9945     5.6501     5.6749 C.ar    
  19 C19            5.6992     6.7403     6.1838 C.ar    
  20 C20            6.3016     6.6544     7.4257 C.ar    
  21 C21            6.2091     5.4896     8.1688 C.ar    
  22 C22            5.5091     4.4024     7.6801 C.ar    
  23 O23            3.2642     5.1817     2.6735 O.3     
  24 N24            3.6599     4.7934     3.7523 N.2     
  25 C25            4.3474     5.7363     4.3445 C.2     
  26 N26            4.3562     6.8046     3.5148 N.2     
  27 C27            3.6675     6.4386     2.4628 C.2     
  28 C28            3.3832     7.2770     1.2432 C.3     
  29 F29            5.7938     7.8796     5.4640 F       
  30 Cl30           6.9711     5.3964     9.7258 Cl      
  31 N31            2.3403    -0.9324     0.2353 N.3     
  32 H32           -0.7857    -0.4509     0.6086 H       
  33 H33            0.0552    -0.4306    -0.9996 H       
  34 H34            1.8381     1.3486    -1.0071 H       
  35 H35            1.8669     2.1962     0.5974 H       
  36 H36            3.0924    -0.6707     2.5516 H       
  37 H37            1.1922    -0.3428     4.7647 H       
  38 H38            2.7247    -1.6030     6.0387 H       
  39 H39            3.2806    -2.1210     4.4121 H       
  40 H40            4.9458    -0.8285     6.2023 H       
  41 H41            5.1109    -0.6421     4.4302 H       
  42 H42            5.7436     1.9098     6.2798 H       
  43 H43            2.4009     4.4414     5.4044 H       
  44 H44            1.1740     2.5006     4.5302 H       
  45 H45            6.8473     7.4999     7.8178 H       
  46 H46            5.4373     3.4987     8.2670 H       
  47 H47            2.7860     6.7002     0.5369 H       
  48 H48            2.8345     8.1717     1.5372 H       
  49 H49            4.3235     7.5653     0.7733 H       
  50 H50            3.2113    -0.8482     0.7376 H       
  51 H51            1.9733    -1.8699     0.3022 H       
@<TRIPOS>BOND
   1    1    2 1
   2    1    4 1
   3    2    3 1
   4    2   32 1
   5    2   33 1
   6    3    4 1
   7    3    5 1
   8    3   31 1
   9    4   34 1
  10    4   35 1
  11    5    6 2
  12    5    7 am
  13    7    8 1
  14    7   36 1
  15    8    9 1
  16    8   16 1
  17    8   37 1
  18    9   10 1
  19    9   38 1
  20    9   39 1
  21   10   11 1
  22   10   40 1
  23   10   41 1
  24   11   12 ar
  25   11   16 ar
  26   12   13 ar
  27   12   42 1
  28   13   14 ar
  29   13   17 1
  30   14   15 ar
  31   14   43 1
  32   15   16 ar
  33   15   44 1
  34   17   18 ar
  35   17   22 ar
  36   18   19 ar
  37   18   25 1
  38   19   20 ar
  39   19   29 1
  40   20   21 ar
  41   20   45 1
  42   21   22 ar
  43   21   30 1
  44   22   46 1
  45   23   24 1
  46   23   27 1
  47   24   25 2
  48   25   26 1
  49   26   27 2
  50   27   28 1
  51   28   47 1
  52   28   48 1
  53   28   49 1
  54   31   50 1
  55   31   51 1

#	End of record

