#	Name: ASD11030029
#	Creating user name:	WinNT
#	Creation time:	15. 06. 2019 21:29

#	Modifying user name:	WinNT
#	Modification time:	15. 06. 2019 21:29

#	Program:	/corina/corina34_cracker 3.40 0067  02.08.2006

@<TRIPOS>MOLECULE
ASD11030029
  48   49    0    0    0
SMALL
NO_CHARGES


@<TRIPOS>ATOM
   1 Cl1            0.0202    -0.0713     0.1061 Cl      
   2 C2            -0.0105     1.7314     0.1015 C.3     
   3 C3             1.4014     2.2578     0.0799 C.2     
   4 O4             2.3324     1.4887     0.0688 O.2     
   5 C5             1.6515     3.7439     0.0722 C.3     
   6 N6             3.0532     4.0049     0.4090 N.am    
   7 C7             3.4072     5.1873     0.9504 C.2     
   8 O8             2.5654     6.0352     1.1587 O.2     
   9 C9             4.8490     5.4559     1.2969 C.3     
  10 C10            4.9777     6.8596     1.8917 C.3     
  11 C11            6.4195     7.1282     2.2382 C.2     
  12 O12            7.2614     6.2802     2.0299 O.2     
  13 N13            6.7735     8.3106     2.7796 N.am    
  14 C14            8.0919     8.5195     3.2050 C.ar    
  15 C15            8.8203     7.4704     3.7499 C.ar    
  16 C16           10.1196     7.6770     4.1691 C.ar    
  17 C17           10.6973     8.9325     4.0460 C.ar    
  18 C18            9.9698     9.9811     3.5016 C.ar    
  19 C19            8.6724     9.7743     3.0768 C.ar    
  20 O20           11.9765     9.1353     4.4593 O.3     
  21 C21           12.9681     9.0400     3.5353 C.ar    
  22 C22           12.6550     8.8522     2.1965 C.ar    
  23 C23           13.6651     8.7561     1.2591 C.ar    
  24 C24           14.9872     8.8469     1.6538 C.ar    
  25 C25           15.3019     9.0336     2.9872 C.ar    
  26 C26           14.2956     9.1361     3.9279 C.ar    
  27 C27            1.3482     4.3049    -1.3186 C.3     
  28 H28           -0.5430     2.0835    -0.7820 H       
  29 H29           -0.5177     2.0885     0.9977 H       
  30 H30            1.0056     4.2248     0.8068 H       
  31 H31            3.7264     3.3268     0.2424 H       
  32 H32            5.1909     4.7201     2.0248 H       
  33 H33            5.4584     5.3858     0.3959 H       
  34 H34            4.6358     7.5954     1.1638 H       
  35 H35            4.3683     6.9297     2.7928 H       
  36 H36            6.1155     9.0169     2.8746 H       
  37 H37            8.3707     6.4932     3.8461 H       
  38 H38           10.6862     6.8612     4.5932 H       
  39 H39           10.4199    10.9582     3.4064 H       
  40 H40            8.1064    10.5905     2.6528 H       
  41 H41           11.6226     8.7809     1.8878 H       
  42 H42           13.4219     8.6096     0.2171 H       
  43 H43           15.7753     8.7715     0.9193 H       
  44 H44           16.3354     9.1035     3.2929 H       
  45 H45           14.5419     9.2822     4.9692 H       
  46 H46            1.9941     3.8239    -2.0532 H       
  47 H47            0.3054     4.1106    -1.5692 H       
  48 H48            1.5291     5.3797    -1.3242 H       
@<TRIPOS>BOND
   1    1    2 1
   2    2    3 1
   3    2   28 1
   4    2   29 1
   5    3    4 2
   6    3    5 1
   7    5    6 1
   8    5   27 1
   9    5   30 1
  10    6    7 am
  11    6   31 1
  12    7    8 2
  13    7    9 1
  14    9   10 1
  15    9   32 1
  16    9   33 1
  17   10   11 1
  18   10   34 1
  19   10   35 1
  20   11   12 2
  21   11   13 am
  22   13   14 1
  23   13   36 1
  24   14   15 ar
  25   14   19 ar
  26   15   16 ar
  27   15   37 1
  28   16   17 ar
  29   16   38 1
  30   17   18 ar
  31   17   20 1
  32   18   19 ar
  33   18   39 1
  34   19   40 1
  35   20   21 1
  36   21   22 ar
  37   21   26 ar
  38   22   23 ar
  39   22   41 1
  40   23   24 ar
  41   23   42 1
  42   24   25 ar
  43   24   43 1
  44   25   26 ar
  45   25   44 1
  46   26   45 1
  47   27   46 1
  48   27   47 1
  49   27   48 1

#	End of record

