#	Name: ASD10660001
#	Creating user name:	WinNT
#	Creation time:	15. 06. 2019 21:28

#	Modifying user name:	WinNT
#	Modification time:	15. 06. 2019 21:28

#	Program:	/corina/corina34_cracker 3.40 0067  02.08.2006

@<TRIPOS>MOLECULE
ASD10660001
  59   62    0    0    0
SMALL
NO_CHARGES


@<TRIPOS>ATOM
   1 C1             1.4704     1.2351     2.5189 C.ar    
   2 C2             1.6326    -0.1368     2.5800 C.ar    
   3 C3             2.8299    -0.7105     2.1932 C.ar    
   4 C4             3.8685     0.0848     1.7448 C.ar    
   5 C5             3.7139     1.4561     1.6815 C.ar    
   6 C6             2.5135     2.0369     2.0678 C.ar    
   7 S7             3.0328    -2.4589     2.2724 S.o2    
   8 O8             4.4338    -2.6426     2.4235 O.2     
   9 O9             2.1263    -2.8714     3.2860 O.2     
  10 C10            2.4846    -3.0523     0.6482 C.3     
  11 N11            2.3536     3.4256     2.0040 N.pl3   
  12 C12            3.0366     4.1589     1.0450 C.ar    
  13 C13            2.9819     5.5496     1.0482 C.ar    
  14 N14            3.7589     3.5428     0.1109 N.ar    
  15 C15            4.4107     4.2317    -0.8036 C.ar    
  16 N16            4.3794     5.5482    -0.8375 N.ar    
  17 C17            3.6845     6.2390     0.0648 C.ar    
  18 N18            3.6618     7.6246     0.0248 N.3     
  19 C19            5.0229     8.1745     0.0597 C.3     
  20 C20            4.9557     9.7000     0.1609 C.3     
  21 C21            4.1923    10.2536    -1.0454 C.3     
  22 C22            2.7952     9.6284    -1.0861 C.3     
  23 C23            2.9250     8.1050    -1.1512 C.3     
  24 C24            4.0708    11.7505    -0.9209 C.2     
  25 O25            3.4742    12.4210     0.0693 O.3     
  26 N26            3.5545    13.6139    -0.1351 N.2     
  27 C27            4.1918    13.8381    -1.2451 C.2     
  28 N28            4.5353    12.6443    -1.7605 N.2     
  29 N29            2.1961     6.2763     2.0708 N.pl3   
  30 O30            2.6932     6.5312     3.1531 O.2     
  31 O31            1.0526     6.6194     1.8298 O.2     
  32 C32            4.4951    15.1880    -1.8424 C.3     
  33 C33            3.1857    15.9303    -2.1166 C.3     
  34 C34            5.3459    15.9994    -0.8633 C.3     
  35 F35            0.2988     1.7953     2.8915 F       
  36 H36            0.8237    -0.7608     2.9304 H       
  37 H37            4.8022    -0.3669     1.4439 H       
  38 H38            4.5262     2.0759     1.3317 H       
  39 H39            3.1037    -2.6056    -0.1298 H       
  40 H40            2.5770    -4.1376     0.6077 H       
  41 H41            1.4435    -2.7702     0.4908 H       
  42 H42            1.7652     3.8754     2.6303 H       
  43 H43            4.9877     3.7017    -1.5470 H       
  44 H44            5.5535     7.7761     0.9246 H       
  45 H45            5.5515     7.8939    -0.8513 H       
  46 H46            4.4394     9.9815     1.0787 H       
  47 H47            5.9661    10.1089     0.1711 H       
  48 H48            4.7291    10.0057    -1.9612 H       
  49 H49            2.2448     9.9087    -0.1879 H       
  50 H50            2.2619     9.9862    -1.9668 H       
  51 H51            3.4634     7.8247    -2.0565 H       
  52 H52            1.9318     7.6561    -1.1658 H       
  53 H53            5.0413    15.0576    -2.7766 H       
  54 H54            2.6395    16.0608    -1.1824 H       
  55 H55            3.4051    16.9067    -2.5486 H       
  56 H56            2.5796    15.3523    -2.8142 H       
  57 H57            6.2788    15.4706    -0.6679 H       
  58 H58            5.5653    16.9758    -1.2953 H       
  59 H59            4.7997    16.1299     0.0709 H       
@<TRIPOS>BOND
   1    1    2 ar
   2    1    6 ar
   3    1   35 1
   4    2    3 ar
   5    2   36 1
   6    3    4 ar
   7    3    7 1
   8    4    5 ar
   9    4   37 1
  10    5    6 ar
  11    5   38 1
  12    6   11 1
  13    7    8 2
  14    7    9 2
  15    7   10 1
  16   10   39 1
  17   10   40 1
  18   10   41 1
  19   11   12 1
  20   11   42 1
  21   12   14 ar
  22   12   13 ar
  23   13   17 ar
  24   13   29 1
  25   14   15 ar
  26   15   16 ar
  27   15   43 1
  28   16   17 ar
  29   17   18 1
  30   18   19 1
  31   18   23 1
  32   19   20 1
  33   19   44 1
  34   19   45 1
  35   20   21 1
  36   20   46 1
  37   20   47 1
  38   21   22 1
  39   21   24 1
  40   21   48 1
  41   22   23 1
  42   22   49 1
  43   22   50 1
  44   23   51 1
  45   23   52 1
  46   24   25 1
  47   24   28 2
  48   25   26 1
  49   26   27 2
  50   27   28 1
  51   27   32 1
  52   29   30 2
  53   29   31 2
  54   32   33 1
  55   32   34 1
  56   32   53 1
  57   33   54 1
  58   33   55 1
  59   33   56 1
  60   34   57 1
  61   34   58 1
  62   34   59 1

#	End of record

