#	Name: ASD13010043
#	Creating user name:	WinNT
#	Creation time:	15. 06. 2019 21:30

#	Modifying user name:	WinNT
#	Modification time:	15. 06. 2019 21:30

#	Program:	/corina/corina34_cracker 3.40 0067  02.08.2006

@<TRIPOS>MOLECULE
ASD13010043
  38   41    0    0    0
SMALL
NO_CHARGES


@<TRIPOS>ATOM
   1 N1            -0.0158     1.3113     0.0093 N.ar    
   2 C2             0.0021    -0.0041     0.0020 C.ar    
   3 C3             1.1940    -0.7139    -0.0127 C.ar    
   4 C4             2.3933    -0.0288    -0.0205 C.ar    
   5 C5             1.1043     2.0222     0.0024 C.ar    
   6 N6             1.3673     3.3689     0.0064 N.pl3   
   7 C7             2.3523     1.3687    -0.0131 C.ar    
   8 C8             3.3703     2.4195    -0.0177 C.2     
   9 N9             2.7510     3.5692    -0.0062 N.2     
  10 C10            0.4058     4.3790     0.0207 C.ar    
  11 O11            4.7158     2.2330    -0.0312 O.3     
  12 C12            5.5126     3.3342    -0.0336 C.ar    
  13 C13            5.9045     3.9065    -1.2361 C.ar    
  14 C14            5.9316     3.8921     1.1665 C.ar    
  15 C15            6.7421     5.0121     1.1609 C.ar    
  16 C16            7.1350     5.5768    -0.0385 C.ar    
  17 C17            6.7151     5.0265    -1.2353 C.ar    
  18 C18           -1.5055     6.3855     0.0503 C.ar    
  19 C19           -1.7488     5.1962    -0.6435 C.ar    
  20 C20           -0.7976     4.2015    -0.6555 C.ar    
  21 C21            0.6495     5.5597     0.7159 C.ar    
  22 C22           -0.2975     6.5583     0.7330 C.ar    
  23 C23           -2.5221     7.4535     0.0655 C.2     
  24 O24           -3.5728     7.3005    -0.5254 O.2     
  25 O25           -2.2860     8.5991     0.7346 O.3     
  26 Cl26           5.3776     3.2163    -2.7394 Cl      
  27 Cl27           5.4379     3.1844     2.6729 Cl      
  28 H28           -0.9332    -0.5441     0.0080 H       
  29 H29            1.1842    -1.7939    -0.0177 H       
  30 H30            3.3351    -0.5571    -0.0316 H       
  31 H31            7.0684     5.4466     2.0943 H       
  32 H32            7.7679     6.4519    -0.0403 H       
  33 H33            7.0202     5.4722    -2.1705 H       
  34 H34           -2.6809     5.0594    -1.1715 H       
  35 H35           -0.9852     3.2823    -1.1906 H       
  36 H36            1.5828     5.6924     1.2430 H       
  37 H37           -0.1062     7.4758     1.2696 H       
  38 H38           -2.9822     9.2699     0.7158 H       
@<TRIPOS>BOND
   1    1    2 ar
   2    1    5 ar
   3    2    3 ar
   4    2   28 1
   5    3    4 ar
   6    3   29 1
   7    4    7 ar
   8    4   30 1
   9    5    7 ar
  10    5    6 1
  11    6    9 1
  12    6   10 1
  13    7    8 1
  14    8    9 2
  15    8   11 1
  16   10   21 ar
  17   10   20 ar
  18   11   12 1
  19   12   14 ar
  20   12   13 ar
  21   13   17 ar
  22   13   26 1
  23   14   15 ar
  24   14   27 1
  25   15   16 ar
  26   15   31 1
  27   16   17 ar
  28   16   32 1
  29   17   33 1
  30   18   19 ar
  31   18   22 ar
  32   18   23 1
  33   19   20 ar
  34   19   34 1
  35   20   35 1
  36   21   22 ar
  37   21   36 1
  38   22   37 1
  39   23   24 2
  40   23   25 1
  41   25   38 1

#	End of record

