#	Name: ASD10160480
#	Creating user name:	WinNT
#	Creation time:	15. 06. 2019 21:26

#	Modifying user name:	WinNT
#	Modification time:	15. 06. 2019 21:26

#	Program:	/corina/corina34_cracker 3.40 0067  02.08.2006

@<TRIPOS>MOLECULE
ASD10160480
  44   46    0    0    0
SMALL
NO_CHARGES


@<TRIPOS>ATOM
   1 C1            -0.3999     1.1084    -1.9476 C.2     
   2 C2            -0.2795    -0.2703    -1.4407 C.ar    
   3 C3             0.9041    -0.9900    -1.6392 C.ar    
   4 C4             1.0124    -2.2791    -1.1629 C.ar    
   5 C5            -0.0516    -2.8637    -0.4871 C.ar    
   6 C6            -1.2303    -2.1515    -0.2876 C.ar    
   7 C7            -1.3453    -0.8609    -0.7551 C.ar    
   8 O8             0.5293     1.6218    -2.5389 O.2     
   9 O9            -1.5426     1.7978    -1.7603 O.3     
  10 O10            0.0588    -4.1333    -0.0206 O.3     
  11 C11            1.5490    -5.5211    -1.2611 C.ar    
  12 C12            1.2615    -4.7546    -0.1405 C.ar    
  13 C13            2.2219    -4.6310     0.8582 C.ar    
  14 C14            3.4342    -5.2833     0.6906 C.ar    
  15 C15            3.6465    -6.0293    -0.4550 C.ar    
  16 N16            2.7140    -6.1254    -1.3824 N.ar    
  17 C17            4.9609    -6.7414    -0.6455 C.3     
  18 C18            4.9244    -8.2637    -0.7946 C.3     
  19 C19            5.2256    -7.3830    -2.0090 C.3     
  20 Cl20           4.6706    -5.1646     1.9034 Cl      
  21 Cl21          -2.5558    -2.8885     0.5571 Cl      
  22 Cl22           2.2337    -0.2609    -2.4844 Cl      
  23 C23           -1.5903     3.1503    -2.2863 C.3     
  24 C24           -1.3742     3.1166    -3.8005 C.3     
  25 C25           -2.9557     3.7689    -1.9797 C.3     
  26 C26           -0.4914     3.9907    -1.6328 C.3     
  27 H27            1.9254    -2.8354    -1.3155 H       
  28 H28           -2.2589    -0.3074    -0.5958 H       
  29 H29            0.8085    -5.6271    -2.0402 H       
  30 H30            2.0283    -4.0414     1.7420 H       
  31 H31            5.8113    -6.3075    -0.1195 H       
  32 H32            5.7510    -8.8312    -0.3671 H       
  33 H33            3.9498    -8.7501    -0.7550 H       
  34 H34            4.4491    -7.2900    -2.7682 H       
  35 H35            6.2503    -7.3712    -2.3804 H       
  36 H36           -2.1571     2.5179    -4.2661 H       
  37 H37           -1.4100     4.1319    -4.1954 H       
  38 H38           -0.4015     2.6759    -4.0190 H       
  39 H39           -3.1097     3.7929    -0.9009 H       
  40 H40           -2.9915     4.7842    -2.3745 H       
  41 H41           -3.7386     3.1702    -2.4452 H       
  42 H42            0.4813     3.5500    -1.8513 H       
  43 H43           -0.5272     5.0060    -2.0277 H       
  44 H44           -0.6454     4.0148    -0.5540 H       
@<TRIPOS>BOND
   1    1    2 1
   2    1    8 2
   3    1    9 1
   4    2    3 ar
   5    2    7 ar
   6    3    4 ar
   7    3   22 1
   8    4    5 ar
   9    4   27 1
  10    5    6 ar
  11    5   10 1
  12    6    7 ar
  13    6   21 1
  14    7   28 1
  15    9   23 1
  16   10   12 1
  17   11   12 ar
  18   11   16 ar
  19   11   29 1
  20   12   13 ar
  21   13   14 ar
  22   13   30 1
  23   14   15 ar
  24   14   20 1
  25   15   16 ar
  26   15   17 1
  27   17   18 1
  28   17   19 1
  29   17   31 1
  30   18   19 1
  31   18   32 1
  32   18   33 1
  33   19   34 1
  34   19   35 1
  35   23   24 1
  36   23   26 1
  37   23   25 1
  38   24   36 1
  39   24   37 1
  40   24   38 1
  41   25   39 1
  42   25   40 1
  43   25   41 1
  44   26   42 1
  45   26   43 1
  46   26   44 1

#	End of record

