#	Name: ASD14740003
#	Creating user name:	WinNT
#	Creation time:	15. 06. 2019 21:31

#	Modifying user name:	WinNT
#	Modification time:	15. 06. 2019 21:31

#	Program:	/corina/corina34_cracker 3.40 0067  02.08.2006

@<TRIPOS>MOLECULE
ASD14740003
  69   74    0    0    0
SMALL
NO_CHARGES


@<TRIPOS>ATOM
   1 C1            -0.0496     1.3723     0.2859 C.ar    
   2 C2             0.1996     0.1860    -0.4003 C.ar    
   3 C3             1.3803    -0.5037    -0.1809 C.ar    
   4 C4             2.3130    -0.0116     0.7222 C.ar    
   5 C5             2.0620     1.1711     1.4054 C.ar    
   6 C6             0.8846     1.8607     1.1873 C.ar    
   7 N7             3.5062    -0.7079     0.9444 N.3     
   8 C8             4.3444    -0.0147     1.9326 C.3     
   9 C9             5.5998    -0.8464     2.2060 C.3     
  10 N10            6.3326    -1.0502     0.9486 N.3     
  11 C11            5.4945    -1.7434    -0.0396 C.3     
  12 C12            4.2391    -0.9118    -0.3130 C.3     
  13 C13            7.5853    -1.7812     1.1819 C.3     
  14 N14           -1.2427     2.0761     0.0610 N.pl3   
  15 C15           -1.2640     3.4559     0.1723 C.ar    
  16 C16           -0.1053     5.4251     0.4988 C.ar    
  17 N17           -0.1273     4.1068     0.3720 N.ar    
  18 N18           -2.4217     4.0966     0.0710 N.ar    
  19 C19           -2.4657     5.4134     0.1739 C.ar    
  20 C20           -1.2934     6.1285     0.4189 C.ar    
  21 C21           -1.3109     7.6167     0.6247 C.3     
  22 C22           -3.6600     7.4783    -0.1338 C.2     
  23 C23           -2.3899     8.2858    -0.2298 C.3     
  24 N24           -3.6587     6.1238     0.0360 N.pl3   
  25 C25           -4.9384     5.6625     0.0605 C.2     
  26 C26           -5.7800     6.7027    -0.0878 C.2     
  27 C27           -4.9437     7.9044    -0.2190 C.2     
  28 C28           -5.4049     9.2890    -0.4152 C.2     
  29 O29           -4.5952    10.1908    -0.5187 O.2     
  30 N30           -6.7241     9.5570    -0.4800 N.am    
  31 O31           -0.7154    -0.2944    -1.2840 O.3     
  32 C32           -0.3933    -1.5161    -1.9517 C.3     
  33 C33           -7.1655    10.8819    -0.5574 C.ar    
  34 C34           -6.8708    13.1266    -1.3479 C.ar    
  35 C35           -6.4322    11.8191    -1.2735 C.ar    
  36 C36           -8.3411    11.2620     0.0770 C.ar    
  37 C37           -8.7742    12.5711    -0.0013 C.ar    
  38 C38           -8.0387    13.5030    -0.7104 C.ar    
  39 H39            1.5752    -1.4239    -0.7117 H       
  40 H40            2.7881     1.5524     2.1082 H       
  41 H41            0.6915     2.7804     1.7194 H       
  42 H42            4.6327     0.9619     1.5438 H       
  43 H43            3.7841     0.1132     2.8588 H       
  44 H44            6.2368    -0.3203     2.9170 H       
  45 H45            5.3127    -1.8128     2.6203 H       
  46 H46            6.0547    -1.8714    -0.9658 H       
  47 H47            5.2062    -2.7201     0.3492 H       
  48 H48            3.6020    -1.4379    -1.0240 H       
  49 H49            4.5262     0.0547    -0.7274 H       
  50 H50            7.3619    -2.7548     1.6180 H       
  51 H51            8.1076    -1.9184     0.2351 H       
  52 H52            8.2157    -1.2128     1.8656 H       
  53 H53           -2.0525     1.5957    -0.1724 H       
  54 H54            0.8278     5.9437     0.6627 H       
  55 H55           -1.5060     7.8290     1.6759 H       
  56 H56           -0.3374     8.0255     0.3542 H       
  57 H57           -2.5712     9.2963     0.1366 H       
  58 H58           -2.0606     8.3260    -1.2681 H       
  59 H59           -5.2314     4.6298     0.1796 H       
  60 H60           -6.8590     6.6622    -0.1066 H       
  61 H61           -7.3675     8.8311    -0.4729 H       
  62 H62            0.5258    -1.3865    -2.5231 H       
  63 H63           -0.2545    -2.3072    -1.2147 H       
  64 H64           -1.2056    -1.7866    -2.6263 H       
  65 H65           -6.3008    13.8559    -1.9044 H       
  66 H66           -5.5197    11.5258    -1.7713 H       
  67 H67           -8.9162    10.5346     0.6307 H       
  68 H68           -9.6885    12.8672     0.4915 H       
  69 H69           -8.3794    14.5261    -0.7698 H       
@<TRIPOS>BOND
   1    1    2 ar
   2    1    6 ar
   3    1   14 1
   4    2    3 ar
   5    2   31 1
   6    3    4 ar
   7    3   39 1
   8    4    5 ar
   9    4    7 1
  10    5    6 ar
  11    5   40 1
  12    6   41 1
  13    7    8 1
  14    7   12 1
  15    8    9 1
  16    8   42 1
  17    8   43 1
  18    9   10 1
  19    9   44 1
  20    9   45 1
  21   10   11 1
  22   10   13 1
  23   11   12 1
  24   11   46 1
  25   11   47 1
  26   12   48 1
  27   12   49 1
  28   13   50 1
  29   13   51 1
  30   13   52 1
  31   14   15 1
  32   14   53 1
  33   15   18 ar
  34   15   17 ar
  35   16   17 ar
  36   16   20 ar
  37   16   54 1
  38   18   19 ar
  39   19   20 ar
  40   19   24 1
  41   20   21 1
  42   21   23 1
  43   21   55 1
  44   21   56 1
  45   22   23 1
  46   22   27 2
  47   22   24 1
  48   23   57 1
  49   23   58 1
  50   24   25 1
  51   25   26 2
  52   25   59 1
  53   26   27 1
  54   26   60 1
  55   27   28 1
  56   28   29 2
  57   28   30 am
  58   30   33 1
  59   30   61 1
  60   31   32 1
  61   32   62 1
  62   32   63 1
  63   32   64 1
  64   33   36 ar
  65   33   35 ar
  66   34   35 ar
  67   34   38 ar
  68   34   65 1
  69   35   66 1
  70   36   37 ar
  71   36   67 1
  72   37   38 ar
  73   37   68 1
  74   38   69 1

#	End of record

