#	Name: ASD13040006
#	Creating user name:	WinNT
#	Creation time:	15. 06. 2019 21:30

#	Modifying user name:	WinNT
#	Modification time:	15. 06. 2019 21:30

#	Program:	/corina/corina34_cracker 3.40 0067  02.08.2006

@<TRIPOS>MOLECULE
ASD13040006
  64   67    0    0    0
SMALL
NO_CHARGES


@<TRIPOS>ATOM
   1 C1            -0.0261     1.3911    -0.2186 C.ar    
   2 C2             2.3835     1.4352    -0.4333 C.ar    
   3 C3            -0.0096     0.0037    -0.2854 C.ar    
   4 C4             2.3816     0.0435    -0.4983 C.ar    
   5 C5             1.0192     8.3223     0.3575 C.ar    
   6 C6            -0.2216     8.3149    -0.2530 C.ar    
   7 C7             1.5531     7.1497     0.8597 C.ar    
   8 C8            -0.9321     7.1357    -0.3624 C.ar    
   9 C9             0.8480     5.9671     0.7537 C.ar    
  10 C10           -0.3988     5.9562     0.1414 C.ar    
  11 C11            1.7943     9.6099     0.4695 C.3     
  12 C12           -3.2045     2.7217    -1.1429 C.3     
  13 C13           -4.7028     2.4331    -1.0301 C.3     
  14 C14           -2.4673     2.0522     0.0187 C.3     
  15 C15           -5.2304     2.9863     0.2953 C.3     
  16 C16           -2.9949     2.6054     1.3440 C.3     
  17 C17           -4.4932     2.3168     1.4568 C.3     
  18 C18           -5.0207     2.8699     2.7822 C.3     
  19 C19            2.0597    10.1687    -0.9299 C.3     
  20 C20            0.9837    10.6245     1.2785 C.3     
  21 C21           -5.4400     3.1026    -2.1917 C.3     
  22 C22           -4.9364     0.9219    -1.0811 C.3     
  23 N23           -1.0327     2.3286    -0.0894 N.pl3   
  24 C24            1.1742    -0.6628    -0.4234 C.ar    
  25 C25            3.6542    -0.6881    -0.6463 C.2     
  26 O26            3.6542    -2.0340    -0.7092 O.3     
  27 O27            4.7022    -0.0769    -0.7113 O.2     
  28 C28            1.1770     2.1172    -0.2926 C.ar    
  29 N29            0.8549     3.4349    -0.2015 N.2     
  30 C30           -0.4429     3.5610    -0.0809 C.2     
  31 N31           -1.1154     4.7606     0.0324 N.pl3   
  32 H32            3.3135     1.9812    -0.4912 H       
  33 H33           -0.9354    -0.5493    -0.2278 H       
  34 H34           -0.6356     9.2324    -0.6445 H       
  35 H35            2.5226     7.1589     1.3357 H       
  36 H36           -1.9013     7.1307    -0.8387 H       
  37 H37            1.2652     5.0518     1.1468 H       
  38 H38            2.7433     9.4202     0.9710 H       
  39 H39           -2.8287     2.3277    -2.0871 H       
  40 H40           -3.0381     3.7983    -1.1066 H       
  41 H41           -2.6337     0.9756    -0.0177 H       
  42 H42           -5.0640     4.0629     0.3316 H       
  43 H43           -6.2978     2.7807     0.3756 H       
  44 H44           -2.4697     2.1284     2.1716 H       
  45 H45           -2.8285     3.6820     1.3804 H       
  46 H46           -4.6596     1.2402     1.4205 H       
  47 H47           -6.0881     2.6643     2.8626 H       
  48 H48           -4.4955     2.3929     3.6097 H       
  49 H49           -4.8543     3.9465     2.8186 H       
  50 H50            2.6372     9.4458    -1.5062 H       
  51 H51            1.1107    10.3583    -1.4314 H       
  52 H52            2.6204    11.0999    -0.8489 H       
  53 H53            0.0347    10.8141     0.7769 H       
  54 H54            0.7946    10.2264     2.2754 H       
  55 H55            1.5443    11.5557     1.3594 H       
  56 H56           -5.0642     2.7086    -3.1359 H       
  57 H57           -6.5074     2.8970    -2.1113 H       
  58 H58           -5.2736     4.1793    -2.1553 H       
  59 H59           -4.4112     0.4450    -0.2536 H       
  60 H60           -6.0038     0.7163    -1.0008 H       
  61 H61           -4.5606     0.5279    -2.0254 H       
  62 H62            1.1797    -1.7416    -0.4747 H       
  63 H63            4.5124    -2.4689    -0.8063 H       
  64 H64           -2.0853     4.7744     0.0365 H       
@<TRIPOS>BOND
   1    1    3 ar
   2    1   28 ar
   3    1   23 1
   4    2    4 ar
   5    2   32 1
   6    2   28 ar
   7    3   24 ar
   8    3   33 1
   9    4   25 1
  10    4   24 ar
  11    5    7 ar
  12    5    6 ar
  13    5   11 1
  14    6    8 ar
  15    6   34 1
  16    7    9 ar
  17    7   35 1
  18    8   10 ar
  19    8   36 1
  20    9   37 1
  21    9   10 ar
  22   10   31 1
  23   11   20 1
  24   11   19 1
  25   11   38 1
  26   12   14 1
  27   12   39 1
  28   12   40 1
  29   12   13 1
  30   13   15 1
  31   13   21 1
  32   13   22 1
  33   14   23 1
  34   14   41 1
  35   14   16 1
  36   15   17 1
  37   15   42 1
  38   15   43 1
  39   16   44 1
  40   16   45 1
  41   16   17 1
  42   17   46 1
  43   17   18 1
  44   18   47 1
  45   18   48 1
  46   18   49 1
  47   19   50 1
  48   19   51 1
  49   19   52 1
  50   20   53 1
  51   20   54 1
  52   20   55 1
  53   21   56 1
  54   21   57 1
  55   21   58 1
  56   22   59 1
  57   22   60 1
  58   22   61 1
  59   23   30 1
  60   24   62 1
  61   25   27 2
  62   25   26 1
  63   26   63 1
  64   28   29 1
  65   29   30 2
  66   30   31 1
  67   31   64 1

#	End of record

