#	Name: ASD10420012
#	Creating user name:	WinNT
#	Creation time:	15. 06. 2019 21:27

#	Modifying user name:	WinNT
#	Modification time:	15. 06. 2019 21:27

#	Program:	/corina/corina34_cracker 3.40 0067  02.08.2006

@<TRIPOS>MOLECULE
ASD10420012
  58   62    0    0    0
SMALL
NO_CHARGES


@<TRIPOS>ATOM
   1 C1            -0.0572     2.2458     0.0216 C.2     
   2 N2             0.3362     0.9348     0.0399 N.pl3   
   3 C3            -0.7868     0.1376     0.0453 C.2     
   4 C4            -1.8951     0.9257     0.0306 C.2     
   5 C5            -1.4656     2.2704     0.0206 C.2     
   6 C6             0.9022     3.2683     0.0131 C.2     
   7 C7             2.2267     2.9423     0.0232 C.2     
   8 C8             2.6045     1.5917     0.0420 C.2     
   9 C9             1.6655     0.6208     0.0499 C.2     
  10 C10           -2.3183     3.4596     0.0042 C.2     
  11 N11           -2.5685     4.0934    -1.1586 N.am    
  12 C12           -3.4227     5.2901    -1.1974 C.3     
  13 C13           -2.6764     6.3965    -1.9505 C.3     
  14 N14           -2.2544     5.8917    -3.2639 N.3     
  15 C15           -1.3047     4.7794    -3.1272 C.3     
  16 C16           -1.9897     3.6103    -2.4214 C.3     
  17 O17           -2.8017     3.8764     1.0411 O.2     
  18 C18           -3.3248     0.4491     0.0302 C.3     
  19 C19           -3.8403     0.4084    -1.3853 C.ar    
  20 C20           -3.8725    -0.7891    -2.0746 C.ar    
  21 C21           -4.2861     1.5678    -1.9917 C.ar    
  22 C22           -4.7594     1.5320    -3.2904 C.ar    
  23 C23           -4.7876     0.3369    -3.9833 C.ar    
  24 C24           -4.3461    -0.8262    -3.3750 C.ar    
  25 F25           -4.3729    -1.9952    -4.0516 F       
  26 C26           -3.3917    -2.0540    -1.4112 C.3     
  27 C27           -0.7874    -1.3398     0.0636 C.ar    
  28 C28           -0.1173    -2.0537    -0.9318 C.ar    
  29 C29           -0.1220    -3.4329    -0.9087 C.ar    
  30 C30           -0.7887    -4.1089     0.0978 C.ar    
  31 C31           -1.4548    -3.4077     1.0874 C.ar    
  32 C32           -1.4533    -2.0282     1.0796 C.ar    
  33 H33            0.5955     4.3037    -0.0017 H       
  34 H34            2.9783     3.7178     0.0165 H       
  35 H35            3.6514     1.3267     0.0501 H       
  36 H36            1.9692    -0.4155     0.0644 H       
  37 H37           -4.3537     5.0588    -1.7148 H       
  38 H38           -3.6375     5.6198    -0.1809 H       
  39 H39           -3.3362     7.2537    -2.0851 H       
  40 H40           -1.7995     6.6985    -1.3779 H       
  41 H41           -3.0513     5.6205    -3.8201 H       
  42 H42           -0.9696     4.4637    -4.1152 H       
  43 H43           -0.4468     5.1039    -2.5382 H       
  44 H44           -1.2592     2.8279    -2.2156 H       
  45 H45           -2.7846     3.2155    -3.0542 H       
  46 H46           -3.3750    -0.5496     0.4640 H       
  47 H47           -3.9358     1.1325     0.6199 H       
  48 H48           -4.2650     2.5022    -1.4507 H       
  49 H49           -5.1074     2.4385    -3.7632 H       
  50 H50           -5.1580     0.3091    -4.9974 H       
  51 H51           -4.2417    -2.5854    -0.9831 H       
  52 H52           -2.9015    -2.6880    -2.1500 H       
  53 H53           -2.6843    -1.8033    -0.6208 H       
  54 H54            0.4031    -1.5273    -1.7182 H       
  55 H55            0.3956    -3.9864    -1.6782 H       
  56 H56           -0.7895    -5.1888     0.1110 H       
  57 H57           -1.9735    -3.9415     1.8699 H       
  58 H58           -1.9733    -1.4821     1.8527 H       
@<TRIPOS>BOND
   1    1    2 1
   2    1    6 1
   3    1    5 2
   4    2    3 1
   5    2    9 1
   6    3    4 2
   7    3   27 1
   8    4    5 1
   9    4   18 1
  10    5   10 1
  11    6    7 2
  12    6   33 1
  13    7    8 1
  14    7   34 1
  15    8    9 2
  16    8   35 1
  17    9   36 1
  18   10   11 am
  19   10   17 2
  20   11   12 1
  21   11   16 1
  22   12   13 1
  23   12   37 1
  24   12   38 1
  25   13   14 1
  26   13   39 1
  27   13   40 1
  28   14   15 1
  29   14   41 1
  30   15   16 1
  31   15   42 1
  32   15   43 1
  33   16   44 1
  34   16   45 1
  35   18   19 1
  36   18   46 1
  37   18   47 1
  38   19   20 ar
  39   19   21 ar
  40   20   26 1
  41   20   24 ar
  42   21   22 ar
  43   21   48 1
  44   22   23 ar
  45   22   49 1
  46   23   24 ar
  47   23   50 1
  48   24   25 1
  49   26   51 1
  50   26   52 1
  51   26   53 1
  52   27   28 ar
  53   27   32 ar
  54   28   29 ar
  55   28   54 1
  56   29   30 ar
  57   29   55 1
  58   30   31 ar
  59   30   56 1
  60   31   32 ar
  61   31   57 1
  62   32   58 1

#	End of record

