#	Name: ASD10420143
#	Creating user name:	WinNT
#	Creation time:	15. 06. 2019 21:27

#	Modifying user name:	WinNT
#	Modification time:	15. 06. 2019 21:27

#	Program:	/corina/corina34_cracker 3.40 0067  02.08.2006

@<TRIPOS>MOLECULE
ASD10420143
  23   24    0    0    0
SMALL
NO_CHARGES


@<TRIPOS>ATOM
   1 C1            -0.0167     1.3790     0.0096 C.ar    
   2 C2             0.0021    -0.0041     0.0020 C.ar    
   3 C3             1.1686     2.0920     0.0021 C.ar    
   4 C4             1.2051    -0.6804    -0.0131 C.ar    
   5 C5             2.3774     1.4261    -0.0134 C.ar    
   6 C6             4.8951     0.0259    -0.0440 C.ar    
   7 C7             3.7219    -2.0822    -0.0432 C.ar    
   8 C8             6.1199    -2.0363    -0.0653 C.ar    
   9 C9             6.0995    -0.6477    -0.0581 C.ar    
  10 C10            4.9291    -2.7507    -0.0574 C.ar    
  11 C11            2.4023     0.0328    -0.0207 C.ar    
  12 C12            3.6986    -0.6887    -0.0364 C.ar    
  13 O13            7.3074    -2.6971    -0.0797 O.3     
  14 Br14           7.7235     0.3210    -0.0684 Br      
  15 Br15           4.9617    -4.6414    -0.0666 Br      
  16 H16           -0.9604     1.9042     0.0169 H       
  17 H17           -0.9264    -0.5557     0.0083 H       
  18 H18            1.1482     3.1718     0.0081 H       
  19 H19            1.2186    -1.7603    -0.0186 H       
  20 H20            3.3023     1.9837    -0.0200 H       
  21 H21            4.8799     1.1058    -0.0343 H       
  22 H22            2.7961    -2.6383    -0.0377 H       
  23 H23            7.6593    -2.8928     0.7994 H       
@<TRIPOS>BOND
   1    1    2 ar
   2    1    3 ar
   3    1   16 1
   4    2    4 ar
   5    2   17 1
   6    3    5 ar
   7    3   18 1
   8    4   11 ar
   9    4   19 1
  10    5   11 ar
  11    5   20 1
  12    6    9 ar
  13    6   12 ar
  14    6   21 1
  15    7   10 ar
  16    7   12 ar
  17    7   22 1
  18    8    9 ar
  19    8   10 ar
  20    8   13 1
  21    9   14 1
  22   10   15 1
  23   11   12 1
  24   13   23 1

#	End of record

