#	Name: ASD10160274
#	Creating user name:	WinNT
#	Creation time:	15. 06. 2019 21:25

#	Modifying user name:	WinNT
#	Modification time:	15. 06. 2019 21:25

#	Program:	/corina/corina34_cracker 3.40 0067  02.08.2006

@<TRIPOS>MOLECULE
ASD10160274
  49   51    0    0    0
SMALL
NO_CHARGES


@<TRIPOS>ATOM
   1 C1             0.3737     1.0984     1.9669 C.2     
   2 C2             0.2906    -0.2791     1.4434 C.ar    
   3 C3             1.3736    -0.8339     0.7560 C.ar    
   4 C4             1.2923    -2.1190     0.2691 C.ar    
   5 C5             0.1345    -2.8649     0.4605 C.ar    
   6 C6            -0.9451    -2.3165     1.1433 C.ar    
   7 C7            -0.8690    -1.0338     1.6387 C.ar    
   8 O8             1.3853     1.7520     1.8004 O.2     
   9 N9            -0.6738     1.6337     2.6247 N.am    
  10 O10            0.0581    -4.1312    -0.0208 O.3     
  11 C11           -3.4650    -6.0779     0.3127 C.ar    
  12 N12           -3.2380    -5.3340    -0.7593 N.ar    
  13 C13           -2.0956    -4.6823    -0.9019 C.ar    
  14 C14           -1.1284    -4.7865     0.0916 C.ar    
  15 C15           -1.4023    -5.5766     1.2025 C.ar    
  16 N16           -2.5667    -6.1998     1.2781 N.ar    
  17 N17           -4.6765    -6.7415     0.4298 N.3     
  18 C18           -4.7373    -7.5091     1.6802 C.3     
  19 C19           -6.1360    -8.1079     1.8452 C.3     
  20 C20           -6.4409    -9.0167     0.6512 C.3     
  21 C21           -6.3235    -8.2044    -0.6415 C.3     
  22 C22           -4.9194    -7.6029    -0.7344 C.3     
  23 S23           -0.5806     3.1792     3.2121 S.o2    
  24 O24           -1.8320     3.3867     3.8526 O.2     
  25 O25            0.6331     3.2006     3.9509 O.2     
  26 C26           -0.4431     4.2185     1.7318 C.3     
  27 C27            2.4593    -2.7180    -0.4726 C.3     
  28 H28            2.2731    -0.2550     0.6066 H       
  29 H29           -1.8428    -2.8988     1.2896 H       
  30 H30           -1.7063    -0.6101     2.1732 H       
  31 H31           -1.4824     1.1136     2.7541 H       
  32 H32           -1.9165    -4.0776    -1.7786 H       
  33 H33           -0.6739    -5.6804     1.9931 H       
  34 H34           -4.0000    -8.3114     1.6500 H       
  35 H35           -4.5227    -6.8503     2.5216 H       
  36 H36           -6.1761    -8.6905     2.7656 H       
  37 H37           -6.8724    -7.3055     1.8893 H       
  38 H38           -5.7282    -9.8410     0.6294 H       
  39 H39           -7.4529    -9.4112     0.7428 H       
  40 H40           -6.4977    -8.8560    -1.4978 H       
  41 H41           -7.0629    -7.4036    -0.6365 H       
  42 H42           -4.8371    -7.0121    -1.6468 H       
  43 H43           -4.1813    -8.4047    -0.7533 H       
  44 H44           -1.3221     4.0743     1.1036 H       
  45 H45           -0.3758     5.2654     2.0278 H       
  46 H46            0.4514     3.9404     1.1744 H       
  47 H47            3.1190    -3.2218     0.2339 H       
  48 H48            2.0936    -3.4378    -1.2050 H       
  49 H49            3.0095    -1.9277    -0.9834 H       
@<TRIPOS>BOND
   1    1    2 1
   2    1    8 2
   3    1    9 am
   4    2    3 ar
   5    2    7 ar
   6    3    4 ar
   7    3   28 1
   8    4    5 ar
   9    4   27 1
  10    5    6 ar
  11    5   10 1
  12    6    7 ar
  13    6   29 1
  14    7   30 1
  15    9   23 am
  16    9   31 1
  17   10   14 1
  18   11   12 ar
  19   11   16 ar
  20   11   17 1
  21   12   13 ar
  22   13   14 ar
  23   13   32 1
  24   14   15 ar
  25   15   16 ar
  26   15   33 1
  27   17   18 1
  28   17   22 1
  29   18   19 1
  30   18   34 1
  31   18   35 1
  32   19   20 1
  33   19   36 1
  34   19   37 1
  35   20   21 1
  36   20   38 1
  37   20   39 1
  38   21   22 1
  39   21   40 1
  40   21   41 1
  41   22   42 1
  42   22   43 1
  43   23   24 2
  44   23   25 2
  45   23   26 1
  46   26   44 1
  47   26   45 1
  48   26   46 1
  49   27   47 1
  50   27   48 1
  51   27   49 1

#	End of record

