#	Name: ASD10160034
#	Creating user name:	WinNT
#	Creation time:	15. 06. 2019 21:25

#	Modifying user name:	WinNT
#	Modification time:	15. 06. 2019 21:25

#	Program:	/corina/corina34_cracker 3.40 0067  02.08.2006

@<TRIPOS>MOLECULE
ASD10160034
  43   45    0    0    0
SMALL
NO_CHARGES


@<TRIPOS>ATOM
   1 C1             0.0724     1.0317    -1.4416 C.ar    
   2 C2             0.0494    -0.1965    -0.7728 C.ar    
   3 C3             1.2889     1.6967    -1.6330 C.ar    
   4 C4             2.4601     1.1379    -1.1611 C.ar    
   5 C5             2.4317    -0.0814    -0.4984 C.ar    
   6 C6             1.2229    -0.7463    -0.3055 C.ar    
   7 C7            -1.1803     1.6210    -1.9489 C.2     
   8 N8            -2.3499     0.9762    -1.7684 N.am    
   9 O9            -1.1581     2.6889    -2.5302 O.2     
  10 S10           -3.7569     1.6381    -2.3381 S.o2    
  11 O11           -4.7623     0.7120    -1.9498 O.2     
  12 O12           -3.7494     2.9660    -1.8324 O.2     
  13 O13            3.5855    -0.6276    -0.0369 O.3     
  14 C14            4.7269     0.1026    -0.1489 C.ar    
  15 C15            5.1017     0.9843     0.8617 C.ar    
  16 C16            5.5344    -0.0257    -1.2673 C.ar    
  17 N17            6.6442     0.6791    -1.3834 N.ar    
  18 C18            7.0288     1.5290    -0.4470 C.ar    
  19 C19            6.2720     1.7069     0.7054 C.ar    
  20 Cl20           6.7849     2.8253     1.9300 Cl      
  21 C21            8.9149     2.0021    -1.8131 C.3     
  22 O22            8.1786     2.2325    -0.6103 O.3     
  23 F23            1.2014    -1.9327     0.3402 F       
  24 F24            1.3173     2.8830    -2.2788 F       
  25 C25            9.7115     3.2272    -2.2921 C.3     
  26 C26           10.8429     2.2512    -2.6555 C.3     
  27 C27           10.2688     1.3099    -1.5835 C.3     
  28 C28           -3.5575     1.6424    -4.1411 C.3     
  29 H29           -0.8871    -0.7129    -0.6226 H       
  30 H30            3.3995     1.6500    -1.3082 H       
  31 H31           -2.3676     0.1243    -1.3047 H       
  32 H32            4.4935     1.1019     1.7464 H       
  33 H33            5.2526    -0.7108    -2.0532 H       
  34 H34            8.3134     1.5392    -2.5955 H       
  35 H35            9.2699     3.7248    -3.1555 H       
  36 H36            9.9720     3.9190    -1.4911 H       
  37 H37           10.7697     1.8555    -3.6685 H       
  38 H38           11.8377     2.6281    -2.4181 H       
  39 H39           10.6817     1.4775    -0.5888 H       
  40 H40           10.2771     0.2596    -1.8749 H       
  41 H41           -3.4166     0.6206    -4.4935 H       
  42 H42           -4.4483     2.0668    -4.6042 H       
  43 H43           -2.6878     2.2424    -4.4091 H       
@<TRIPOS>BOND
   1    1    2 ar
   2    1    3 ar
   3    1    7 1
   4    2    6 ar
   5    2   29 1
   6    3    4 ar
   7    3   24 1
   8    4    5 ar
   9    4   30 1
  10    5    6 ar
  11    5   13 1
  12    6   23 1
  13    7    8 am
  14    7    9 2
  15    8   10 am
  16    8   31 1
  17   10   11 2
  18   10   12 2
  19   10   28 1
  20   13   14 1
  21   14   15 ar
  22   14   16 ar
  23   15   19 ar
  24   15   32 1
  25   16   17 ar
  26   16   33 1
  27   17   18 ar
  28   18   19 ar
  29   18   22 1
  30   19   20 1
  31   21   25 1
  32   21   22 1
  33   21   27 1
  34   21   34 1
  35   25   26 1
  36   25   35 1
  37   25   36 1
  38   26   27 1
  39   26   37 1
  40   26   38 1
  41   27   39 1
  42   27   40 1
  43   28   41 1
  44   28   42 1
  45   28   43 1

#	End of record

