#	Name: ASD10420181
#	Creating user name:	WinNT
#	Creation time:	15. 06. 2019 21:27

#	Modifying user name:	WinNT
#	Modification time:	15. 06. 2019 21:27

#	Program:	/corina/corina34_cracker 3.40 0067  02.08.2006

@<TRIPOS>MOLECULE
ASD10420181
  35   36    0    0    0
SMALL
NO_CHARGES


@<TRIPOS>ATOM
   1 C1            -0.3431     1.4155    -0.1894 C.3     
   2 C2            -3.7015    -2.1989     0.1414 C.ar    
   3 C3             0.7103    -2.5715     3.5282 C.ar    
   4 C4            -2.4823    -2.8496     0.1101 C.ar    
   5 C5             0.0366    -2.3949     2.3355 C.ar    
   6 C6            -2.5869    -0.0828    -0.0094 C.ar    
   7 C7             2.4145    -3.8117     2.3878 C.ar    
   8 C8            -5.0856    -0.1144     0.1164 C.3     
   9 C9            -3.7537    -0.8186     0.0818 C.ar    
  10 C10            1.8982    -3.2792     3.5545 C.ar    
  11 C11           -1.3613    -0.7286    -0.0412 C.ar    
  12 C12           -1.3087    -2.1181     0.0188 C.ar    
  13 C13            0.5526    -2.9284     1.1629 C.ar    
  14 C14            1.7445    -3.6379     1.1921 C.ar    
  15 N15            2.6182    -3.4668     4.8342 N.pl3   
  16 N16            2.2981    -4.2079    -0.0568 N.pl3   
  17 O17            2.1643    -2.9981     5.8627 O.2     
  18 O18            3.3447    -4.8304    -0.0306 O.2     
  19 O19           -5.4397     0.1687     1.4716 O.3     
  20 O20            3.6644    -4.0899     4.8586 O.2     
  21 O21            1.7070    -4.0545    -1.1107 O.2     
  22 O22           -0.2126    -0.0064    -0.1314 O.3     
  23 O23           -0.1085    -2.7565    -0.0117 O.3     
  24 H24            0.6458     1.8685    -0.2593 H       
  25 H25           -0.9317     1.6909    -1.0645 H       
  26 H26           -0.8430     1.7715     0.7114 H       
  27 H27           -4.6156    -2.7702     0.2081 H       
  28 H28            0.3115    -2.1527     4.4403 H       
  29 H29           -2.4443    -3.9279     0.1572 H       
  30 H30           -0.8912    -1.8424     2.3156 H       
  31 H31           -2.6305     0.9953    -0.0565 H       
  32 H32            3.3427    -4.3633     2.4110 H       
  33 H33           -5.0183     0.8181    -0.4440 H       
  34 H34           -5.8462    -0.7536    -0.3319 H       
  35 H35           -6.2879     0.6226     1.5699 H       
@<TRIPOS>BOND
   1    1   22 1
   2    1   24 1
   3    1   25 1
   4    1   26 1
   5    2    4 ar
   6    2    9 ar
   7    2   27 1
   8    3    5 ar
   9    3   10 ar
  10    3   28 1
  11    4   12 ar
  12    4   29 1
  13    5   13 ar
  14    5   30 1
  15    6    9 ar
  16    6   11 ar
  17    6   31 1
  18    7   10 ar
  19    7   14 ar
  20    7   32 1
  21    8    9 1
  22    8   19 1
  23    8   33 1
  24    8   34 1
  25   10   15 1
  26   11   12 ar
  27   11   22 1
  28   12   23 1
  29   13   14 ar
  30   13   23 1
  31   14   16 1
  32   15   17 2
  33   15   20 2
  34   16   18 2
  35   16   21 2
  36   19   35 1

#	End of record

