#	Name: ASD13050001
#	Creating user name:	WinNT
#	Creation time:	15. 06. 2019 21:30

#	Modifying user name:	WinNT
#	Modification time:	15. 06. 2019 21:30

#	Program:	/corina/corina34_cracker 3.40 0067  02.08.2006

@<TRIPOS>MOLECULE
ASD13050001
  43   45    0    0    0
SMALL
NO_CHARGES


@<TRIPOS>ATOM
   1 P1            -0.0180     1.4758     0.0102 P.3     
   2 O2             0.0021    -0.0041     0.0020 O.2     
   3 O3             1.4924     2.0330    -0.0013 O.3     
   4 O4            -0.7967     2.0091    -1.2942 O.3     
   5 O5            -0.7716     1.9950     1.3348 O.3     
   6 P6            -2.0773     1.5092     2.1417 P.3     
   7 O7            -3.1301     1.1090     1.1816 O.2     
   8 O8            -1.6956     0.2531     3.0739 O.3     
   9 O9            -2.6194     2.7146     3.0611 O.3     
  10 C10           -3.8270     2.6317     3.8206 C.3     
  11 C11           -4.0455     3.9443     4.5759 C.3     
  12 O12           -4.2955     5.0091     3.6432 O.3     
  13 C13           -5.2870     3.8274     5.4813 C.3     
  14 O14           -4.9286     4.0286     6.8499 O.3     
  15 C15           -6.2206     4.9618     4.9932 C.3     
  16 O16           -6.8458     5.6183     6.0978 O.3     
  17 C17           -5.2291     5.9117     4.2743 C.3     
  18 N18           -5.9250     6.7195     3.2696 N.pl3   
  19 C19           -6.1067     6.3939     1.9567 C.2     
  20 N20           -6.7674     7.3396     1.3553 N.2     
  21 C21           -7.0482     8.3250     2.2425 C.2     
  22 C22           -7.7252     9.5641     2.1570 C.2     
  23 O23           -8.2081     9.9407     1.1028 O.2     
  24 N24           -7.8238    10.3198     3.2730 N.am    
  25 C25           -7.2806     9.8887     4.4465 C.2     
  26 N26           -7.3966    10.6770     5.5637 N.pl3   
  27 N27           -6.6492     8.7397     4.5389 N.2     
  28 C28           -6.5169     7.9358     3.4774 C.2     
  29 H29            2.0070     1.7589    -0.7727 H       
  30 H30           -0.8486     2.9728    -1.3546 H       
  31 H31           -1.0099     0.4433     3.7286 H       
  32 H32           -4.6671     2.4547     3.1491 H       
  33 H33           -3.7522     1.8105     4.5334 H       
  34 H34           -3.1663     4.1767     5.1768 H       
  35 H35           -5.7637     2.8558     5.3515 H       
  36 H36           -5.6725     3.9660     7.4645 H       
  37 H37           -6.9671     4.5788     4.2974 H       
  38 H38           -7.4068     5.0402     6.6328 H       
  39 H39           -4.7182     6.5502     4.9950 H       
  40 H40           -5.7548     5.4871     1.4874 H       
  41 H41           -8.2832    11.1734     3.2388 H       
  42 H42           -7.8600    11.5275     5.5112 H       
  43 H43           -7.0152    10.3837     6.4060 H       
@<TRIPOS>BOND
   1    1    2 2
   2    1    3 1
   3    1    4 1
   4    1    5 1
   5    3   29 1
   6    4   30 1
   7    5    6 1
   8    6    7 2
   9    6    8 1
  10    6    9 1
  11    8   31 1
  12    9   10 1
  13   10   11 1
  14   10   32 1
  15   10   33 1
  16   11   12 1
  17   11   13 1
  18   11   34 1
  19   12   17 1
  20   13   14 1
  21   13   15 1
  22   13   35 1
  23   14   36 1
  24   15   16 1
  25   15   17 1
  26   15   37 1
  27   16   38 1
  28   17   18 1
  29   17   39 1
  30   18   19 1
  31   18   28 1
  32   19   20 2
  33   19   40 1
  34   20   21 1
  35   21   22 1
  36   21   28 2
  37   22   23 2
  38   22   24 am
  39   24   25 1
  40   24   41 1
  41   25   26 1
  42   25   27 2
  43   26   42 1
  44   26   43 1
  45   27   28 1

#	End of record

