#	Name: ASD10410184
#	Creating user name:	WinNT
#	Creation time:	15. 06. 2019 21:27

#	Modifying user name:	WinNT
#	Modification time:	15. 06. 2019 21:27

#	Program:	/corina/corina34_cracker 3.40 0067  02.08.2006

@<TRIPOS>MOLECULE
ASD10410184
  57   61    0    0    0
SMALL
NO_CHARGES


@<TRIPOS>ATOM
   1 C1            -0.0183     1.3925    -0.0813 C.ar    
   2 C2            -0.0058     0.0095     0.0247 C.ar    
   3 C3             1.2006    -0.6690     0.1161 C.ar    
   4 C4             2.3904     0.0319     0.1016 C.ar    
   5 C5             2.3788     1.4166    -0.0050 C.ar    
   6 C6             1.1705     2.0951    -0.0964 C.ar    
   7 O7            -1.1769    -0.6816     0.0395 O.3     
   8 N8             3.5843     2.1280    -0.0193 N.pl3   
   9 C9             3.6716     3.3384    -0.7068 C.2     
  10 N10            4.7098     4.1399    -0.7085 N.2     
  11 N11            2.7118     3.8662    -1.4756 N.2     
  12 C12            3.1232     5.0127    -1.9733 C.2     
  13 N13            4.3798     5.2362    -1.5215 N.pl3   
  14 C14            5.1865     6.3376    -1.8066 C.ar    
  15 N15            2.4013     5.8409    -2.8114 N.pl3   
  16 C16            6.4740     6.4375    -1.2662 C.ar    
  17 C17           -1.0898    -2.1036     0.1509 C.3     
  18 C18           -2.4977    -2.7023     0.1510 C.3     
  19 N19           -3.1361    -2.4527    -1.1483 N.3     
  20 C20           -4.3928    -3.2134    -1.2745 C.3     
  21 C21           -5.5159    -2.1959    -1.5656 C.3     
  22 C22           -4.7456    -0.9830    -2.1507 C.3     
  23 C23           -3.4360    -1.0157    -1.3239 C.3     
  24 N24            4.7501     7.3079    -2.5994 N.ar    
  25 N25            5.4629     8.3356    -2.8844 N.ar    
  26 C26            6.6865     8.5146    -2.4153 C.ar    
  27 C27            7.2402     7.5624    -1.5850 C.ar    
  28 C28            8.6238     7.7026    -1.0184 C.3     
  29 C29            8.6761     7.0885     0.3798 C.3     
  30 C30            8.0803     5.7088     0.3851 C.2     
  31 C31            7.0409     5.4061    -0.3813 C.2     
  32 H32           -0.9579     1.9196    -0.1565 H       
  33 H33            1.2094    -1.7458     0.1989 H       
  34 H34            3.3295    -0.4965     0.1734 H       
  35 H35            1.1606     3.1718    -0.1796 H       
  36 H36            4.3589     1.7791     0.4489 H       
  37 H37            1.5037     5.5930    -3.0829 H       
  38 H38            2.7921     6.6703    -3.1281 H       
  39 H39           -0.5263    -2.5003    -0.6936 H       
  40 H40           -0.5838    -2.3649     1.0803 H       
  41 H41           -2.4357    -3.7766     0.3249 H       
  42 H42           -3.0892    -2.2399     0.9412 H       
  43 H43           -4.3147    -3.9248    -2.0966 H       
  44 H44           -4.6022    -3.7406    -0.3437 H       
  45 H45           -6.2181    -2.5958    -2.2971 H       
  46 H46           -6.0318    -1.9179    -0.6465 H       
  47 H47           -4.5411    -1.1254    -3.2118 H       
  48 H48           -5.2915    -0.0550    -1.9809 H       
  49 H49           -3.5866    -0.5384    -0.3556 H       
  50 H50           -2.6306    -0.5238    -1.8692 H       
  51 H51            7.2491     9.3966    -2.6837 H       
  52 H52            9.3343     7.1893    -1.6662 H       
  53 H53            8.8860     8.7590    -0.9601 H       
  54 H54            9.7142     7.0313     0.7070 H       
  55 H55            8.1185     7.7218     1.0700 H       
  56 H56            8.5042     4.9511     1.0273 H       
  57 H57            6.6165     4.4132    -0.3587 H       
@<TRIPOS>BOND
   1    1    2 ar
   2    1    6 ar
   3    1   32 1
   4    2    3 ar
   5    2    7 1
   6    3    4 ar
   7    3   33 1
   8    4    5 ar
   9    4   34 1
  10    5    6 ar
  11    5    8 1
  12    6   35 1
  13    7   17 1
  14    8    9 1
  15    8   36 1
  16    9   10 2
  17    9   11 1
  18   10   13 1
  19   11   12 2
  20   12   13 1
  21   12   15 1
  22   13   14 1
  23   14   16 ar
  24   14   24 ar
  25   15   37 1
  26   15   38 1
  27   16   27 ar
  28   16   31 1
  29   17   18 1
  30   17   39 1
  31   17   40 1
  32   18   19 1
  33   18   41 1
  34   18   42 1
  35   19   20 1
  36   19   23 1
  37   20   21 1
  38   20   43 1
  39   20   44 1
  40   21   22 1
  41   21   45 1
  42   21   46 1
  43   22   23 1
  44   22   47 1
  45   22   48 1
  46   23   49 1
  47   23   50 1
  48   24   25 ar
  49   25   26 ar
  50   26   27 ar
  51   26   51 1
  52   27   28 1
  53   28   29 1
  54   28   52 1
  55   28   53 1
  56   29   30 1
  57   29   54 1
  58   29   55 1
  59   30   31 2
  60   30   56 1
  61   31   57 1

#	End of record

