#	Name: ASD14880003
#	Creating user name:	WinNT
#	Creation time:	15. 06. 2019 21:31

#	Modifying user name:	WinNT
#	Modification time:	15. 06. 2019 21:31

#	Program:	/corina/corina34_cracker 3.40 0067  02.08.2006

@<TRIPOS>MOLECULE
ASD14880003
  39   41    0    0    0
SMALL
NO_CHARGES


@<TRIPOS>ATOM
   1 C1            -0.0170     1.4003     0.0097 C.ar    
   2 C2             0.0021    -0.0041     0.0020 C.ar    
   3 C3             1.1936    -0.6632    -0.0128 C.ar    
   4 C4             2.3980     0.0354    -0.0205 C.ar    
   5 C5             2.4193     1.4009    -0.0130 C.ar    
   6 C6             1.2042     2.1176     0.0019 C.ar    
   7 N7             1.1913     3.4534     0.0082 N.ar    
   8 C8             0.0651     4.1241     0.0216 C.ar    
   9 C9            -1.1709     3.4810     0.0305 C.ar    
  10 C10           -1.2289     2.1165     0.0193 C.ar    
  11 C11           -1.2908    -0.7783     0.0106 C.3     
  12 N12           -1.8464    -0.8161    -1.3444 N.pl3   
  13 C13           -3.0497    -1.4823    -1.5874 C.ar    
  14 C14           -5.4341    -2.8012    -2.0687 C.ar    
  15 C15           -4.9137    -2.7619    -0.7879 C.ar    
  16 C16           -3.7240    -2.1047    -0.5442 C.ar    
  17 C17           -3.5779    -1.5191    -2.8715 C.ar    
  18 C18           -4.7684    -2.1784    -3.1082 C.ar    
  19 C19           -5.3390    -2.2242    -4.5023 C.3     
  20 C20           -2.8532    -0.8402    -4.0050 C.3     
  21 O21            3.6041     2.0655    -0.0206 O.3     
  22 H22            1.2045    -1.7431    -0.0184 H       
  23 H23            3.3296    -0.5109    -0.0323 H       
  24 H24            0.0961     5.2037     0.0263 H       
  25 H25           -2.0820     4.0608     0.0419 H       
  26 H26           -2.1781     1.6013     0.0210 H       
  27 H27           -1.1029    -1.7953     0.3548 H       
  28 H28           -2.0004    -0.2932     0.6809 H       
  29 H29           -1.3786    -0.3786    -2.0728 H       
  30 H30           -6.3646    -3.3163    -2.2567 H       
  31 H31           -5.4364    -3.2492     0.0219 H       
  32 H32           -3.3180    -2.0747     0.4561 H       
  33 H33           -5.9979    -1.3692    -4.6534 H       
  34 H34           -4.5269    -2.1900    -5.2286 H       
  35 H35           -5.9048    -3.1466    -4.6331 H       
  36 H36           -2.1603    -1.5438    -4.4665 H       
  37 H37           -3.5759    -0.5019    -4.7475 H       
  38 H38           -2.2991     0.0163    -3.6208 H       
  39 H39            3.9386     2.2629    -0.9062 H       
@<TRIPOS>BOND
   1    1    2 ar
   2    1    6 ar
   3    1   10 ar
   4    2    3 ar
   5    2   11 1
   6    3    4 ar
   7    3   22 1
   8    4    5 ar
   9    4   23 1
  10    5    6 ar
  11    5   21 1
  12    6    7 ar
  13    7    8 ar
  14    8    9 ar
  15    8   24 1
  16    9   10 ar
  17    9   25 1
  18   10   26 1
  19   11   12 1
  20   11   27 1
  21   11   28 1
  22   12   13 1
  23   12   29 1
  24   13   17 ar
  25   13   16 ar
  26   14   15 ar
  27   14   18 ar
  28   14   30 1
  29   15   16 ar
  30   15   31 1
  31   16   32 1
  32   17   18 ar
  33   17   20 1
  34   18   19 1
  35   19   33 1
  36   19   34 1
  37   19   35 1
  38   20   36 1
  39   20   37 1
  40   20   38 1
  41   21   39 1

#	End of record

