#	Name: ASD13860001
#	Creating user name:	WinNT
#	Creation time:	15. 06. 2019 21:30

#	Modifying user name:	WinNT
#	Modification time:	15. 06. 2019 21:30

#	Program:	/corina/corina34_cracker 3.40 0067  02.08.2006

@<TRIPOS>MOLECULE
ASD13860001
  19   20    0    0    0
SMALL
NO_CHARGES


@<TRIPOS>ATOM
   1 C1            -0.0167     1.3768     0.0096 C.ar    
   2 C2             0.0021    -0.0041     0.0020 C.ar    
   3 C3             1.2080    -0.6807    -0.0131 C.ar    
   4 C4             2.3989     0.0223    -0.0203 C.ar    
   5 C5             2.3874     1.4033    -0.0127 C.ar    
   6 C6             1.1777     2.0861     0.0020 C.ar    
   7 N7             1.1624     3.4842     0.0092 N.am    
   8 S8            -0.0776     4.4772     0.6021 S.3     
   9 C9             0.6940     5.9688     0.2342 C.2     
  10 C10            1.8784     5.6514    -0.3319 C.2     
  11 C11            2.1276     4.2952    -0.4459 C.2     
  12 O12            3.1611     3.8639    -0.9339 O.2     
  13 H13           -0.9588     1.9046     0.0169 H       
  14 H14           -0.9261    -0.5561     0.0083 H       
  15 H15            1.2199    -1.7606    -0.0190 H       
  16 H16            3.3390    -0.5092    -0.0314 H       
  17 H17            3.3177     1.9517    -0.0180 H       
  18 H18            0.3088     6.9608     0.4187 H       
  19 H19            2.5804     6.4004    -0.6672 H       
@<TRIPOS>BOND
   1    1    2 ar
   2    1    6 ar
   3    1   13 1
   4    2    3 ar
   5    2   14 1
   6    3    4 ar
   7    3   15 1
   8    4    5 ar
   9    4   16 1
  10    5    6 ar
  11    5   17 1
  12    6    7 1
  13    7    8 1
  14    7   11 am
  15    8    9 1
  16    9   10 2
  17    9   18 1
  18   10   11 1
  19   10   19 1
  20   11   12 2

#	End of record

