#	Name: ASD15280016
#	Creating user name:	WinNT
#	Creation time:	15. 06. 2019 21:31

#	Modifying user name:	WinNT
#	Modification time:	15. 06. 2019 21:31

#	Program:	/corina/corina34_cracker 3.40 0067  02.08.2006

@<TRIPOS>MOLECULE
ASD15280016
  50   54    0    0    0
SMALL
NO_CHARGES


@<TRIPOS>ATOM
   1 O1             0.0021    -0.0041     0.0020 O.2     
   2 C2            -0.0144     1.2113     0.0087 C.2     
   3 N3             1.1435     1.9010     0.0013 N.am    
   4 C4             2.4220     1.1859    -0.0147 C.3     
   5 C5             3.5540     2.1806    -0.0202 C.2     
   6 C6             4.1567     2.6883     1.0602 C.2     
   7 N7             5.1250     3.5439     0.8265 N.2     
   8 C8             5.3950     3.8065    -0.4200 C.2     
   9 S9             4.3169     2.8699    -1.4517 S.3     
  10 C10            6.4422     4.7369    -0.8936 C.ar    
  11 C11            6.6326     4.9403    -2.2610 C.ar    
  12 C12            7.6114     5.8097    -2.6963 C.ar    
  13 C13            8.4036     6.4788    -1.7805 C.ar    
  14 C14            8.2200     6.2816    -0.4234 C.ar    
  15 C15            7.2405     5.4196     0.0251 C.ar    
  16 C16           -1.3048     1.9331     0.0187 C.ar    
  17 C17           -1.3247     3.3288     0.0207 C.ar    
  18 C18           -2.5338     3.9938     0.0241 C.ar    
  19 C19           -3.7203     3.2857     0.0311 C.ar    
  20 C20           -3.7195     1.8972     0.0390 C.ar    
  21 N21           -4.8900     1.1617     0.0714 N.am    
  22 C22           -6.0033     1.2808    -0.6003 C.2     
  23 O23           -6.8487     0.4427    -0.3537 O.2     
  24 C24           -6.3849     2.2740    -1.6061 C.ar    
  25 C25           -7.0472     1.8631    -2.7694 C.ar    
  26 C26           -7.4172     2.7905    -3.7191 C.ar    
  27 C27           -7.1380     4.1325    -3.5321 C.ar    
  28 C28           -6.4811     4.5498    -2.3870 C.ar    
  29 C29           -6.1052     3.6307    -1.4332 C.ar    
  30 S30           -5.2550     4.1580     0.0195 S.o2    
  31 O31           -6.0044     3.6735     1.1254 O.2     
  32 O32           -4.9393     5.5302    -0.1716 O.2     
  33 C33           -2.5015     1.2215     0.0206 C.ar    
  34 H34            1.1303     2.8709     0.0067 H       
  35 H35            2.4967     0.5553     0.8712 H       
  36 H36            2.4797     0.5648    -0.9086 H       
  37 H37            3.8650     2.4120     2.0627 H       
  38 H38            6.0153     4.4180    -2.9769 H       
  39 H39            7.7598     5.9680    -3.7543 H       
  40 H40            9.1690     7.1578    -2.1264 H       
  41 H41            8.8420     6.8066     0.2864 H       
  42 H42            7.0952     5.2699     1.0847 H       
  43 H43           -0.3990     3.8851     0.0198 H       
  44 H44           -2.5529     5.0737     0.0216 H       
  45 H45           -4.8826     0.4273     0.7050 H       
  46 H46           -7.2688     0.8172    -2.9225 H       
  47 H47           -7.9276     2.4679    -4.6145 H       
  48 H48           -7.4321     4.8545    -4.2794 H       
  49 H49           -6.2633     5.5976    -2.2417 H       
  50 H50           -2.4853     0.1417     0.0118 H       
@<TRIPOS>BOND
   1    1    2 2
   2    2    3 am
   3    2   16 1
   4    3    4 1
   5    3   34 1
   6    4    5 1
   7    4   35 1
   8    4   36 1
   9    5    9 1
  10    5    6 2
  11    6    7 1
  12    6   37 1
  13    7    8 2
  14    8    9 1
  15    8   10 1
  16   10   15 ar
  17   10   11 ar
  18   11   12 ar
  19   11   38 1
  20   12   13 ar
  21   12   39 1
  22   13   14 ar
  23   13   40 1
  24   14   15 ar
  25   14   41 1
  26   15   42 1
  27   16   33 ar
  28   16   17 ar
  29   17   18 ar
  30   17   43 1
  31   18   19 ar
  32   18   44 1
  33   19   30 1
  34   19   20 ar
  35   20   21 1
  36   20   33 ar
  37   21   22 am
  38   21   45 1
  39   22   23 2
  40   22   24 1
  41   24   29 ar
  42   24   25 ar
  43   25   26 ar
  44   25   46 1
  45   26   27 ar
  46   26   47 1
  47   27   28 ar
  48   27   48 1
  49   28   29 ar
  50   28   49 1
  51   29   30 1
  52   30   31 2
  53   30   32 2
  54   33   50 1

#	End of record

