#	Name: ASD12310004
#	Creating user name:	WinNT
#	Creation time:	15. 06. 2019 21:30

#	Modifying user name:	WinNT
#	Modification time:	15. 06. 2019 21:30

#	Program:	/corina/corina34_cracker 3.40 0067  02.08.2006

@<TRIPOS>MOLECULE
ASD12310004
 154  158    0    0    0
SMALL
NO_CHARGES


@<TRIPOS>ATOM
   1 C1             0.0719     1.0487     0.2318 C.2     
   2 N2             0.9947     3.2544     0.6248 N.am    
   3 O3             0.1088    -0.2835     0.1091 O.3     
   4 S4            -1.0207     7.9755    -6.3433 S.3     
   5 C5             1.3427     1.8483     0.3689 C.3     
   6 O6            -0.9893     1.6225     0.2384 O.2     
   7 C7             2.1440     1.3016     1.5584 C.3     
   8 O8             0.0949     3.4312    -1.3827 O.2     
   9 C9             3.2963     2.2483     1.8806 C.3     
  10 O10           -1.3022     5.6039     0.0428 O.3     
  11 C11            2.8006     3.6408     2.2408 C.3     
  12 O12           -0.5635     6.3677    -2.3220 O.3     
  13 C13            1.3169     3.8220     1.9377 C.3     
  14 O14            1.5571     5.4705    -2.0792 O.3     
  15 C15            0.4006     3.9778    -0.3375 C.2     
  16 C16            0.1031     5.4454    -0.1703 C.3     
  17 O17           -5.8845    -3.2260    -7.0498 O.2     
  18 C18            0.5222     6.2254    -1.4134 C.3     
  19 O19           -5.1126    -1.5867    -4.3824 O.3     
  20 C20            1.1187     7.5797    -1.0406 C.3     
  21 O21           -6.2996    -5.0266    -4.5716 O.3     
  22 C22            1.0901     8.5032    -2.2578 C.3     
  23 O23           -3.2799    -1.9994    -1.2922 O.2     
  24 C24           -0.3442     8.7662    -2.7050 C.3     
  25 O25           -2.4685    -2.6091     5.7044 O.3     
  26 C26           -1.2585     7.5957    -2.3513 C.3     
  27 O27           -1.9795    -0.9021     7.9012 O.3     
  28 C28           -2.4443     7.5767    -3.3163 C.3     
  29 C29           -2.3940     6.4237    -4.3087 C.3     
  30 C30           -3.6766     6.3834    -5.1110 C.2     
  31 C31           -3.9434     5.3676    -5.8974 C.2     
  32 C32           -5.2234     5.3452    -6.6958 C.3     
  33 C33           -5.2023     4.1767    -7.6848 C.3     
  34 C34           -6.4190     3.3028    -7.4662 C.2     
  35 C35           -6.2528     2.0572    -7.1065 C.2     
  36 C36           -7.4092     1.1255    -6.8524 C.3     
  37 C37           -6.9016    -0.0629    -6.0303 C.3     
  38 C38           -7.3043    -1.3851    -6.6762 C.3     
  39 C39           -6.3612    -2.4756    -6.2296 C.2     
  40 C40           -6.0062    -2.6331    -4.7739 C.3     
  41 C41           -5.3266    -3.9847    -4.5521 C.3     
  42 C42           -4.6286    -3.9816    -3.2042 C.2     
  43 C43           -3.3307    -4.0687    -3.1979 C.2     
  44 C44           -2.4054    -4.0679    -2.0271 C.3     
  45 C45           -2.3103    -2.7098    -1.3870 C.2     
  46 C46           -0.9746    -2.2285    -0.8726 C.3     
  47 C47           -1.1601    -0.9827    -0.0090 C.3     
  48 C48           -1.6329    -1.4008     1.3851 C.3     
  49 C49           -1.8099    -0.1568     2.2580 C.3     
  50 C50           -2.1630    -0.5811     3.6850 C.3     
  51 C51           -0.9766    -1.3220     4.3050 C.3     
  52 C52           -1.3297    -1.7463     5.7320 C.3     
  53 C53           -1.6498    -0.5058     6.5684 C.3     
  54 C54           -2.8361     0.2351     5.9484 C.3     
  55 C55           -2.4831     0.6594     4.5214 C.3     
  56 C56            0.4103     8.2437     0.1339 C.3     
  57 C57           -4.6617     7.5225    -5.0091 C.3     
  58 C58           -8.4988     1.8529    -6.0589 C.3     
  59 C59           -8.7310    -1.7585    -6.2659 C.3     
  60 C60           -5.4788    -3.8834    -1.9665 C.3     
  61 C61           -2.7528    -5.1348    -0.9940 C.3     
  62 C62           -2.9687    -2.1380     1.2709 C.3     
  63 C63           -1.2368     6.6062    -5.2607 C.2     
  64 C64           -5.5368    -0.8625    -3.2259 C.3     
  65 C65           -2.4963    -3.5689     6.7628 C.3     
  66 C66            0.4804     7.2930    -6.9552 C.2     
  67 C67            0.7259     6.1327    -6.3447 C.2     
  68 C68           -0.2217     5.7538    -5.4096 C.2     
  69 C69            1.3551     7.9226    -8.0086 C.3     
  70 H70            1.9361     1.7707    -0.5365 H       
  71 H71            1.4901     1.2156     2.4274 H       
  72 H72            2.5415     0.3174     1.3090 H       
  73 H73            3.8581     1.8477     2.7245 H       
  74 H74            3.9553     2.3180     1.0169 H       
  75 H75           -1.6353     5.1458     0.8266 H       
  76 H76            2.9647     3.8116     3.3027 H       
  77 H77            3.3672     4.3740     1.6701 H       
  78 H78            1.0724     4.8749     1.9804 H       
  79 H79            0.7386     3.2951     2.7015 H       
  80 H80            1.8918     5.8877    -2.8849 H       
  81 H81            0.6472     5.8115     0.6954 H       
  82 H82            2.1740     7.4249    -0.7613 H       
  83 H83           -5.9319    -5.9106    -4.4363 H       
  84 H84            1.5699     9.4520    -2.0003 H       
  85 H85            1.6498     8.0420    -3.0753 H       
  86 H86           -0.7184     9.6765    -2.2259 H       
  87 H87           -0.3614     8.9263    -3.7885 H       
  88 H88           -1.6813     7.7835    -1.3489 H       
  89 H89           -2.1943    -0.1649     8.4890 H       
  90 H90           -3.3530     7.4987    -2.7147 H       
  91 H91           -2.4546     8.5259    -3.8534 H       
  92 H92           -2.2771     5.4808    -3.7753 H       
  93 H93           -3.2522     4.5434    -5.9723 H       
  94 H94           -6.0753     5.2323    -6.0279 H       
  95 H95           -5.3217     6.2718    -7.2641 H       
  96 H96           -5.2233     4.5662    -8.7023 H       
  97 H97           -4.3008     3.5870    -7.5394 H       
  98 H98           -7.4017     3.7208    -7.6221 H       
  99 H99           -5.2395     1.6784    -6.9929 H       
 100 H100          -7.8148     0.7746    -7.7990 H       
 101 H101          -5.8096    -0.0092    -5.9771 H       
 102 H102          -7.3105    -0.0079    -5.0220 H       
 103 H103          -7.2561    -1.2958    -7.7621 H       
 104 H104          -6.9122    -2.5801    -4.1701 H       
 105 H105          -4.5842    -4.1545    -5.3298 H       
 106 H106          -2.8622    -4.1592    -4.1949 H       
 107 H107          -1.3889    -4.3087    -2.4088 H       
 108 H108          -0.5099    -3.0150    -0.2776 H       
 109 H109          -0.3289    -1.9886    -1.7187 H       
 110 H110          -1.8996    -0.3283    -0.4644 H       
 111 H111          -0.8918    -2.0597     1.8376 H       
 112 H112          -0.8821     0.4151     2.2680 H       
 113 H113          -2.6124     0.4599     1.8532 H       
 114 H114          -3.0316    -1.2392     3.6639 H       
 115 H115          -0.7486    -2.2058     3.7091 H       
 116 H116          -0.1080    -0.6639     4.3260 H       
 117 H117          -0.4845    -2.2742     6.1737 H       
 118 H118          -0.7812     0.1523     6.5894 H       
 119 H119          -3.7048    -0.4230     5.9274 H       
 120 H120          -3.0642     1.1189     6.5443 H       
 121 H121          -1.6145     1.3175     4.5424 H       
 122 H122          -3.3283     1.1873     4.0797 H       
 123 H123           0.4799     7.6002     1.0110 H       
 124 H124           0.8826     9.2024     0.3482 H       
 125 H125          -0.6382     8.4033    -0.1173 H       
 126 H126          -4.4271     8.2743    -5.7627 H       
 127 H127          -5.6712     7.1457    -5.1737 H       
 128 H128          -4.5982     7.9701    -4.0173 H       
 129 H129          -8.8490     2.7141    -6.6279 H       
 130 H130          -9.3319     1.1734    -5.8787 H       
 131 H131          -8.0911     2.1886    -5.1055 H       
 132 H132          -9.4187    -0.9777    -6.5910 H       
 133 H133          -9.0077    -2.7038    -6.7328 H       
 134 H134          -8.7827    -1.8598    -5.1819 H       
 135 H135          -5.7496    -4.8846    -1.6313 H       
 136 H136          -4.9192    -3.3761    -1.1806 H       
 137 H137          -6.3835    -3.3183    -2.1910 H       
 138 H138          -2.7003    -6.1200    -1.4574 H       
 139 H139          -2.0445    -5.0841    -0.1670 H       
 140 H140          -3.7618    -4.9629    -0.6192 H       
 141 H141          -2.8216    -3.0756     0.7348 H       
 142 H142          -3.3550    -2.3466     2.2685 H       
 143 H143          -3.6811    -1.5170     0.7279 H       
 144 H144          -4.7839    -0.1180    -2.9670 H       
 145 H145          -6.4831    -0.3642    -3.4362 H       
 146 H146          -5.6669    -1.5527    -2.3924 H       
 147 H147          -2.5078    -3.0516     7.7221 H       
 148 H148          -3.3909    -4.1848     6.6713 H       
 149 H149          -1.6113    -4.2023     6.7022 H       
 150 H150           1.5978     5.5342    -6.5636 H       
 151 H151          -0.1448     4.8374    -4.8431 H       
 152 H152           0.9137     8.8654    -8.3314 H       
 153 H153           2.3461     8.1083    -7.5945 H       
 154 H154           1.4382     7.2493    -8.8618 H       
@<TRIPOS>BOND
   1    1    3 1
   2    1    5 1
   3    1    6 2
   4    2    5 1
   5    2   13 1
   6    2   15 am
   7    3   47 1
   8    4   63 1
   9    4   66 1
  10    5    7 1
  11    5   70 1
  12    7    9 1
  13    7   71 1
  14    7   72 1
  15    8   15 2
  16    9   11 1
  17    9   73 1
  18    9   74 1
  19   10   16 1
  20   10   75 1
  21   11   13 1
  22   11   76 1
  23   11   77 1
  24   12   18 1
  25   12   26 1
  26   13   78 1
  27   13   79 1
  28   14   18 1
  29   14   80 1
  30   15   16 1
  31   16   18 1
  32   16   81 1
  33   17   39 2
  34   18   20 1
  35   19   40 1
  36   19   64 1
  37   20   22 1
  38   20   56 1
  39   20   82 1
  40   21   41 1
  41   21   83 1
  42   22   24 1
  43   22   84 1
  44   22   85 1
  45   23   45 2
  46   24   26 1
  47   24   86 1
  48   24   87 1
  49   25   52 1
  50   25   65 1
  51   26   28 1
  52   26   88 1
  53   27   53 1
  54   27   89 1
  55   28   29 1
  56   28   90 1
  57   28   91 1
  58   29   30 1
  59   29   63 1
  60   29   92 1
  61   30   31 2
  62   30   57 1
  63   31   32 1
  64   31   93 1
  65   32   33 1
  66   32   94 1
  67   32   95 1
  68   33   34 1
  69   33   96 1
  70   33   97 1
  71   34   35 2
  72   34   98 1
  73   35   36 1
  74   35   99 1
  75   36   37 1
  76   36   58 1
  77   36  100 1
  78   37   38 1
  79   37  101 1
  80   37  102 1
  81   38   39 1
  82   38   59 1
  83   38  103 1
  84   39   40 1
  85   40   41 1
  86   40  104 1
  87   41   42 1
  88   41  105 1
  89   42   43 2
  90   42   60 1
  91   43   44 1
  92   43  106 1
  93   44   45 1
  94   44   61 1
  95   44  107 1
  96   45   46 1
  97   46   47 1
  98   46  108 1
  99   46  109 1
 100   47   48 1
 101   47  110 1
 102   48   49 1
 103   48   62 1
 104   48  111 1
 105   49   50 1
 106   49  112 1
 107   49  113 1
 108   50   51 1
 109   50   55 1
 110   50  114 1
 111   51   52 1
 112   51  115 1
 113   51  116 1
 114   52   53 1
 115   52  117 1
 116   53   54 1
 117   53  118 1
 118   54   55 1
 119   54  119 1
 120   54  120 1
 121   55  121 1
 122   55  122 1
 123   56  123 1
 124   56  124 1
 125   56  125 1
 126   57  126 1
 127   57  127 1
 128   57  128 1
 129   58  129 1
 130   58  130 1
 131   58  131 1
 132   59  132 1
 133   59  133 1
 134   59  134 1
 135   60  135 1
 136   60  136 1
 137   60  137 1
 138   61  138 1
 139   61  139 1
 140   61  140 1
 141   62  141 1
 142   62  142 1
 143   62  143 1
 144   63   68 2
 145   64  144 1
 146   64  145 1
 147   64  146 1
 148   65  147 1
 149   65  148 1
 150   65  149 1
 151   66   67 2
 152   66   69 1
 153   67   68 1
 154   67  150 1
 155   68  151 1
 156   69  152 1
 157   69  153 1
 158   69  154 1

#	End of record

