#	Name: ASD10290001
#	Creating user name:	WinNT
#	Creation time:	15. 06. 2019 21:26

#	Modifying user name:	WinNT
#	Modification time:	15. 06. 2019 21:26

#	Program:	/corina/corina34_cracker 3.40 0067  02.08.2006

@<TRIPOS>MOLECULE
ASD10290001
  28   28    0    0    0
SMALL
NO_CHARGES


@<TRIPOS>ATOM
   1 O1            -0.0164     1.3558     0.0095 O.3     
   2 C2             0.0021    -0.0041     0.0020 C.2     
   3 C3             0.8453    -0.6981    -1.0454 C.3     
   4 C4             2.2391    -0.0576    -1.0427 C.3     
   5 C5             2.0877     1.4609    -1.1753 C.3     
   6 C6             1.2654     1.9945     0.0007 C.3     
   7 C7             1.0819     3.5061    -0.1484 C.3     
   8 O8             0.4115     4.0205     1.0040 O.3     
   9 O9             3.3798     2.0711    -1.1690 O.3     
  10 O10            2.9990    -0.5607    -2.1435 O.3     
  11 C11           -0.7362    -1.3839    -2.7675 C.2     
  12 C12           -1.3704    -1.2149    -4.1241 C.3     
  13 O13           -1.0941    -2.2849    -2.0388 O.2     
  14 N14            0.2287    -0.5338    -2.3641 N.am    
  15 H15           -0.5679    -0.5718     0.7225 H       
  16 H16            0.9277    -1.7586    -0.8072 H       
  17 H17            2.7475    -0.2936    -0.1079 H       
  18 H18            1.5792     1.6954    -2.1105 H       
  19 H19            1.7849     1.7807     0.9348 H       
  20 H20            2.0574     3.9828    -0.2443 H       
  21 H21            0.4870     3.7139    -1.0378 H       
  22 H22            0.2611     4.9754     0.9780 H       
  23 H23            3.3603     3.0345    -1.2497 H       
  24 H24            3.1263    -1.5191    -2.1282 H       
  25 H25           -2.2369    -0.5588    -4.0409 H       
  26 H26           -0.6471    -0.7760    -4.8112 H       
  27 H27           -1.6861    -2.1876    -4.5013 H       
  28 H28            0.5150     0.1868    -2.9470 H       
@<TRIPOS>BOND
   1    1    2 1
   2    1    6 1
   3    2    3 1
   4    2   15 1
   5    3    4 1
   6    3   14 1
   7    3   16 1
   8    4    5 1
   9    4   10 1
  10    4   17 1
  11    5    6 1
  12    5    9 1
  13    5   18 1
  14    6    7 1
  15    6   19 1
  16    7    8 1
  17    7   20 1
  18    7   21 1
  19    8   22 1
  20    9   23 1
  21   10   24 1
  22   11   12 1
  23   11   13 2
  24   11   14 am
  25   12   25 1
  26   12   26 1
  27   12   27 1
  28   14   28 1

#	End of record

