#	Name: ASD13680031
#	Creating user name:	WinNT
#	Creation time:	15. 06. 2019 21:30

#	Modifying user name:	WinNT
#	Modification time:	15. 06. 2019 21:30

#	Program:	/corina/corina34_cracker 3.40 0067  02.08.2006

@<TRIPOS>MOLECULE
ASD13680031
  53   56    0    0    0
SMALL
NO_CHARGES


@<TRIPOS>ATOM
   1 C1            -0.0193     1.5123     0.0250 C.3     
   2 C2             0.0023    -0.0020     0.0103 C.2     
   3 C3             0.7554    -0.7678     0.8052 C.2     
   4 C4             1.7291    -0.2383     1.8438 C.3     
   5 C5             1.8869     2.2210     1.4608 C.3     
   6 C6             1.4085     2.0562     0.0211 C.3     
   7 C7             1.2751     1.1316     2.3387 C.3     
   8 C8             0.5452    -2.1873     0.5659 C.2     
   9 C9            -0.3624    -2.4431    -0.4222 C.2     
  10 S10           -0.9724    -0.9919    -1.0682 S.3     
  11 N11           -0.7345    -3.7100    -0.8416 N.am    
  12 C12            1.2396    -3.2402     1.3123 C.2     
  13 O13            0.7524    -3.6829     2.3360 O.2     
  14 N14            2.4177    -3.7182     0.8650 N.am    
  15 C15           -1.6417    -3.8540    -1.8279 C.2     
  16 C16           -2.0371    -5.2004    -2.2736 C.ar    
  17 C17           -1.4768    -6.3410    -1.6797 C.ar    
  18 C18           -1.8788    -7.5807    -2.1313 C.ar    
  19 C19           -2.8198    -7.6640    -3.1535 C.ar    
  20 N20           -3.3340    -6.5731    -3.6988 N.ar    
  21 C21           -2.9849    -5.3635    -3.2956 C.ar    
  22 O22           -2.1337    -2.8717    -2.3498 O.2     
  23 C23            3.1302    -4.6403     1.6285 C.ar    
  24 C24            4.2896    -5.2110     1.1145 C.ar    
  25 C25            4.9877    -6.1248     1.8835 C.ar    
  26 C26            4.5005    -6.4380     3.1454 C.ar    
  27 C27            3.3428    -5.8331     3.5924 C.ar    
  28 N28            2.7006    -4.9611     2.8387 N.ar    
  29 O29           -3.2154    -8.8813    -3.5979 O.3     
  30 C30           -4.1834    -8.9052    -4.6488 C.3     
  31 O31           -3.5409    -4.2742    -3.8771 O.3     
  32 H32           -0.5469     1.8751    -0.8571 H       
  33 H33           -0.5355     1.8579     0.9206 H       
  34 H34            1.7721    -0.9303     2.6848 H       
  35 H35            2.7203    -0.1514     1.3988 H       
  36 H36            2.9737     2.1437     1.4924 H       
  37 H37            1.5836     3.1993     1.8336 H       
  38 H38            2.0624     1.3588    -0.5024 H       
  39 H39            1.4285     3.0229    -0.4821 H       
  40 H40            0.1880     1.1935     2.2893 H       
  41 H41            1.5999     1.2711     3.3698 H       
  42 H42           -0.3421    -4.4934    -0.4254 H       
  43 H43            2.7695    -3.4203     0.0116 H       
  44 H44           -0.7479    -6.2506    -0.8880 H       
  45 H45           -1.4668    -8.4790    -1.6957 H       
  46 H46            4.6399    -4.9446     0.1282 H       
  47 H47            5.8910    -6.5846     1.5105 H       
  48 H48            5.0217    -7.1478     3.7707 H       
  49 H49            2.9601    -6.0736     4.5733 H       
  50 H50           -5.0930    -8.4049    -4.3163 H       
  51 H51           -3.7841    -8.3900    -5.5224 H       
  52 H52           -4.4116    -9.9387    -4.9092 H       
  53 H53           -3.0554    -3.9487    -4.6474 H       
@<TRIPOS>BOND
   1    1    2 1
   2    1    6 1
   3    1   32 1
   4    1   33 1
   5    2   10 1
   6    2    3 2
   7    3    4 1
   8    3    8 1
   9    4    7 1
  10    4   34 1
  11    4   35 1
  12    5    6 1
  13    5    7 1
  14    5   36 1
  15    5   37 1
  16    6   38 1
  17    6   39 1
  18    7   40 1
  19    7   41 1
  20    8    9 2
  21    8   12 1
  22    9   10 1
  23    9   11 1
  24   11   15 am
  25   11   42 1
  26   12   13 2
  27   12   14 am
  28   14   23 1
  29   14   43 1
  30   15   16 1
  31   15   22 2
  32   16   17 ar
  33   16   21 ar
  34   17   18 ar
  35   17   44 1
  36   18   19 ar
  37   18   45 1
  38   19   20 ar
  39   19   29 1
  40   20   21 ar
  41   21   31 1
  42   23   24 ar
  43   23   28 ar
  44   24   25 ar
  45   24   46 1
  46   25   26 ar
  47   25   47 1
  48   26   27 ar
  49   26   48 1
  50   27   28 ar
  51   27   49 1
  52   29   30 1
  53   30   50 1
  54   30   51 1
  55   30   52 1
  56   31   53 1

#	End of record

