#	Name: ASD13410004
#	Creating user name:	WinNT
#	Creation time:	15. 06. 2019 21:30

#	Modifying user name:	WinNT
#	Modification time:	15. 06. 2019 21:30

#	Program:	/corina/corina34_cracker 3.40 0067  02.08.2006

@<TRIPOS>MOLECULE
ASD13410004
  29   30    0    0    0
SMALL
NO_CHARGES


@<TRIPOS>ATOM
   1 C1            -0.0159     1.3795     0.0308 C.ar    
   2 C2             0.0724     0.1414    -0.5787 C.ar    
   3 C3             1.2767    -0.5342    -0.6022 C.ar    
   4 C4             2.4001     0.0315    -0.0130 C.ar    
   5 C5             2.3082     1.2754     0.5980 C.ar    
   6 C6             1.1007     1.9455     0.6183 C.ar    
   7 N7            -1.3070     2.1033     0.0491 N.pl3   
   8 O8            -2.2901     1.6082    -0.4723 O.2     
   9 O9            -1.3862     3.1939     0.5856 O.2     
  10 N10            3.6211    -0.6502    -0.0346 N.am    
  11 C11            4.7750     0.0376    -0.1436 C.2     
  12 C12            6.0664    -0.6687    -0.0480 C.ar    
  13 O13            4.7515     1.2404    -0.3208 O.2     
  14 C14            6.0980    -2.0507     0.1555 C.ar    
  15 C15            7.3084    -2.7048     0.2434 C.ar    
  16 C16            8.4951    -1.9972     0.1308 C.ar    
  17 C17            8.4774    -0.6315    -0.0704 C.ar    
  18 C18            7.2686     0.0417    -0.1666 C.ar    
  19 Br19           7.3500    -4.5751     0.5195 Br      
  20 O20            7.2501     1.3830    -0.3696 O.3     
  21 H21           -0.8015    -0.2979    -1.0367 H       
  22 H22            1.3448    -1.5014    -1.0777 H       
  23 H23            3.1798     1.7178     1.0573 H       
  24 H24            1.0286     2.9128     1.0932 H       
  25 H25            3.6374    -1.6179     0.0290 H       
  26 H26            5.1757    -2.6055     0.2442 H       
  27 H27            9.4390    -2.5173     0.2012 H       
  28 H28            9.4062    -0.0872    -0.1569 H       
  29 H29            7.2528     1.9041     0.4450 H       
@<TRIPOS>BOND
   1    1    2 ar
   2    1    6 ar
   3    1    7 1
   4    2    3 ar
   5    2   21 1
   6    3    4 ar
   7    3   22 1
   8    4    5 ar
   9    4   10 1
  10    5    6 ar
  11    5   23 1
  12    6   24 1
  13    7    8 2
  14    7    9 2
  15   10   11 am
  16   10   25 1
  17   11   12 1
  18   11   13 2
  19   12   14 ar
  20   12   18 ar
  21   14   15 ar
  22   14   26 1
  23   15   16 ar
  24   15   19 1
  25   16   17 ar
  26   16   27 1
  27   17   18 ar
  28   17   28 1
  29   18   20 1
  30   20   29 1

#	End of record

