#	Name: ASD11710018
#	Creating user name:	WinNT
#	Creation time:	15. 06. 2019 21:29

#	Modifying user name:	WinNT
#	Modification time:	15. 06. 2019 21:29

#	Program:	/corina/corina34_cracker 3.40 0067  02.08.2006

@<TRIPOS>MOLECULE
ASD11710018
  58   60    0    0    0
SMALL
NO_CHARGES


@<TRIPOS>ATOM
   1 C1             0.7611     0.8625     1.1554 C.ar    
   2 C2             0.9712    -0.5063     1.0716 C.ar    
   3 C3             2.2296    -0.9941     0.7503 C.ar    
   4 C4             3.2700    -0.1163     0.5148 C.ar    
   5 C5             3.0580     1.2474     0.5993 C.ar    
   6 C6             1.8047     1.7361     0.9189 C.ar    
   7 C7             4.1950     2.2027     0.3428 C.3     
   8 N8             4.2340     2.5442    -1.0813 N.am    
   9 C9             3.5382     3.6036    -1.5395 C.2     
  10 C10            3.6603     4.0119    -2.9553 C.ar    
  11 O11            2.8103     4.2234    -0.7889 O.2     
  12 C12            3.8308     3.0482    -3.9504 C.ar    
  13 C13            3.5997     5.3622    -3.3030 C.ar    
  14 C14            3.7138     5.7364    -4.6260 C.ar    
  15 C15            3.8875     4.7765    -5.6071 C.ar    
  16 C16            3.9436     3.4358    -5.2696 C.ar    
  17 S17            4.0313     5.2629    -7.2945 S.o2    
  18 N18            5.6477     5.3696    -7.6379 N.am    
  19 C19            6.4472     6.2903    -6.9567 C.ar    
  20 C20            7.6800     5.9003    -6.4492 C.ar    
  21 C21            6.0137     7.5994    -6.7901 C.ar    
  22 C22            6.8066     8.5072    -6.1159 C.ar    
  23 C23            8.0310     8.1143    -5.6074 C.ar    
  24 C24            8.4680     6.8132    -5.7761 C.ar    
  25 O25            3.5272     4.1826    -8.0679 O.2     
  26 O26            3.5156     6.5845    -7.3764 O.2     
  27 C27            5.0293     1.7341    -2.0073 C.3     
  28 O28           -0.0537    -1.3678     1.3042 O.3     
  29 C29            0.2355    -2.7633     1.2003 C.3     
  30 C30           -1.0311    -3.5699     1.4938 C.3     
  31 O31           -2.0066    -3.3097     0.4825 O.3     
  32 C32           -3.2345    -4.0178     0.6635 C.3     
  33 H33           -0.2187     1.2448     1.4009 H       
  34 H34            2.3958    -2.0592     0.6849 H       
  35 H35            4.2498    -0.4956     0.2646 H       
  36 H36            1.6417     2.8017     0.9843 H       
  37 H37            4.0474     3.1091     0.9299 H       
  38 H38            5.1359     1.7331     0.6297 H       
  39 H39            3.8747     2.0014    -3.6883 H       
  40 H40            3.4634     6.1125    -2.5382 H       
  41 H41            3.6671     6.7810    -4.8964 H       
  42 H42            4.0794     2.6914    -6.0402 H       
  43 H43            6.0394     4.7926    -8.3122 H       
  44 H44            8.0219     4.8843    -6.5805 H       
  45 H45            5.0578     7.9071    -7.1876 H       
  46 H46            6.4701     9.5252    -5.9861 H       
  47 H47            8.6495     8.8264    -5.0812 H       
  48 H48            9.4248     6.5096    -5.3777 H       
  49 H49            4.4062     0.9437    -2.4259 H       
  50 H50            5.4045     2.3658    -2.8125 H       
  51 H51            5.8690     1.2901    -1.4726 H       
  52 H52            0.5839    -2.9881     0.1923 H       
  53 H53            1.0100    -3.0285     1.9200 H       
  54 H54           -0.7910    -4.6331     1.5021 H       
  55 H55           -1.4294    -3.2798     2.4661 H       
  56 H56           -3.0401    -5.0903     0.6545 H       
  57 H57           -3.6785    -3.7370     1.6185 H       
  58 H58           -3.9214    -3.7663    -0.1446 H       
@<TRIPOS>BOND
   1    1    2 ar
   2    1    6 ar
   3    1   33 1
   4    2    3 ar
   5    2   28 1
   6    3    4 ar
   7    3   34 1
   8    4    5 ar
   9    4   35 1
  10    5    6 ar
  11    5    7 1
  12    6   36 1
  13    7    8 1
  14    7   37 1
  15    7   38 1
  16    8    9 am
  17    8   27 1
  18    9   10 1
  19    9   11 2
  20   10   12 ar
  21   10   13 ar
  22   12   16 ar
  23   12   39 1
  24   13   14 ar
  25   13   40 1
  26   14   15 ar
  27   14   41 1
  28   15   16 ar
  29   15   17 1
  30   16   42 1
  31   17   18 am
  32   17   25 2
  33   17   26 2
  34   18   19 1
  35   18   43 1
  36   19   20 ar
  37   19   21 ar
  38   20   24 ar
  39   20   44 1
  40   21   22 ar
  41   21   45 1
  42   22   23 ar
  43   22   46 1
  44   23   24 ar
  45   23   47 1
  46   24   48 1
  47   27   49 1
  48   27   50 1
  49   27   51 1
  50   28   29 1
  51   29   30 1
  52   29   52 1
  53   29   53 1
  54   30   31 1
  55   30   54 1
  56   30   55 1
  57   31   32 1
  58   32   56 1
  59   32   57 1
  60   32   58 1

#	End of record

