#	Name: ASD11820020
#	Creating user name:	WinNT
#	Creation time:	15. 06. 2019 21:29

#	Modifying user name:	WinNT
#	Modification time:	15. 06. 2019 21:29

#	Program:	/corina/corina34_cracker 3.40 0067  02.08.2006

@<TRIPOS>MOLECULE
ASD11820020
  37   40    0    0    0
SMALL
NO_CHARGES


@<TRIPOS>ATOM
   1 C1            -0.0165     1.3624     0.0095 C.ar    
   2 C2             0.0021    -0.0041     0.0020 C.ar    
   3 C3             1.2070    -0.6927    -0.0132 C.ar    
   4 C4             2.4052    -0.0124    -0.0205 C.ar    
   5 C5             1.1857     2.0718     0.0019 C.ar    
   6 C6             1.5275     3.4963     0.0063 C.2     
   7 C7             2.4100     1.3784    -0.0131 C.ar    
   8 N8             3.4117     2.3231    -0.0172 N.pl3   
   9 C9             2.8673     3.5784    -0.0061 C.2     
  10 C10            0.5588     4.6505     0.0217 C.3     
  11 C11            0.1545     4.9481     1.4426 C.2     
  12 C12            0.1236     5.7766     3.5819 C.ar    
  13 C13            0.8742     5.7994     2.3930 C.ar    
  14 C14           -0.9364     4.4878     2.0753 C.2     
  15 N15           -0.9715     4.9698     3.3551 N.pl3   
  16 C16            1.7247     7.2376     4.6054 C.ar    
  17 C17            2.4703     7.2622     3.4294 C.ar    
  18 C18            2.0515     6.5480     2.3249 C.ar    
  19 C19            0.5643     6.5008     4.6847 C.ar    
  20 O20            3.6142     7.9951     3.3680 O.3     
  21 C21            3.9888     8.7128     4.5456 C.3     
  22 H22           -0.9579     1.8916     0.0169 H       
  23 H23           -0.9283    -0.5525     0.0083 H       
  24 H24            1.2054    -1.7727    -0.0190 H       
  25 H25            3.3376    -0.5574    -0.0316 H       
  26 H26            4.3618     2.1278    -0.0267 H       
  27 H27            3.4320     4.4990    -0.0065 H       
  28 H28            1.0344     5.5299    -0.4125 H       
  29 H29           -0.3252     4.3908    -0.5607 H       
  30 H30           -1.6768     3.8341     1.6385 H       
  31 H31           -1.6632     4.7730     4.0061 H       
  32 H32            2.0611     7.7999     5.4639 H       
  33 H33            2.6308     6.5675     1.4136 H       
  34 H34           -0.0062     6.4889     5.6016 H       
  35 H35            4.9169     9.2539     4.3614 H       
  36 H36            3.2014     9.4201     4.8059 H       
  37 H37            4.1338     8.0119     5.3676 H       
@<TRIPOS>BOND
   1    1    2 ar
   2    1    5 ar
   3    1   22 1
   4    2    3 ar
   5    2   23 1
   6    3    4 ar
   7    3   24 1
   8    4    7 ar
   9    4   25 1
  10    5    7 ar
  11    5    6 1
  12    6    9 2
  13    6   10 1
  14    7    8 1
  15    8    9 1
  16    8   26 1
  17    9   27 1
  18   10   11 1
  19   10   28 1
  20   10   29 1
  21   11   14 2
  22   11   13 1
  23   12   15 1
  24   12   19 ar
  25   12   13 ar
  26   13   18 ar
  27   14   15 1
  28   14   30 1
  29   15   31 1
  30   16   17 ar
  31   16   19 ar
  32   16   32 1
  33   17   18 ar
  34   17   20 1
  35   18   33 1
  36   19   34 1
  37   20   21 1
  38   21   35 1
  39   21   36 1
  40   21   37 1

#	End of record

