#	Name: ASD10410213
#	Creating user name:	WinNT
#	Creation time:	15. 06. 2019 21:27

#	Modifying user name:	WinNT
#	Modification time:	15. 06. 2019 21:27

#	Program:	/corina/corina34_cracker 3.40 0067  02.08.2006

@<TRIPOS>MOLECULE
ASD10410213
  63   67    0    0    0
SMALL
NO_CHARGES


@<TRIPOS>ATOM
   1 C1            -0.0280     1.3384     0.4046 C.ar    
   2 C2            -0.0281     0.0177    -0.0195 C.ar    
   3 C3             1.1620    -0.5947    -0.3838 C.ar    
   4 C4             2.3481     0.1099    -0.3240 C.ar    
   5 C5             2.3492     1.4322     0.1005 C.ar    
   6 C6             1.1571     2.0447     0.4646 C.ar    
   7 O7            -1.1956    -0.6772    -0.0779 O.3     
   8 N8             3.5511     2.1471     0.1619 N.pl3   
   9 C9             3.5519     3.5275    -0.0335 C.2     
  10 N10            4.5936     4.3130     0.0983 N.2     
  11 N11            2.4908     4.2608    -0.3908 N.2     
  12 C12            2.8378     5.5261    -0.4872 C.2     
  13 N13            4.1621     5.6185    -0.1873 N.pl3   
  14 C14            4.9329     6.7732    -0.1680 C.ar    
  15 N15            2.0073     6.5733    -0.8346 N.pl3   
  16 C16            6.1972     6.8115    -0.7978 C.ar    
  17 C17           -1.1221    -2.0329    -0.5237 C.3     
  18 C18           -2.5236    -2.6468    -0.5230 C.3     
  19 N19           -3.3609    -1.9568    -1.5134 N.3     
  20 C20           -4.6374    -2.6673    -1.7128 C.3     
  21 C21           -5.7708    -1.6627    -1.4171 C.3     
  22 C22           -5.0809    -0.2879    -1.6194 C.3     
  23 C23           -3.6545    -0.5722    -1.0864 C.3     
  24 N24            4.4996     7.8701     0.4368 N.ar    
  25 C25            5.2240     8.9786     0.4627 C.ar    
  26 N26            6.4069     9.0710    -0.1006 N.ar    
  27 C27            6.9365     8.0201    -0.7438 C.ar    
  28 Cl28           4.5814    10.3710     1.2764 Cl      
  29 C29            8.1953     8.0846    -1.3547 C.ar    
  30 C30            8.6915     6.9853    -1.9980 C.ar    
  31 C31            7.9567     5.7921    -2.0549 C.ar    
  32 C32            6.7284     5.6997    -1.4650 C.ar    
  33 O33            9.9122     7.0495    -2.5904 O.3     
  34 C34           10.6130     8.2916    -2.4994 C.3     
  35 O35            8.4744     4.7140    -2.7019 O.3     
  36 C36            7.6783     3.5276    -2.7255 C.3     
  37 H37           -0.9557     1.8157     0.6838 H       
  38 H38            1.1610    -1.6230    -0.7140 H       
  39 H39            3.2747    -0.3673    -0.6070 H       
  40 H40            1.1569     3.0730     0.7946 H       
  41 H41            4.3834     1.6820     0.3403 H       
  42 H42            1.0730     6.4057    -1.0343 H       
  43 H43            2.3583     7.4765    -0.8790 H       
  44 H44           -0.7134    -2.0616    -1.5338 H       
  45 H45           -0.4762    -2.6010     0.1458 H       
  46 H46           -2.4570    -3.7046    -0.7772 H       
  47 H47           -2.9673    -2.5382     0.4667 H       
  48 H48           -4.7105    -3.0162    -2.7429 H       
  49 H49           -4.7025    -3.5122    -1.0273 H       
  50 H50           -6.5919    -1.7894    -2.1226 H       
  51 H51           -6.1228    -1.7699    -0.3911 H       
  52 H52           -5.0563    -0.0149    -2.6744 H       
  53 H53           -5.5714     0.4858    -1.0288 H       
  54 H54           -3.6338    -0.4979     0.0008 H       
  55 H55           -2.9390     0.1211    -1.5287 H       
  56 H56            8.7705     8.9979    -1.3180 H       
  57 H57            6.1698     4.7767    -1.5137 H       
  58 H58           10.0196     9.0784    -2.9651 H       
  59 H59           10.7829     8.5369    -1.4510 H       
  60 H60           11.5709     8.2068    -3.0125 H       
  61 H61            6.7288     3.7368    -3.2183 H       
  62 H62            8.2067     2.7462    -3.2717 H       
  63 H63            7.4920     3.1946    -1.7044 H       
@<TRIPOS>BOND
   1    1    2 ar
   2    1    6 ar
   3    1   37 1
   4    2    3 ar
   5    2    7 1
   6    3    4 ar
   7    3   38 1
   8    4    5 ar
   9    4   39 1
  10    5    6 ar
  11    5    8 1
  12    6   40 1
  13    7   17 1
  14    8    9 1
  15    8   41 1
  16    9   10 2
  17    9   11 1
  18   10   13 1
  19   11   12 2
  20   12   13 1
  21   12   15 1
  22   13   14 1
  23   14   16 ar
  24   14   24 ar
  25   15   42 1
  26   15   43 1
  27   16   27 ar
  28   16   32 ar
  29   17   18 1
  30   17   44 1
  31   17   45 1
  32   18   19 1
  33   18   46 1
  34   18   47 1
  35   19   20 1
  36   19   23 1
  37   20   21 1
  38   20   48 1
  39   20   49 1
  40   21   22 1
  41   21   50 1
  42   21   51 1
  43   22   23 1
  44   22   52 1
  45   22   53 1
  46   23   54 1
  47   23   55 1
  48   24   25 ar
  49   25   26 ar
  50   25   28 1
  51   26   27 ar
  52   27   29 ar
  53   29   30 ar
  54   29   56 1
  55   30   31 ar
  56   30   33 1
  57   31   32 ar
  58   31   35 1
  59   32   57 1
  60   33   34 1
  61   34   58 1
  62   34   59 1
  63   34   60 1
  64   35   36 1
  65   36   61 1
  66   36   62 1
  67   36   63 1

#	End of record

