#	Name: ASD10410236
#	Creating user name:	WinNT
#	Creation time:	15. 06. 2019 21:27

#	Modifying user name:	WinNT
#	Modification time:	15. 06. 2019 21:27

#	Program:	/corina/corina34_cracker 3.40 0067  02.08.2006

@<TRIPOS>MOLECULE
ASD10410236
  59   64    0    0    0
SMALL
NO_CHARGES


@<TRIPOS>ATOM
   1 C1            -0.0305     1.3873    -0.1174 C.ar    
   2 C2            -0.0088     0.0055     0.0028 C.ar    
   3 C3             1.2007    -0.6616     0.1295 C.ar    
   4 C4             2.3845     0.0495     0.1365 C.ar    
   5 C5             2.3638     1.4329     0.0161 C.ar    
   6 C6             1.1524     2.0999    -0.1112 C.ar    
   7 O7            -1.1742    -0.6954    -0.0030 O.3     
   8 N8             3.5632     2.1545     0.0231 N.pl3   
   9 C9             3.6615     3.3506    -0.6871 C.2     
  10 N10            4.6939     4.1590    -0.6752 N.2     
  11 N11            2.7194     3.8534    -1.4937 N.2     
  12 C12            3.1344     4.9924    -2.0049 C.2     
  13 N13            4.3816     5.2364    -1.5200 N.pl3   
  14 C14            5.1874     6.3342    -1.8047 C.ar    
  15 N15            2.4305     5.7957    -2.8809 N.pl3   
  16 C16            5.8283     7.0488    -0.7626 C.ar    
  17 C17           -1.0777    -2.1154     0.1248 C.3     
  18 C18           -2.4802    -2.7264     0.0977 C.3     
  19 N19           -3.0897    -2.4952    -1.2188 N.3     
  20 C20           -4.3366    -3.2680    -1.3669 C.3     
  21 C21           -5.4610    -2.2632    -1.6947 C.3     
  22 C22           -4.6873    -1.0495    -2.2737 C.3     
  23 C23           -3.3974    -1.0626    -1.4159 C.3     
  24 N24            5.3745     6.7279    -3.0554 N.ar    
  25 C25            6.1376     7.7680    -3.3377 C.ar    
  26 N26            6.7478     8.4636    -2.4059 N.ar    
  27 C27            6.6225     8.1377    -1.1124 C.ar    
  28 S28            7.3005     8.8600     0.3349 S.3     
  29 C29            6.5103     7.6836     1.3842 C.2     
  30 C30            5.7894     6.8193     0.6841 C.2     
  31 C31            6.4146     7.3755     2.8758 C.3     
  32 C32            5.1781     6.4651     3.0125 C.3     
  33 C33            5.1181     5.8128     1.6187 C.3     
  34 H34           -0.9724     1.9055    -0.2205 H       
  35 H35            1.2166    -1.7374     0.2231 H       
  36 H36            3.3261    -0.4700     0.2359 H       
  37 H37            1.1353     3.1757    -0.2052 H       
  38 H38            4.3261     1.8226     0.5219 H       
  39 H39            1.5432     5.5340    -3.1727 H       
  40 H40            2.8234     6.6215    -3.2043 H       
  41 H41           -0.4910    -2.5157    -0.7021 H       
  42 H42           -0.5917    -2.3631     1.0685 H       
  43 H43           -2.4132    -3.7983     0.2839 H       
  44 H44           -3.0941    -2.2613     0.8690 H       
  45 H45           -4.2330    -3.9868    -2.1797 H       
  46 H46           -4.5635    -3.7876    -0.4360 H       
  47 H47           -6.1423    -2.6763    -2.4385 H       
  48 H48           -6.0008    -1.9805    -0.7910 H       
  49 H49           -4.4565    -1.2006    -3.3282 H       
  50 H50           -5.2448    -0.1246    -2.1263 H       
  51 H51           -3.5749    -0.5771    -0.4563 H       
  52 H52           -2.5835    -0.5692    -1.9471 H       
  53 H53            6.2645     8.0563    -4.3707 H       
  54 H54            7.3096     6.8529     3.2133 H       
  55 H55            6.2737     8.2945     3.4447 H       
  56 H56            5.3282     5.7164     3.7903 H       
  57 H57            4.2801     7.0520     3.2052 H       
  58 H58            4.0824     5.6496     1.3208 H       
  59 H59            5.6669     4.8710     1.6170 H       
@<TRIPOS>BOND
   1    1    2 ar
   2    1    6 ar
   3    1   34 1
   4    2    3 ar
   5    2    7 1
   6    3    4 ar
   7    3   35 1
   8    4    5 ar
   9    4   36 1
  10    5    6 ar
  11    5    8 1
  12    6   37 1
  13    7   17 1
  14    8    9 1
  15    8   38 1
  16    9   10 2
  17    9   11 1
  18   10   13 1
  19   11   12 2
  20   12   13 1
  21   12   15 1
  22   13   14 1
  23   14   16 ar
  24   14   24 ar
  25   15   39 1
  26   15   40 1
  27   16   27 ar
  28   16   30 1
  29   17   18 1
  30   17   41 1
  31   17   42 1
  32   18   19 1
  33   18   43 1
  34   18   44 1
  35   19   20 1
  36   19   23 1
  37   20   21 1
  38   20   45 1
  39   20   46 1
  40   21   22 1
  41   21   47 1
  42   21   48 1
  43   22   23 1
  44   22   49 1
  45   22   50 1
  46   23   51 1
  47   23   52 1
  48   24   25 ar
  49   25   26 ar
  50   25   53 1
  51   26   27 ar
  52   27   28 1
  53   28   29 1
  54   29   30 2
  55   29   31 1
  56   30   33 1
  57   31   32 1
  58   31   54 1
  59   31   55 1
  60   32   33 1
  61   32   56 1
  62   32   57 1
  63   33   58 1
  64   33   59 1

#	End of record

