#	Name: ASD10160463
#	Creating user name:	WinNT
#	Creation time:	15. 06. 2019 21:26

#	Modifying user name:	WinNT
#	Modification time:	15. 06. 2019 21:26

#	Program:	/corina/corina34_cracker 3.40 0067  02.08.2006

@<TRIPOS>MOLECULE
ASD10160463
  29   31    0    0    0
SMALL
NO_CHARGES


@<TRIPOS>ATOM
   1 C1            -0.0026    -0.0035     0.1227 C.1     
   2 C2            -0.0205     1.4282     0.0998 C.ar    
   3 C3            -0.0060     2.1112    -1.1222 C.ar    
   4 C4            -0.0238     3.4914    -1.1389 C.ar    
   5 C5            -0.0555     4.2017     0.0537 C.ar    
   6 C6            -0.0700     3.5265     1.2711 C.ar    
   7 C7            -0.0583     2.1483     1.2977 C.ar    
   8 N8             0.0115    -1.1392     0.1408 N.1     
   9 F9            -0.1009     4.2231     2.4282 F       
  10 F10            0.0258     1.4208    -2.2830 F       
  11 O11           -0.0720     5.5592     0.0325 O.3     
  12 N12            0.0447     8.3339    -0.1473 N.ar    
  13 C13            0.0796     9.6414    -0.2340 C.ar    
  14 C14            1.2752    10.3506    -0.1395 C.ar    
  15 C15            2.4510     9.6818     0.0488 C.ar    
  16 C16            2.4089     8.2776     0.1417 C.ar    
  17 C17            3.5768     7.5228     0.3355 C.ar    
  18 C18            3.4974     6.1646     0.4213 C.ar    
  19 C19            2.2715     5.5114     0.3184 C.ar    
  20 C20            1.1145     6.2128     0.1297 C.ar    
  21 C21            1.1587     7.6199     0.0367 C.ar    
  22 Cl22           4.9446     5.2360     0.6603 Cl      
  23 H23           -0.0126     4.0195    -2.0809 H       
  24 H24           -0.0737     1.6256     2.2427 H       
  25 H25           -0.8427    10.1833    -0.3829 H       
  26 H26            1.2722    11.4279    -0.2155 H       
  27 H27            3.3871    10.2152     0.1239 H       
  28 H28            4.5341     8.0162     0.4159 H       
  29 H29            2.2350     4.4344     0.3896 H       
@<TRIPOS>BOND
   1    1    2 1
   2    1    8 3
   3    2    3 ar
   4    2    7 ar
   5    3    4 ar
   6    3   10 1
   7    4    5 ar
   8    4   23 1
   9    5    6 ar
  10    5   11 1
  11    6    7 ar
  12    6    9 1
  13    7   24 1
  14   11   20 1
  15   12   13 ar
  16   12   21 ar
  17   13   14 ar
  18   13   25 1
  19   14   15 ar
  20   14   26 1
  21   15   16 ar
  22   15   27 1
  23   16   17 ar
  24   16   21 ar
  25   17   18 ar
  26   17   28 1
  27   18   19 ar
  28   18   22 1
  29   19   20 ar
  30   19   29 1
  31   20   21 ar

#	End of record

