#	Name: ASD11320009
#	Creating user name:	WinNT
#	Creation time:	15. 06. 2019 21:29

#	Modifying user name:	WinNT
#	Modification time:	15. 06. 2019 21:29

#	Program:	/corina/corina34_cracker 3.40 0067  02.08.2006

@<TRIPOS>MOLECULE
ASD11320009
  45   48    0    0    0
SMALL
NO_CHARGES


@<TRIPOS>ATOM
   1 C1            -0.0183     1.4863     0.0151 C.2     
   2 C2             0.0014    -0.0045     0.0120 C.2     
   3 O3             1.0249     2.1072     0.0088 O.2     
   4 N4            -1.1944     2.1446     0.0194 N.am    
   5 C5            -1.2151     3.5373     0.1325 C.ar    
   6 C6            -2.1833     4.2758    -0.5362 C.ar    
   7 C7            -2.2011     5.6519    -0.4218 C.ar    
   8 C8            -1.2564     6.2949     0.3570 C.ar    
   9 C9            -0.2909     5.5629     1.0236 C.ar    
  10 C10           -0.2710     4.1860     0.9186 C.ar    
  11 O11           -1.0431    -0.6262     0.0183 O.2     
  12 N12            3.4661    -1.1377    -0.0146 N.pl3   
  13 C13            2.5416    -0.1604    -0.0063 C.2     
  14 C14            1.2774    -0.7188     0.0013 C.2     
  15 C15            1.4748    -2.1813    -0.0030 C.ar    
  16 C16            0.6116    -3.2732     0.0007 C.ar    
  17 C17            1.1279    -4.5512    -0.0055 C.ar    
  18 C18            2.5004    -4.7505    -0.0149 C.ar    
  19 C19            3.3659    -3.6778    -0.0182 C.ar    
  20 C20            2.8640    -2.3805    -0.0130 C.ar    
  21 C21            4.9138    -0.9140    -0.0297 C.3     
  22 C22            5.4146    -0.9607    -1.4503 C.ar    
  23 C23            5.4611     0.1964    -2.2052 C.ar    
  24 C24            5.9203     0.1536    -3.5083 C.ar    
  25 C25            6.3335    -1.0463    -4.0564 C.ar    
  26 C26            6.2879    -2.2033    -3.3013 C.ar    
  27 C27            5.8327    -2.1597    -1.9968 C.ar    
  28 H28           -2.0264     1.6517    -0.0561 H       
  29 H29           -2.9210     3.7743    -1.1451 H       
  30 H30           -2.9535     6.2266    -0.9414 H       
  31 H31           -1.2724     7.3712     0.4444 H       
  32 H32            0.4459     6.0682     1.6304 H       
  33 H33            0.4805     3.6146     1.4431 H       
  34 H34            2.7547     0.8984    -0.0050 H       
  35 H35           -0.4574    -3.1198     0.0088 H       
  36 H36            0.4611    -5.4007    -0.0026 H       
  37 H37            2.8948    -5.7559    -0.0193 H       
  38 H38            4.4329    -3.8445    -0.0252 H       
  39 H39            5.1352     0.0622     0.4016 H       
  40 H40            5.4075    -1.6901     0.5552 H       
  41 H41            5.1383     1.1339    -1.7769 H       
  42 H42            5.9560     1.0575    -4.0983 H       
  43 H43            6.6917    -1.0799    -5.0748 H       
  44 H44            6.6104    -3.1408    -3.7296 H       
  45 H45            5.8005    -3.0629    -1.4056 H       
@<TRIPOS>BOND
   1    1    2 1
   2    1    3 2
   3    1    4 am
   4    2   11 2
   5    2   14 1
   6    4    5 1
   7    4   28 1
   8    5    6 ar
   9    5   10 ar
  10    6    7 ar
  11    6   29 1
  12    7    8 ar
  13    7   30 1
  14    8    9 ar
  15    8   31 1
  16    9   10 ar
  17    9   32 1
  18   10   33 1
  19   12   13 1
  20   12   20 1
  21   12   21 1
  22   13   14 2
  23   13   34 1
  24   14   15 1
  25   15   16 ar
  26   15   20 ar
  27   16   17 ar
  28   16   35 1
  29   17   18 ar
  30   17   36 1
  31   18   19 ar
  32   18   37 1
  33   19   20 ar
  34   19   38 1
  35   21   22 1
  36   21   39 1
  37   21   40 1
  38   22   23 ar
  39   22   27 ar
  40   23   24 ar
  41   23   41 1
  42   24   25 ar
  43   24   42 1
  44   25   26 ar
  45   25   43 1
  46   26   27 ar
  47   26   44 1
  48   27   45 1

#	End of record

