#	Name: ASD14470002
#	Creating user name:	WinNT
#	Creation time:	15. 06. 2019 21:31

#	Modifying user name:	WinNT
#	Modification time:	15. 06. 2019 21:31

#	Program:	/corina/corina34_cracker 3.40 0067  02.08.2006

@<TRIPOS>MOLECULE
ASD14470002
  42   44    0    0    0
SMALL
NO_CHARGES


@<TRIPOS>ATOM
   1 C1            -0.0170     1.4009     0.0119 C.ar    
   2 C2             0.0021    -0.0041     0.0075 C.ar    
   3 N3             1.1791    -0.6214    -0.0024 N.ar    
   4 C4             2.3093     0.0613    -0.0081 C.ar    
   5 N5             2.3399     1.3774    -0.0043 N.ar    
   6 C6            -0.4538     3.5249     0.0192 C.2     
   7 N7            -0.9929     2.3404     0.0162 N.2     
   8 C8             1.2126     2.0811     0.0056 C.ar    
   9 N9             0.9052     3.4182     0.0118 N.pl3   
  10 C10            1.8619     4.5276     0.0124 C.3     
  11 C11            2.3920     4.7814    -1.4162 C.3     
  12 C12            1.4771     5.9001    -1.9630 C.3     
  13 C13            0.5025     6.1899    -0.8000 C.3     
  14 O14            1.2045     5.7581     0.3861 O.3     
  15 N15           -1.1772    -0.7282     0.0139 N.pl3   
  16 C16            0.1961     7.6869    -0.7223 C.3     
  17 O17            2.2702     3.6011    -2.2125 O.3     
  18 O18            0.7624     5.4448    -3.1136 O.3     
  19 O19           -0.7938     7.9190     0.2818 O.3     
  20 P20           -1.3573     9.3851     0.6353 P.3     
  21 O21           -1.8743    10.0247    -0.5952 O.2     
  22 O22           -2.5458     9.2576     1.7139 O.3     
  23 O23           -0.1700    10.2830     1.2486 O.3     
  24 P24           -3.7550    10.2203     2.1647 P.3     
  25 O25           -3.2768    11.6198     2.2209 O.2     
  26 O26           -4.9572    10.1063     1.1000 O.3     
  27 O27           -4.2821     9.7745     3.6192 O.3     
  28 H28            3.2437    -0.4803    -0.0158 H       
  29 H29           -1.0023     4.4553     0.0228 H       
  30 H30            2.6877     4.3152     0.6914 H       
  31 H31            3.4286     5.1169    -1.3850 H       
  32 H32            2.0615     6.7886    -2.2020 H       
  33 H33           -0.4178     5.6193    -0.9250 H       
  34 H34           -2.0300    -0.2662     0.0214 H       
  35 H35           -1.1510    -1.6979     0.0107 H       
  36 H36            1.1057     8.2312    -0.4684 H       
  37 H37           -0.1767     8.0320    -1.6866 H       
  38 H38            2.5885     3.7041    -3.1198 H       
  39 H39            1.3300     5.1912    -3.8543 H       
  40 H40            0.2171     9.9232     2.0584 H       
  41 H41           -5.3205     9.2145     1.0109 H       
  42 H42           -5.0124    10.3123     3.9548 H       
@<TRIPOS>BOND
   1    1    2 ar
   2    1    8 ar
   3    1    7 1
   4    2    3 ar
   5    2   15 1
   6    3    4 ar
   7    4    5 ar
   8    4   28 1
   9    5    8 ar
  10    6    7 2
  11    6    9 1
  12    6   29 1
  13    8    9 1
  14    9   10 1
  15   10   11 1
  16   10   14 1
  17   10   30 1
  18   11   12 1
  19   11   17 1
  20   11   31 1
  21   12   13 1
  22   12   18 1
  23   12   32 1
  24   13   14 1
  25   13   16 1
  26   13   33 1
  27   15   34 1
  28   15   35 1
  29   16   19 1
  30   16   36 1
  31   16   37 1
  32   17   38 1
  33   18   39 1
  34   19   20 1
  35   20   21 2
  36   20   22 1
  37   20   23 1
  38   22   24 1
  39   23   40 1
  40   24   25 2
  41   24   26 1
  42   24   27 1
  43   26   41 1
  44   27   42 1

#	End of record

