#	Name: ASD11030017
#	Creating user name:	WinNT
#	Creation time:	15. 06. 2019 21:29

#	Modifying user name:	WinNT
#	Modification time:	15. 06. 2019 21:29

#	Program:	/corina/corina34_cracker 3.40 0067  02.08.2006

@<TRIPOS>MOLECULE
ASD11030017
  45   48    0    0    0
SMALL
NO_CHARGES


@<TRIPOS>ATOM
   1 C1            -0.0173     1.4248     0.0099 C.3     
   2 O2             0.0021    -0.0041     0.0020 O.3     
   3 C3             0.6250    -0.6176     1.0402 C.ar    
   4 C4             1.2058     0.1361     2.0458 C.ar    
   5 C5             1.8417    -0.4864     3.1047 C.ar    
   6 C6             1.9057    -1.8665     3.1727 C.ar    
   7 C7             1.3319    -2.6412     2.1792 C.ar    
   8 C8             0.6781    -2.0203     1.1016 C.ar    
   9 C9             0.0666    -2.8295     0.0434 C.2     
  10 C10           -1.2154    -2.5906    -0.3398 C.2     
  11 S11           -2.3276    -1.3626     0.2947 S.3     
  12 C12           -3.6683    -1.8144    -0.7724 C.2     
  13 N13           -4.8623    -1.2581    -0.8146 N.2     
  14 C14           -5.7928    -1.7142    -1.6911 C.2     
  15 N15           -5.6339    -2.6956    -2.5450 N.2     
  16 N16           -6.6114    -2.9860    -3.2869 N.2     
  17 C17           -7.7054    -2.2903    -3.1501 C.2     
  18 S18           -7.4352    -1.0967    -1.8789 S.3     
  19 C19           -8.9535    -2.4732    -3.9193 C.ar    
  20 C20           -9.0344    -3.4659    -4.8978 C.ar    
  21 C21          -10.2019    -3.6321    -5.6128 C.ar    
  22 C22          -11.2933    -2.8158    -5.3619 C.ar    
  23 C23          -11.2186    -1.8288    -4.3919 C.ar    
  24 C24          -10.0583    -1.6577    -3.6665 C.ar    
  25 F25          -12.4343    -2.9824    -6.0660 F       
  26 N26           -3.2236    -2.8508    -1.5433 N.am    
  27 C27           -1.9860    -3.2846    -1.3732 C.2     
  28 O28           -1.5226    -4.2030    -2.0245 O.2     
  29 O29            1.3964    -3.9953     2.2483 O.3     
  30 C30            2.0727    -4.5558     3.3755 C.3     
  31 H31            1.0053     1.8021     0.0021 H       
  32 H32           -0.5445     1.7859    -0.8732 H       
  33 H33           -0.5275     1.7763     0.9067 H       
  34 H34            1.1624     1.2144     2.0031 H       
  35 H35            2.2923     0.1098     3.8844 H       
  36 H36            2.4055    -2.3415     4.0040 H       
  37 H37            0.6347    -3.6155    -0.4318 H       
  38 H38           -8.1842    -4.1022    -5.0946 H       
  39 H39          -10.2656    -4.3997    -6.3699 H       
  40 H40          -12.0721    -1.1952    -4.2007 H       
  41 H41          -10.0011    -0.8883    -2.9108 H       
  42 H42           -3.8034    -3.2581    -2.2058 H       
  43 H43            3.1071    -4.2123     3.3863 H       
  44 H44            1.5750    -4.2392     4.2921 H       
  45 H45            2.0517    -5.6435     3.3077 H       
@<TRIPOS>BOND
   1    1    2 1
   2    1   31 1
   3    1   32 1
   4    1   33 1
   5    2    3 1
   6    3    4 ar
   7    3    8 ar
   8    4    5 ar
   9    4   34 1
  10    5    6 ar
  11    5   35 1
  12    6    7 ar
  13    6   36 1
  14    7    8 ar
  15    7   29 1
  16    8    9 1
  17    9   10 2
  18    9   37 1
  19   10   11 1
  20   10   27 1
  21   11   12 1
  22   12   13 2
  23   12   26 1
  24   13   14 1
  25   14   15 2
  26   14   18 1
  27   15   16 1
  28   16   17 2
  29   17   18 1
  30   17   19 1
  31   19   20 ar
  32   19   24 ar
  33   20   21 ar
  34   20   38 1
  35   21   22 ar
  36   21   39 1
  37   22   23 ar
  38   22   25 1
  39   23   24 ar
  40   23   40 1
  41   24   41 1
  42   26   27 am
  43   26   42 1
  44   27   28 2
  45   29   30 1
  46   30   43 1
  47   30   44 1
  48   30   45 1

#	End of record

