#	Name: ASD11000092
#	Creating user name:	WinNT
#	Creation time:	15. 06. 2019 21:28

#	Modifying user name:	WinNT
#	Modification time:	15. 06. 2019 21:28

#	Program:	/corina/corina34_cracker 3.40 0067  02.08.2006

@<TRIPOS>MOLECULE
ASD11000092
  61   64    0    0    0
SMALL
NO_CHARGES


@<TRIPOS>ATOM
   1 C1             0.0965     1.2854     0.1372 C.3     
   2 C2            -0.4344    -0.1191    -0.1563 C.3     
   3 N3             0.0187    -0.5444    -1.4849 N.am    
   4 C4             0.0805    -1.0786     0.8875 C.ar    
   5 C5             0.6527    -2.2875     0.5583 C.ar    
   6 C6            -0.0393    -0.7079     2.2202 C.ar    
   7 C7             1.0943    -3.1360     1.5666 C.ar    
   8 C8             0.9736    -2.7735     2.8952 C.ar    
   9 C9             0.4049    -1.5471     3.2257 C.ar    
  10 C10           -0.0863    -1.9770    -1.8081 C.3     
  11 C11            0.8427    -2.7404    -0.8656 C.3     
  12 O12            0.2854    -1.1769     4.5288 O.3     
  13 C13           -0.3086     0.0963     4.7897 C.3     
  14 O14            1.4088    -3.6109     3.8744 O.3     
  15 C15            1.9819    -4.8523     3.4589 C.3     
  16 C16            0.5110     0.3406    -2.3742 C.2     
  17 O17            0.4791     1.5307    -2.1286 O.2     
  18 C18            1.0899    -0.1360    -3.6484 C.ar    
  19 C19            1.6826    -1.3973    -3.7205 C.ar    
  20 C20            1.0408     0.6715    -4.7861 C.ar    
  21 C21            1.5823     0.2206    -5.9719 C.ar    
  22 C22            2.1732    -1.0290    -6.0353 C.ar    
  23 C23            2.2205    -1.8363    -4.9129 C.ar    
  24 O24            1.5250     1.2719     0.1011 O.3     
  25 C25            2.1598     2.4499     0.3428 C.ar    
  26 C26            3.5455     2.5077     0.3233 C.ar    
  27 C27            1.4216     3.5948     0.6034 C.ar    
  28 C28            2.0665     4.7914     0.8490 C.ar    
  29 C29            3.4522     4.8479     0.8354 C.ar    
  30 C30            4.1903     3.7043     0.5689 C.ar    
  31 O31            4.0870     6.0261     1.0763 O.3     
  32 C32            5.5157     6.0112     1.0467 C.3     
  33 N33            1.5307     1.0752    -7.1793 N.pl3   
  34 O34            1.0105     2.1752    -7.1251 O.2     
  35 O35            2.0084     0.6784    -8.2271 O.2     
  36 H36           -0.2794     1.9802    -0.6139 H       
  37 H37           -0.2390     1.6016     1.1249 H       
  38 H38           -1.5241    -0.1076    -0.1313 H       
  39 H39           -0.4827     0.2437     2.4736 H       
  40 H40            1.5357    -4.0877     1.3098 H       
  41 H41           -1.1134    -2.3128    -1.6656 H       
  42 H42            0.2174    -2.1451    -2.8414 H       
  43 H43            1.8769    -2.5656    -1.1624 H       
  44 H44            0.6261    -3.8064    -0.9346 H       
  45 H45            0.2853     0.8782     4.3164 H       
  46 H46           -1.3210     0.1145     4.3861 H       
  47 H47           -0.3432     0.2674     5.8656 H       
  48 H48            2.8516    -4.6589     2.8310 H       
  49 H49            2.2867    -5.4233     4.3359 H       
  50 H50            1.2445    -5.4216     2.8930 H       
  51 H51            1.7205    -2.0284    -2.8448 H       
  52 H52            0.5795     1.6468    -4.7380 H       
  53 H53            2.5958    -1.3773    -6.9662 H       
  54 H54            2.6835    -2.8104    -4.9689 H       
  55 H55            4.1202     1.6171     0.1163 H       
  56 H56            0.3425     3.5508     0.6139 H       
  57 H57            1.4916     5.6831     1.0512 H       
  58 H58            5.2694     3.7482     0.5587 H       
  59 H59            5.8875     5.3184     1.8016 H       
  60 H60            5.8553     5.6916     0.0615 H       
  61 H61            5.8939     7.0122     1.2544 H       
@<TRIPOS>BOND
   1    1    2 1
   2    1   24 1
   3    1   36 1
   4    1   37 1
   5    2    3 1
   6    2    4 1
   7    2   38 1
   8    3   10 1
   9    3   16 am
  10    4    5 ar
  11    4    6 ar
  12    5    7 ar
  13    5   11 1
  14    6    9 ar
  15    6   39 1
  16    7    8 ar
  17    7   40 1
  18    8    9 ar
  19    8   14 1
  20    9   12 1
  21   10   11 1
  22   10   41 1
  23   10   42 1
  24   11   43 1
  25   11   44 1
  26   12   13 1
  27   13   45 1
  28   13   46 1
  29   13   47 1
  30   14   15 1
  31   15   48 1
  32   15   49 1
  33   15   50 1
  34   16   17 2
  35   16   18 1
  36   18   20 ar
  37   18   19 ar
  38   19   23 ar
  39   19   51 1
  40   20   21 ar
  41   20   52 1
  42   21   22 ar
  43   21   33 1
  44   22   23 ar
  45   22   53 1
  46   23   54 1
  47   24   25 1
  48   25   26 ar
  49   25   27 ar
  50   26   30 ar
  51   26   55 1
  52   27   28 ar
  53   27   56 1
  54   28   29 ar
  55   28   57 1
  56   29   30 ar
  57   29   31 1
  58   30   58 1
  59   31   32 1
  60   32   59 1
  61   32   60 1
  62   32   61 1
  63   33   34 2
  64   33   35 2

#	End of record

