#	Name: ASD10220059
#	Creating user name:	WinNT
#	Creation time:	15. 06. 2019 21:26

#	Modifying user name:	WinNT
#	Modification time:	15. 06. 2019 21:26

#	Program:	/corina/corina34_cracker 3.40 0067  02.08.2006

@<TRIPOS>MOLECULE
ASD10220059
  27   28    0    0    0
SMALL
NO_CHARGES


@<TRIPOS>ATOM
   1 C1            -0.0171     1.4132     0.0098 C.2     
   2 C2             0.0021    -0.0041     0.0020 C.2     
   3 C3            -1.1392    -0.7236     0.0086 C.2     
   4 C4            -2.4559    -0.0910     0.0245 C.2     
   5 C5            -2.5611     1.2914     0.0333 C.2     
   6 C6            -1.3435     2.1174     0.0325 C.2     
   7 O7            -3.7037    -0.5974     0.0336 O.3     
   8 C8            -4.6223     0.3706     0.0480 C.2     
   9 C9            -3.9975     1.5883     0.0489 C.2     
  10 O10           -1.4090     3.3287     0.0406 O.2     
  11 O11            1.0196     2.0463     0.0033 O.2     
  12 C12           -4.6334     2.9168     0.0630 C.2     
  13 O13           -4.8856     3.4585     1.1212 O.2     
  14 Br14           1.6639    -0.9062    -0.0186 Br      
  15 C15           -6.1140     0.1564     0.0605 C.3     
  16 O16           -4.9355     3.5316    -1.0976 O.3     
  17 C17           -5.8268     5.3750    -2.4159 C.3     
  18 C18           -5.5607     4.8390    -1.0077 C.3     
  19 H19           -1.0774    -1.8018     0.0015 H       
  20 H20           -6.3276    -0.9124     0.0563 H       
  21 H21           -6.5384     0.6084     0.9569 H       
  22 H22           -6.5547     0.6185    -0.8229 H       
  23 H23           -4.8841     5.4595    -2.9566 H       
  24 H24           -6.4896     4.6909    -2.9458 H       
  25 H25           -6.2961     6.3565    -2.3484 H       
  26 H26           -6.5034     4.7546    -0.4670 H       
  27 H27           -4.8979     5.5231    -0.4778 H       
@<TRIPOS>BOND
   1    1    2 1
   2    1   11 2
   3    1    6 1
   4    2    3 2
   5    2   14 1
   6    3    4 1
   7    3   19 1
   8    4    5 2
   9    4    7 1
  10    5    6 1
  11    5    9 1
  12    6   10 2
  13    7    8 1
  14    8    9 2
  15    8   15 1
  16    9   12 1
  17   12   13 2
  18   12   16 1
  19   15   20 1
  20   15   21 1
  21   15   22 1
  22   16   18 1
  23   17   18 1
  24   17   23 1
  25   17   24 1
  26   17   25 1
  27   18   26 1
  28   18   27 1

#	End of record

