#	Name: ASD11030008
#	Creating user name:	WinNT
#	Creation time:	15. 06. 2019 21:29

#	Modifying user name:	WinNT
#	Modification time:	15. 06. 2019 21:29

#	Program:	/corina/corina34_cracker 3.40 0067  02.08.2006

@<TRIPOS>MOLECULE
ASD11030008
  26   28    0    0    0
SMALL
NO_CHARGES


@<TRIPOS>ATOM
   1 O1             0.0021    -0.0041     0.0020 O.2     
   2 C2            -0.0144     1.2084     0.0087 C.2     
   3 C3             1.2431     2.0465     0.0012 C.3     
   4 S4             0.6135     3.7581     0.0157 S.3     
   5 C5            -1.0925     3.2775     0.0292 C.2     
   6 N6            -2.1291     4.0875     0.0430 N.2     
   7 C7            -1.9400     5.4328     0.0485 C.2     
   8 N8            -0.7843     6.0500     0.0409 N.2     
   9 N9            -0.7972     7.3109     0.0480 N.2     
  10 C10           -1.9567     7.9062     0.0623 C.2     
  11 S11           -3.2070     6.6611     0.0596 S.3     
  12 C12           -2.1841     9.3662     0.0729 C.ar    
  13 C13           -1.0989    10.2446     0.0674 C.ar    
  14 C14           -1.3176    11.6064     0.0774 C.ar    
  15 C15           -2.6103    12.1028     0.0934 C.ar    
  16 C16           -3.6907    11.2366     0.0994 C.ar    
  17 C17           -3.4850     9.8729     0.0827 C.ar    
  18 Cl18          -2.8774    13.8181     0.1065 Cl      
  19 N19           -1.1341     1.9114     0.0175 N.am    
  20 H20            1.8408     1.8498     0.8912 H       
  21 H21            1.8241     1.8588    -0.9018 H       
  22 H22           -0.0903     9.8586     0.0556 H       
  23 H23           -0.4790    12.2869     0.0731 H       
  24 H24           -4.6966    11.6298     0.1122 H       
  25 H25           -4.3284     9.1983     0.0871 H       
  26 H26           -1.9899     1.4550     0.0220 H       
@<TRIPOS>BOND
   1    1    2 2
   2    2    3 1
   3    2   19 am
   4    3    4 1
   5    3   20 1
   6    3   21 1
   7    4    5 1
   8    5    6 2
   9    5   19 1
  10    6    7 1
  11    7    8 2
  12    7   11 1
  13    8    9 1
  14    9   10 2
  15   10   11 1
  16   10   12 1
  17   12   13 ar
  18   12   17 ar
  19   13   14 ar
  20   13   22 1
  21   14   15 ar
  22   14   23 1
  23   15   16 ar
  24   15   18 1
  25   16   17 ar
  26   16   24 1
  27   17   25 1
  28   19   26 1

#	End of record

