#	Name: ASD10160209
#	Creating user name:	WinNT
#	Creation time:	15. 06. 2019 21:25

#	Modifying user name:	WinNT
#	Modification time:	15. 06. 2019 21:25

#	Program:	/corina/corina34_cracker 3.40 0067  02.08.2006

@<TRIPOS>MOLECULE
ASD10160209
  31   32    0    0    0
SMALL
NO_CHARGES


@<TRIPOS>ATOM
   1 C1            -0.0325     1.4702     0.0132 C.2     
   2 C2            -0.0087    -0.0042     0.0044 C.ar    
   3 C3             1.2062    -0.6859    -0.1327 C.ar    
   4 C4             1.2232    -2.0663    -0.1405 C.ar    
   5 C5             0.0380    -2.7777    -0.0127 C.ar    
   6 C6            -1.1725    -2.1034     0.1234 C.ar    
   7 C7            -1.1988    -0.7256     0.1385 C.ar    
   8 O8             1.0042     2.0957    -0.0986 O.2     
   9 N9            -1.2040     2.1244     0.1397 N.am    
  10 S10           -1.2308     3.7802     0.1497 S.o2    
  11 O11           -2.6029     4.1074     0.3219 O.2     
  12 O12           -0.2636     4.1404     1.1265 O.2     
  13 C13           -0.6671     4.2520    -1.5086 C.3     
  14 F14           -2.3229    -2.8012     0.2465 F       
  15 F15            2.3599     0.0058    -0.2575 F       
  16 O16            0.0593    -4.1353    -0.0209 O.3     
  17 C17           -0.1513    -4.7677    -1.2005 C.ar    
  18 N18           -0.0404    -6.0850    -1.2550 N.ar    
  19 C19           -0.2392    -6.7346    -2.3902 C.ar    
  20 C20           -0.5673    -6.0170    -3.5309 C.ar    
  21 C21           -0.6750    -4.6374    -3.4367 C.ar    
  22 N22           -0.4680    -4.0530    -2.2680 N.ar    
  23 Cl23          -0.8366    -6.8272    -5.0425 Cl      
  24 H24            2.1598    -2.5935    -0.2465 H       
  25 H25           -2.1378    -0.2038     0.2493 H       
  26 H26           -2.0315     1.6255     0.2249 H       
  27 H27           -1.3459     3.8386    -2.2545 H       
  28 H28           -0.6536     5.3387    -1.5923 H       
  29 H29            0.3371     3.8623    -1.6756 H       
  30 H30           -0.1469    -7.8100    -2.4284 H       
  31 H31           -0.9285    -4.0481    -4.3055 H       
@<TRIPOS>BOND
   1    1    2 1
   2    1    8 2
   3    1    9 am
   4    2    3 ar
   5    2    7 ar
   6    3    4 ar
   7    3   15 1
   8    4    5 ar
   9    4   24 1
  10    5    6 ar
  11    5   16 1
  12    6    7 ar
  13    6   14 1
  14    7   25 1
  15    9   10 am
  16    9   26 1
  17   10   11 2
  18   10   12 2
  19   10   13 1
  20   13   27 1
  21   13   28 1
  22   13   29 1
  23   16   17 1
  24   17   18 ar
  25   17   22 ar
  26   18   19 ar
  27   19   20 ar
  28   19   30 1
  29   20   21 ar
  30   20   23 1
  31   21   22 ar
  32   21   31 1

#	End of record

