#	Name: ASD10950007
#	Creating user name:	WinNT
#	Creation time:	15. 06. 2019 21:28

#	Modifying user name:	WinNT
#	Modification time:	15. 06. 2019 21:28

#	Program:	/corina/corina34_cracker 3.40 0067  02.08.2006

@<TRIPOS>MOLECULE
ASD10950007
  64   68    0    0    0
SMALL
NO_CHARGES


@<TRIPOS>ATOM
   1 C1             1.8241    -1.6198    -2.5751 C.3     
   2 O2             1.2634    -2.3825    -1.5046 O.3     
   3 C3            -0.0348    -2.7636    -1.6326 C.ar    
   4 C4            -0.7534    -2.4096    -2.7667 C.ar    
   5 C5            -2.0750    -2.7945    -2.9026 C.ar    
   6 C6            -2.6882    -3.5329    -1.9121 C.ar    
   7 C7            -1.9736    -3.8939    -0.7674 C.ar    
   8 C8            -0.6385    -3.5095    -0.6345 C.ar    
   9 C9            -2.6276    -4.6850     0.2970 C.2     
  10 O10           -1.9775    -5.0844     1.2447 O.2     
  11 C11           -4.0591    -4.9881     0.2104 C.2     
  12 C12           -4.6173    -6.2111     0.0525 C.2     
  13 O13           -3.9370    -7.3757    -0.0529 O.3     
  14 C14           -6.0885    -6.0719     0.0141 C.2     
  15 O15           -6.8726    -6.9906    -0.1176 O.2     
  16 N16           -6.4308    -4.7776     0.1469 N.am    
  17 C17           -5.1964    -3.9963     0.2866 C.3     
  18 C18           -5.1834    -3.2809     1.6129 C.ar    
  19 C19           -4.8716    -1.9338     1.6657 C.ar    
  20 C20           -4.8583    -1.2726     2.8763 C.ar    
  21 C21           -5.1604    -1.9659     4.0501 C.ar    
  22 C22           -5.4741    -3.3251     3.9895 C.ar    
  23 C23           -5.4888    -3.9727     2.7716 C.ar    
  24 C24           -5.1476    -1.2645     5.3502 C.2     
  25 O25           -4.8739    -0.0821     5.3997 O.2     
  26 O26           -5.4396    -1.9363     6.4807 O.3     
  27 C27           -5.4077    -1.1833     7.7218 C.3     
  28 C28           -7.7949    -4.2433     0.1563 C.3     
  29 C29           -8.3227    -4.2178     1.5922 C.3     
  30 C30           -9.7258    -3.6681     1.6020 C.2     
  31 C31          -10.0826    -2.3935     1.8258 C.2     
  32 N32          -11.4435    -2.2707     1.7544 N.pl3   
  33 C33          -12.0099    -3.4943     1.4758 C.ar    
  34 C34          -10.9587    -4.4222     1.3627 C.ar    
  35 C35          -11.2383    -5.7606     1.0798 C.ar    
  36 C36          -12.5335    -6.1626     0.9141 C.ar    
  37 C37          -13.5745    -5.2507     1.0243 C.ar    
  38 C38          -13.3211    -3.9250     1.2994 C.ar    
  39 H39            2.8630    -1.3819    -2.3465 H       
  40 H40            1.7786    -2.1995    -3.4970 H       
  41 H41            1.2586    -0.6962    -2.6983 H       
  42 H42           -0.2787    -1.8311    -3.5455 H       
  43 H43           -2.6286    -2.5157    -3.7870 H       
  44 H44           -3.7203    -3.8315    -2.0212 H       
  45 H45           -0.0806    -3.7858     0.2480 H       
  46 H46           -4.5021    -8.1529    -0.1610 H       
  47 H47           -5.1136    -3.2774    -0.5284 H       
  48 H48           -4.6377    -1.3989     0.7571 H       
  49 H49           -4.6144    -0.2213     2.9161 H       
  50 H50           -5.7084    -3.8673     4.8937 H       
  51 H51           -5.7314    -5.0240     2.7233 H       
  52 H52           -5.6611    -1.8416     8.5528 H       
  53 H53           -4.4085    -0.7750     7.8735 H       
  54 H54           -6.1294    -0.3681     7.6709 H       
  55 H55           -7.7913    -3.2309    -0.2475 H       
  56 H56           -8.4373    -4.8764    -0.4557 H       
  57 H57           -8.3262    -5.2302     1.9961 H       
  58 H58           -7.6802    -3.5847     2.2042 H       
  59 H59           -9.3971    -1.5849     2.0322 H       
  60 H60          -11.9359    -1.4447     1.8814 H       
  61 H61          -10.4336    -6.4755     0.9919 H       
  62 H62          -12.7493    -7.1980     0.6953 H       
  63 H63          -14.5932    -5.5836     0.8903 H       
  64 H64          -14.1377    -3.2233     1.3832 H       
@<TRIPOS>BOND
   1    1    2 1
   2    1   39 1
   3    1   40 1
   4    1   41 1
   5    2    3 1
   6    3    4 ar
   7    3    8 ar
   8    4    5 ar
   9    4   42 1
  10    5    6 ar
  11    5   43 1
  12    6    7 ar
  13    6   44 1
  14    7    8 ar
  15    7    9 1
  16    8   45 1
  17    9   10 2
  18    9   11 1
  19   11   12 2
  20   11   17 1
  21   12   13 1
  22   12   14 1
  23   13   46 1
  24   14   15 2
  25   14   16 am
  26   16   17 1
  27   16   28 1
  28   17   18 1
  29   17   47 1
  30   18   19 ar
  31   18   23 ar
  32   19   20 ar
  33   19   48 1
  34   20   21 ar
  35   20   49 1
  36   21   22 ar
  37   21   24 1
  38   22   23 ar
  39   22   50 1
  40   23   51 1
  41   24   25 2
  42   24   26 1
  43   26   27 1
  44   27   52 1
  45   27   53 1
  46   27   54 1
  47   28   29 1
  48   28   55 1
  49   28   56 1
  50   29   30 1
  51   29   57 1
  52   29   58 1
  53   30   31 2
  54   30   34 1
  55   31   32 1
  56   31   59 1
  57   32   33 1
  58   32   60 1
  59   33   34 ar
  60   33   38 ar
  61   34   35 ar
  62   35   36 ar
  63   35   61 1
  64   36   37 ar
  65   36   62 1
  66   37   38 ar
  67   37   63 1
  68   38   64 1

#	End of record

