#	Name: ASD10420144
#	Creating user name:	WinNT
#	Creation time:	15. 06. 2019 21:27

#	Modifying user name:	WinNT
#	Modification time:	15. 06. 2019 21:27

#	Program:	/corina/corina34_cracker 3.40 0067  02.08.2006

@<TRIPOS>MOLECULE
ASD10420144
  24   25    0    0    0
SMALL
NO_CHARGES


@<TRIPOS>ATOM
   1 C1             0.0072     1.3894     0.3245 C.ar    
   2 C2             1.1770     2.0918     0.1007 C.ar    
   3 C3             0.0346     0.0108     0.4281 C.ar    
   4 C4             2.3766     1.4175    -0.0199 C.ar    
   5 C5             1.2315    -0.6683     0.3083 C.ar    
   6 C6             5.4094     0.4974     0.9932 C.ar    
   7 C7             5.2022     0.4552    -1.4003 C.ar    
   8 C8             6.5676     1.2430     0.8800 C.ar    
   9 C9             6.3601     1.2012    -1.5139 C.ar    
  10 C10            2.4069     0.0341     0.0837 C.ar    
  11 C11            4.7246     0.1022    -0.1466 C.ar    
  12 C12            7.0455     1.5962    -0.3739 C.ar    
  13 O13            8.1850     2.3304    -0.4855 O.3     
  14 O14            3.5855    -0.6316    -0.0351 O.3     
  15 Br15           7.5007     1.7823     2.4338 Br      
  16 Br16           7.0111     1.6824    -3.2228 Br      
  17 H17           -0.9290     1.9188     0.4229 H       
  18 H18            1.1528     3.1685     0.0198 H       
  19 H19           -0.8805    -0.5354     0.6033 H       
  20 H20            3.2899     1.9665    -0.1950 H       
  21 H21            1.2524    -1.7451     0.3896 H       
  22 H22            5.0399     0.2187     1.9690 H       
  23 H23            4.6689     0.1475    -2.2876 H       
  24 H24            8.9908     1.7991    -0.5457 H       
@<TRIPOS>BOND
   1    1    2 ar
   2    1    3 ar
   3    1   17 1
   4    2    4 ar
   5    2   18 1
   6    3    5 ar
   7    3   19 1
   8    4   10 ar
   9    4   20 1
  10    5   10 ar
  11    5   21 1
  12    6    8 ar
  13    6   11 ar
  14    6   22 1
  15    7    9 ar
  16    7   11 ar
  17    7   23 1
  18    8   12 ar
  19    8   15 1
  20    9   12 ar
  21    9   16 1
  22   10   14 1
  23   11   14 1
  24   12   13 1
  25   13   24 1

#	End of record

