#	Name: ASD10950039
#	Creating user name:	WinNT
#	Creation time:	15. 06. 2019 21:28

#	Modifying user name:	WinNT
#	Modification time:	15. 06. 2019 21:28

#	Program:	/corina/corina34_cracker 3.40 0067  02.08.2006

@<TRIPOS>MOLECULE
ASD10950039
  53   56    0    0    0
SMALL
NO_CHARGES


@<TRIPOS>ATOM
   1 C1            -0.4313     1.2897    -1.6602 C.3     
   2 O2            -0.4306    -0.1578    -1.5455 O.3     
   3 C3             0.6273    -0.8117    -2.0632 C.2     
   4 O4             1.5245    -0.1898    -2.5958 O.2     
   5 C5             0.6961    -2.2853    -1.9832 C.ar    
   6 C6             1.7910    -2.9660    -2.5188 C.ar    
   7 C7             1.8496    -4.3423    -2.4410 C.ar    
   8 C8             0.8267    -5.0484    -1.8341 C.ar    
   9 C9            -0.2630    -4.3800    -1.3009 C.ar    
  10 C10           -0.3309    -3.0028    -1.3666 C.ar    
  11 Cl11          -1.5422    -5.2753    -0.5423 Cl      
  12 C12            0.8979    -6.5515    -1.7531 C.3     
  13 N13            1.2007    -7.1141    -3.0742 N.am    
  14 C14            0.3814    -6.9702    -4.2801 C.3     
  15 C15            0.8193    -5.7215    -5.0482 C.3     
  16 C16            0.0531    -5.6337    -6.3429 C.2     
  17 C17            0.4583    -6.0795    -7.5425 C.2     
  18 N18           -0.5023    -5.8257    -8.4832 N.pl3   
  19 C19           -1.5763    -5.1944    -7.8970 C.ar    
  20 C20           -1.2780    -5.0514    -6.5298 C.ar    
  21 C21           -2.1978    -4.4384    -5.6765 C.ar    
  22 C22           -3.3845    -3.9801    -6.1749 C.ar    
  23 C23           -3.6838    -4.1193    -7.5234 C.ar    
  24 C24           -2.7924    -4.7238    -8.3822 C.ar    
  25 C25            2.3634    -7.7847    -2.9830 C.2     
  26 O26            2.9033    -8.3719    -3.8992 O.2     
  27 C27            2.8876    -7.7007    -1.6019 C.2     
  28 C28            2.0316    -6.9695    -0.8460 C.2     
  29 C29            2.1728    -6.6582     0.5271 C.2     
  30 O30            3.1994    -6.9389     1.1106 O.2     
  31 C31            1.0486    -5.9781     1.2650 C.3     
  32 O32            4.0363    -8.2625    -1.1639 O.3     
  33 H33            0.4422     1.6950    -1.1494 H       
  34 H34           -0.3997     1.5708    -2.7128 H       
  35 H35           -1.3370     1.6898    -1.2043 H       
  36 H36            2.5905    -2.4164    -2.9933 H       
  37 H37            2.6962    -4.8697    -2.8554 H       
  38 H38           -1.1808    -2.4822    -0.9507 H       
  39 H39           -0.0461    -6.9515    -1.3830 H       
  40 H40            0.5083    -7.8489    -4.9125 H       
  41 H41           -0.6670    -6.8741    -3.9978 H       
  42 H42            0.6182    -4.8355    -4.4461 H       
  43 H43            1.8867    -5.7816    -5.2611 H       
  44 H44            1.4029    -6.5658    -7.7364 H       
  45 H45           -0.4363    -6.0560    -9.4232 H       
  46 H46           -1.9720    -4.3273    -4.6262 H       
  47 H47           -4.0955    -3.5061    -5.5145 H       
  48 H48           -4.6261    -3.7523    -7.9025 H       
  49 H49           -3.0344    -4.8274    -9.4296 H       
  50 H50            0.4167    -6.7301     1.7375 H       
  51 H51            1.4615    -5.3188     2.0285 H       
  52 H52            0.4543    -5.3934     0.5628 H       
  53 H53            4.5210    -8.7486    -1.8450 H       
@<TRIPOS>BOND
   1    1    2 1
   2    1   33 1
   3    1   34 1
   4    1   35 1
   5    2    3 1
   6    3    4 2
   7    3    5 1
   8    5    6 ar
   9    5   10 ar
  10    6    7 ar
  11    6   36 1
  12    7    8 ar
  13    7   37 1
  14    8    9 ar
  15    8   12 1
  16    9   10 ar
  17    9   11 1
  18   10   38 1
  19   12   13 1
  20   12   28 1
  21   12   39 1
  22   13   14 1
  23   13   25 am
  24   14   15 1
  25   14   40 1
  26   14   41 1
  27   15   16 1
  28   15   42 1
  29   15   43 1
  30   16   17 2
  31   16   20 1
  32   17   18 1
  33   17   44 1
  34   18   19 1
  35   18   45 1
  36   19   20 ar
  37   19   24 ar
  38   20   21 ar
  39   21   22 ar
  40   21   46 1
  41   22   23 ar
  42   22   47 1
  43   23   24 ar
  44   23   48 1
  45   24   49 1
  46   25   26 2
  47   25   27 1
  48   27   28 2
  49   27   32 1
  50   28   29 1
  51   29   30 2
  52   29   31 1
  53   31   50 1
  54   31   51 1
  55   31   52 1
  56   32   53 1

#	End of record

