#	Name: ASD10160553
#	Creating user name:	WinNT
#	Creation time:	15. 06. 2019 21:26

#	Modifying user name:	WinNT
#	Modification time:	15. 06. 2019 21:26

#	Program:	/corina/corina34_cracker 3.40 0067  02.08.2006

@<TRIPOS>MOLECULE
ASD10160553
  48   51    0    0    0
SMALL
NO_CHARGES


@<TRIPOS>ATOM
   1 C1             0.2307     1.4252     0.1570 C.2     
   2 C2             0.2130    -0.0445     0.0614 C.ar    
   3 C3             1.4016    -0.7722     0.2024 C.ar    
   4 C4             1.3791    -2.1491     0.1118 C.ar    
   5 C5             0.1807    -2.8120    -0.1191 C.ar    
   6 C6            -1.0024    -2.0923    -0.2597 C.ar    
   7 C7            -0.9914    -0.7186    -0.1648 C.ar    
   8 O8             1.2776     2.0086     0.3585 O.2     
   9 O9            -0.9135     2.1235     0.0154 O.3     
  10 F10            2.5676    -0.1275     0.4261 F       
  11 O11            0.1632    -4.1660    -0.2083 O.3     
  12 C12            2.0325    -5.3384    -1.1104 C.ar    
  13 C13            1.3325    -4.8327    -0.0228 C.ar    
  14 C14            1.8423    -5.0160     1.2596 C.ar    
  15 C15            3.0370    -5.7008     1.4027 C.ar    
  16 C16            3.6846    -6.1804     0.2646 C.ar    
  17 N17            3.1667    -5.9855    -0.9412 N.ar    
  18 C18            4.9654    -6.9152     0.4035 C.ar    
  19 C19            5.2640    -7.9694    -0.4580 C.ar    
  20 C20            6.4575    -8.6493    -0.3244 C.ar    
  21 C21            7.3566    -8.2863     0.6622 C.ar    
  22 C22            7.0654    -7.2412     1.5203 C.ar    
  23 C23            5.8774    -6.5504     1.3923 C.ar    
  24 Cl24           3.7199    -5.9584     2.9778 Cl      
  25 Cl25          -2.4960    -2.9287    -0.5481 Cl      
  26 C26           -0.8218     3.4780     0.0812 C.ar    
  27 C27           -0.3733     4.1982    -1.0165 C.ar    
  28 C28           -0.2810     5.5748    -0.9471 C.ar    
  29 C29           -0.6348     6.2348     0.2152 C.ar    
  30 C30           -1.0821     5.5193     1.3106 C.ar    
  31 C31           -1.1820     4.1431     1.2442 C.ar    
  32 C32           -0.5322     7.7365     0.2885 C.3     
  33 H33            2.2945    -2.7118     0.2203 H       
  34 H34           -1.9110    -0.1620    -0.2697 H       
  35 H35            1.6395    -5.2031    -2.1072 H       
  36 H36            1.3182    -4.6327     2.1226 H       
  37 H37            4.5626    -8.2538    -1.2283 H       
  38 H38            6.6898    -9.4665    -0.9911 H       
  39 H39            8.2894    -8.8212     0.7631 H       
  40 H40            7.7707    -6.9625     2.2892 H       
  41 H41            5.6531    -5.7315     2.0598 H       
  42 H42           -0.0962     3.6830    -1.9244 H       
  43 H43            0.0681     6.1359    -1.8013 H       
  44 H44           -1.3578     6.0372     2.2173 H       
  45 H45           -1.5357     3.5851     2.0986 H       
  46 H46           -1.4734     8.1812    -0.0348 H       
  47 H47           -0.3221     8.0367     1.3151 H       
  48 H48            0.2732     8.0778    -0.3619 H       
@<TRIPOS>BOND
   1    1    2 1
   2    1    8 2
   3    1    9 1
   4    2    3 ar
   5    2    7 ar
   6    3    4 ar
   7    3   10 1
   8    4    5 ar
   9    4   33 1
  10    5    6 ar
  11    5   11 1
  12    6    7 ar
  13    6   25 1
  14    7   34 1
  15    9   26 1
  16   11   13 1
  17   12   13 ar
  18   12   17 ar
  19   12   35 1
  20   13   14 ar
  21   14   15 ar
  22   14   36 1
  23   15   16 ar
  24   15   24 1
  25   16   17 ar
  26   16   18 1
  27   18   19 ar
  28   18   23 ar
  29   19   20 ar
  30   19   37 1
  31   20   21 ar
  32   20   38 1
  33   21   22 ar
  34   21   39 1
  35   22   23 ar
  36   22   40 1
  37   23   41 1
  38   26   27 ar
  39   26   31 ar
  40   27   28 ar
  41   27   42 1
  42   28   29 ar
  43   28   43 1
  44   29   30 ar
  45   29   32 1
  46   30   31 ar
  47   30   44 1
  48   31   45 1
  49   32   46 1
  50   32   47 1
  51   32   48 1

#	End of record

