#	Name: ASD10220003
#	Creating user name:	WinNT
#	Creation time:	15. 06. 2019 21:26

#	Modifying user name:	WinNT
#	Modification time:	15. 06. 2019 21:26

#	Program:	/corina/corina34_cracker 3.40 0067  02.08.2006

@<TRIPOS>MOLECULE
ASD10220003
  27   29    0    0    0
SMALL
NO_CHARGES


@<TRIPOS>ATOM
   1 C1            -0.0064     1.4648    -0.1711 C.2     
   2 C2             0.0236     0.0553    -0.3197 C.2     
   3 C3            -1.1119    -0.6708    -0.3762 C.2     
   4 C4            -2.4338    -0.0542    -0.2880 C.2     
   5 C5            -2.5490     1.3194    -0.1412 C.2     
   6 C6            -1.3380     2.1518    -0.0695 C.2     
   7 O7            -3.6760    -0.5735    -0.3209 O.3     
   8 C8            -4.6064     0.3761    -0.2045 C.2     
   9 C9            -3.9872     1.6034    -0.0860 C.2     
  10 O10           -1.4128     3.3557     0.0592 O.2     
  11 O11            1.0253     2.1040    -0.1219 O.2     
  12 Br12           1.6920    -0.8263    -0.4419 Br      
  13 C13           -4.6329     2.9189     0.0647 C.2     
  14 O14           -3.9562     3.9086     0.2682 O.2     
  15 C15           -6.1031     3.0358    -0.0316 C.ar    
  16 C16           -6.8285     2.1365    -0.8161 C.ar    
  17 C17           -8.2004     2.2512    -0.9010 C.ar    
  18 C18           -8.8581     3.2544    -0.2112 C.ar    
  19 C19           -8.1455     4.1493     0.5676 C.ar    
  20 C20           -6.7738     4.0426     0.6661 C.ar    
  21 H21           -1.0418    -1.7424    -0.4907 H       
  22 H22           -5.6737     0.2104    -0.2032 H       
  23 H23           -6.3164     1.3533    -1.3552 H       
  24 H24           -8.7625     1.5566    -1.5076 H       
  25 H25           -9.9324     3.3397    -0.2812 H       
  26 H26           -8.6650     4.9301     1.1031 H       
  27 H27           -6.2189     4.7414     1.2745 H       
@<TRIPOS>BOND
   1    1    2 1
   2    1   11 2
   3    1    6 1
   4    2    3 2
   5    2   12 1
   6    3    4 1
   7    3   21 1
   8    4    5 2
   9    4    7 1
  10    5    6 1
  11    5    9 1
  12    6   10 2
  13    7    8 1
  14    8    9 2
  15    8   22 1
  16    9   13 1
  17   13   14 2
  18   13   15 1
  19   15   16 ar
  20   15   20 ar
  21   16   17 ar
  22   16   23 1
  23   17   18 ar
  24   17   24 1
  25   18   19 ar
  26   18   25 1
  27   19   20 ar
  28   19   26 1
  29   20   27 1

#	End of record

