#	Name: ASD10220001
#	Creating user name:	WinNT
#	Creation time:	15. 06. 2019 21:26

#	Modifying user name:	WinNT
#	Modification time:	15. 06. 2019 21:26

#	Program:	/corina/corina34_cracker 3.40 0067  02.08.2006

@<TRIPOS>MOLECULE
ASD10220001
  88   91    0    0    0
SMALL
NO_CHARGES


@<TRIPOS>ATOM
   1 C1            -0.4750     0.3413     0.9216 C.3     
   2 C2            -0.6815    -0.3554     2.2691 C.3     
   3 O3             0.2767     0.1349     3.2091 O.3     
   4 C4             1.6352    -0.1077     2.8379 C.3     
   5 C5             1.9347     0.5989     1.5132 C.3     
   6 C6             0.9597     0.0969     0.4438 C.3     
   7 O7            -0.6960     1.7452     1.0710 O.3     
   8 C8            -2.0936    -0.0660     2.7819 C.3     
   9 N9            -2.2915    -0.7346     4.0749 N.3     
  10 O10            1.1613    -1.3018     0.2319 O.3     
  11 N11            3.3127     0.3023     1.0993 N.3     
  12 O12            2.5042     0.3964     3.8541 O.3     
  13 C13            2.4656    -0.3476     5.0735 C.3     
  14 C14            3.8285    -0.2660     5.7641 C.3     
  15 C15            3.7872    -1.0626     7.0697 C.3     
  16 C16            2.7134    -0.4784     7.9898 C.3     
  17 C17            1.3505    -0.5600     7.2992 C.3     
  18 C18            1.3919     0.2366     5.9936 C.3     
  19 N19            1.7091     1.6407     6.2866 N.3     
  20 O20            3.4786    -2.4285     6.7847 O.3     
  21 N21            2.6737    -1.2433     9.2433 N.3     
  22 O22            4.8314    -0.8116     4.9047 O.3     
  23 C23            6.1240    -0.2268     5.0754 C.3     
  24 O24            6.1087     1.1566     4.6608 O.3     
  25 C25            7.1496    -0.9073     4.1419 C.3     
  26 C26            8.0685     0.2488     3.6874 C.3     
  27 C27            7.4893     1.4910     4.4001 C.3     
  28 C28            7.5775     2.7171     3.4892 C.3     
  29 O29            7.1457     3.8753     4.2062 O.3     
  30 O30            6.4911    -1.4948     3.0180 O.3     
  31 O31            9.4142     0.0132     4.1064 O.3     
  32 C32           10.4002     0.5759     3.2386 C.3     
  33 C33           11.7840     0.4333     3.8776 C.3     
  34 C34           12.1086    -1.0540     4.0474 C.3     
  35 C35           12.0252    -1.7426     2.6817 C.3     
  36 C36           10.6321    -1.5160     2.0888 C.3     
  37 O37           10.3819    -0.1127     1.9866 O.3     
  38 O38           13.4286    -1.1979     4.5755 O.3     
  39 C39           10.5601    -2.1497     0.6981 C.3     
  40 N40            9.2232    -1.9322     0.1294 N.3     
  41 O41           13.0118    -1.1907     1.8075 O.3     
  42 N42           12.7916     1.0600     3.0116 N.3     
  43 H43           -1.1759    -0.0630     0.1913 H       
  44 H44           -0.5525    -1.4307     2.1459 H       
  45 H45            1.7945    -1.1798     2.7221 H       
  46 H46            1.8149     1.6750     1.6391 H       
  47 H47            1.1307     0.6365    -0.4877 H       
  48 H48           -0.5819     2.2504     0.2544 H       
  49 H49           -2.2221     1.0093     2.9055 H       
  50 H50           -2.8244    -0.4392     2.0644 H       
  51 H51           -1.5859    -0.4535     4.7391 H       
  52 H52           -3.2176    -0.5587     4.4350 H       
  53 H53            0.5712    -1.6885    -0.4295 H       
  54 H54            3.9745     0.6197     1.7916 H       
  55 H55            3.4299    -0.6821     0.9115 H       
  56 H56            2.2303    -1.3895     4.8561 H       
  57 H57            4.0638     0.7759     5.9814 H       
  58 H58            4.7581    -1.0045     7.5616 H       
  59 H59            2.9488     0.5634     8.2072 H       
  60 H60            1.1152    -1.6019     7.0819 H       
  61 H61            0.5856    -0.1438     7.9547 H       
  62 H62            0.4209     0.1784     5.5017 H       
  63 H63            1.0140     2.0495     6.8931 H       
  64 H64            2.6322     1.7274     6.6844 H       
  65 H65            3.4358    -2.9938     7.5681 H       
  66 H66            1.9718    -0.8767     9.8686 H       
  67 H67            2.5211    -2.2243     9.0637 H       
  68 H68            6.4421    -0.3079     6.1147 H       
  69 H69            7.7218    -1.6585     4.6862 H       
  70 H70            8.0222     0.3706     2.6052 H       
  71 H71            8.0187     1.6732     5.3353 H       
  72 H72            8.6087     2.8547     3.1639 H       
  73 H73            6.9385     2.5696     2.6185 H       
  74 H74            7.1752     4.6918     3.6890 H       
  75 H75            5.8566    -2.1863     3.2512 H       
  76 H76           10.1817     1.6314     3.0763 H       
  77 H77           11.7868     0.9204     4.8528 H       
  78 H78           11.3900    -1.5085     4.7294 H       
  79 H79           12.2017    -2.8116     2.8013 H       
  80 H80            9.8830    -1.9726     2.7357 H       
  81 H81           13.7009    -2.1162     4.7089 H       
  82 H82           11.3089    -1.6926     0.0513 H       
  83 H83           10.7520    -3.2199     0.7761 H       
  84 H84            8.9956    -0.9494     0.1065 H       
  85 H85            9.1503    -2.3418    -0.7898 H       
  86 H86           13.9197    -1.2942     2.1238 H       
  87 H87           12.5958     2.0411     2.8804 H       
  88 H88           13.7208     0.9228     3.3801 H       
@<TRIPOS>BOND
   1    1    2 1
   2    1    6 1
   3    1    7 1
   4    1   43 1
   5    2    3 1
   6    2    8 1
   7    2   44 1
   8    3    4 1
   9    4    5 1
  10    4   12 1
  11    4   45 1
  12    5    6 1
  13    5   11 1
  14    5   46 1
  15    6   10 1
  16    6   47 1
  17    7   48 1
  18    8    9 1
  19    8   49 1
  20    8   50 1
  21    9   51 1
  22    9   52 1
  23   10   53 1
  24   11   54 1
  25   11   55 1
  26   12   13 1
  27   13   14 1
  28   13   18 1
  29   13   56 1
  30   14   15 1
  31   14   22 1
  32   14   57 1
  33   15   20 1
  34   15   16 1
  35   15   58 1
  36   16   17 1
  37   16   21 1
  38   16   59 1
  39   17   18 1
  40   17   60 1
  41   17   61 1
  42   18   19 1
  43   18   62 1
  44   19   63 1
  45   19   64 1
  46   20   65 1
  47   21   66 1
  48   21   67 1
  49   22   23 1
  50   23   24 1
  51   23   25 1
  52   23   68 1
  53   24   27 1
  54   25   26 1
  55   25   30 1
  56   25   69 1
  57   26   31 1
  58   26   27 1
  59   26   70 1
  60   27   28 1
  61   27   71 1
  62   28   29 1
  63   28   72 1
  64   28   73 1
  65   29   74 1
  66   30   75 1
  67   31   32 1
  68   32   33 1
  69   32   37 1
  70   32   76 1
  71   33   34 1
  72   33   42 1
  73   33   77 1
  74   34   35 1
  75   34   38 1
  76   34   78 1
  77   35   41 1
  78   35   36 1
  79   35   79 1
  80   36   37 1
  81   36   39 1
  82   36   80 1
  83   38   81 1
  84   39   40 1
  85   39   82 1
  86   39   83 1
  87   40   84 1
  88   40   85 1
  89   41   86 1
  90   42   87 1
  91   42   88 1

#	End of record

