#	Name: ASD10100018
#	Creating user name:	WinNT
#	Creation time:	15. 06. 2019 21:24

#	Modifying user name:	WinNT
#	Modification time:	15. 06. 2019 21:24

#	Program:	/corina/corina34_cracker 3.40 0067  02.08.2006

@<TRIPOS>MOLECULE
ASD10100018
  48   50    0    0    0
SMALL
NO_CHARGES


@<TRIPOS>ATOM
   1 C1            -1.3657    -0.7599    -3.2265 C.3     
   2 C2            -0.8272    -1.9004    -2.4018 C.ar    
   3 C3            -0.5773    -1.7211    -1.0539 C.ar    
   4 C4            -0.5884    -3.1274    -2.9917 C.ar    
   5 C5            -0.0944    -4.1737    -2.2350 C.ar    
   6 C6             0.1612    -3.9927    -0.8889 C.ar    
   7 C7            -0.0833    -2.7672    -0.2975 C.ar    
   8 C8             0.1895    -2.5716     1.1717 C.3     
   9 N9            -1.0120    -2.9058     1.9402 N.am    
  10 C10           -1.2053    -4.1951     2.3817 C.2     
  11 N11           -0.2753    -5.1710     2.1050 N.pl3   
  12 C12           -1.9178    -1.9494     2.2153 C.2     
  13 O13           -1.7281    -0.8146     1.8214 O.2     
  14 N14           -3.0300    -2.2289     2.9186 N.am    
  15 C15           -3.2629    -3.4782     3.3665 C.2     
  16 O16           -4.2738    -3.7232     4.0035 O.2     
  17 C17           -2.3310    -4.4970     3.0989 C.2     
  18 N18           -2.5537    -5.8138     3.5645 N.am    
  19 C19           -2.2552    -6.9571     2.6985 C.3     
  20 S20           -3.1518    -6.0631     5.0884 S.o2    
  21 O21           -2.3440    -7.0736     5.6762 O.2     
  22 O22           -3.3295    -4.7767     5.6652 O.2     
  23 C23           -4.7625    -6.7550     4.9097 C.ar    
  24 C24           -4.9222    -8.1266     4.8449 C.ar    
  25 C25           -6.1858    -8.6693     4.7047 C.ar    
  26 C26           -7.2896    -7.8406     4.6298 C.ar    
  27 C27           -7.1299    -6.4691     4.6955 C.ar    
  28 C28           -5.8668    -5.9264     4.8401 C.ar    
  29 H29           -0.5357    -0.1889    -3.6427 H       
  30 H30           -1.9776    -1.1551    -4.0374 H       
  31 H31           -1.9733    -0.1107    -2.5960 H       
  32 H32           -0.7677    -0.7636    -0.5921 H       
  33 H33           -0.7882    -3.2688    -4.0436 H       
  34 H34            0.0915    -5.1326    -2.6958 H       
  35 H35            0.5468    -4.8102    -0.2977 H       
  36 H36            1.0095    -3.2210     1.4785 H       
  37 H37            0.4610    -1.5321     1.3555 H       
  38 H38            0.6712    -4.9601     2.1306 H       
  39 H39           -0.5662    -6.0696     1.8844 H       
  40 H40           -3.6700    -1.5244     3.1054 H       
  41 H41           -1.2681    -7.3499     2.9427 H       
  42 H42           -3.0037    -7.7345     2.8522 H       
  43 H43           -2.2716    -6.6378     1.6565 H       
  44 H44           -4.0598    -8.7740     4.9035 H       
  45 H45           -5.7424    -4.8551     4.8952 H       
  46 H46           -6.3105    -9.7409     4.6534 H       
  47 H47           -8.2768    -8.2646     4.5196 H       
  48 H48           -7.9923    -5.8216     4.6367 H       
@<TRIPOS>BOND
   1    1    2 1
   2    1   29 1
   3    1   30 1
   4    1   31 1
   5    2    3 ar
   6    2    4 ar
   7    3    7 ar
   8    3   32 1
   9    4    5 ar
  10    4   33 1
  11    5    6 ar
  12    5   34 1
  13    6    7 ar
  14    6   35 1
  15    7    8 1
  16    8    9 1
  17    8   36 1
  18    8   37 1
  19    9   10 1
  20    9   12 am
  21   10   11 1
  22   10   17 2
  23   11   38 1
  24   11   39 1
  25   12   13 2
  26   12   14 am
  27   14   15 am
  28   14   40 1
  29   15   16 2
  30   15   17 1
  31   17   18 1
  32   18   19 1
  33   18   20 am
  34   19   41 1
  35   19   42 1
  36   19   43 1
  37   20   21 2
  38   20   22 2
  39   20   23 1
  40   23   24 ar
  41   23   28 ar
  42   24   25 ar
  43   24   44 1
  44   25   26 ar
  45   25   46 1
  46   26   27 ar
  47   26   47 1
  48   27   28 ar
  49   27   48 1
  50   28   45 1

#	End of record

