#	Name: ASD10160235
#	Creating user name:	WinNT
#	Creation time:	15. 06. 2019 21:25

#	Modifying user name:	WinNT
#	Modification time:	15. 06. 2019 21:25

#	Program:	/corina/corina34_cracker 3.40 0067  02.08.2006

@<TRIPOS>MOLECULE
ASD10160235
  38   40    0    0    0
SMALL
NO_CHARGES


@<TRIPOS>ATOM
   1 C1            -0.1351     1.4673     0.0331 C.2     
   2 C2            -0.0843    -0.0063     0.0190 C.ar    
   3 C3             1.1408    -0.6651    -0.1384 C.ar    
   4 C4             1.1832    -2.0448    -0.1505 C.ar    
   5 C5             0.0132    -2.7784    -0.0068 C.ar    
   6 C6            -1.2075    -2.1268     0.1500 C.ar    
   7 C7            -1.2589    -0.7499     0.1686 C.ar    
   8 O8             0.8882     2.1121    -0.0921 O.2     
   9 N9            -1.3164     2.0995     0.1792 N.am    
  10 O10            0.0593    -4.1349    -0.0197 O.3     
  11 N11           -0.1600    -8.1467    -2.6133 N.ar    
  12 C12            0.1479    -8.8748    -1.5673 C.ar    
  13 C13            0.3800    -8.3026    -0.3191 C.ar    
  14 C14            0.2891    -6.9480    -0.1625 C.ar    
  15 C15           -0.0408    -6.1708    -1.2865 C.ar    
  16 C16           -0.1522    -4.7686    -1.2014 C.ar    
  17 C17           -0.4781    -4.0468    -2.3288 C.ar    
  18 C18           -0.6973    -4.6891    -3.5434 C.ar    
  19 C19           -0.5961    -6.0426    -3.6529 C.ar    
  20 C20           -0.2649    -6.8162    -2.5277 C.ar    
  21 S21           -1.3734     3.7544     0.1950 S.o2    
  22 O22           -2.7485     4.0558     0.3887 O.2     
  23 O23           -0.3985     4.1295     1.1584 O.2     
  24 C24           -0.8433     4.2416    -1.4700 C.3     
  25 F25           -2.3427    -2.8459     0.2893 F       
  26 F26            2.2795     0.0482    -0.2787 F       
  27 H27            2.1277    -2.5542    -0.2722 H       
  28 H28           -2.2057    -0.2457     0.2944 H       
  29 H29           -2.1331     1.5851     0.2751 H       
  30 H30            0.2232    -9.9466    -1.6766 H       
  31 H31            0.6312    -8.9287     0.5244 H       
  32 H32            0.4655    -6.4874     0.7983 H       
  33 H33           -0.5647    -2.9720    -2.2691 H       
  34 H34           -0.9524    -4.1040    -4.4146 H       
  35 H35           -0.7702    -6.5217    -4.6050 H       
  36 H36           -1.5256     3.8179    -2.2070 H       
  37 H37           -0.8511     5.3286    -1.5502 H       
  38 H38            0.1652     3.8709    -1.6532 H       
@<TRIPOS>BOND
   1    1    2 1
   2    1    8 2
   3    1    9 am
   4    2    3 ar
   5    2    7 ar
   6    3    4 ar
   7    3   26 1
   8    4    5 ar
   9    4   27 1
  10    5    6 ar
  11    5   10 1
  12    6    7 ar
  13    6   25 1
  14    7   28 1
  15    9   21 am
  16    9   29 1
  17   10   16 1
  18   11   12 ar
  19   11   20 ar
  20   12   13 ar
  21   12   30 1
  22   13   14 ar
  23   13   31 1
  24   14   15 ar
  25   14   32 1
  26   15   16 ar
  27   15   20 ar
  28   16   17 ar
  29   17   18 ar
  30   17   33 1
  31   18   19 ar
  32   18   34 1
  33   19   20 ar
  34   19   35 1
  35   21   22 2
  36   21   23 2
  37   21   24 1
  38   24   36 1
  39   24   37 1
  40   24   38 1

#	End of record

