#	Name: ASD10420131
#	Creating user name:	WinNT
#	Creation time:	15. 06. 2019 21:27

#	Modifying user name:	WinNT
#	Modification time:	15. 06. 2019 21:27

#	Program:	/corina/corina34_cracker 3.40 0067  02.08.2006

@<TRIPOS>MOLECULE
ASD10420131
  23   24    0    0    0
SMALL
NO_CHARGES


@<TRIPOS>ATOM
   1 Cl1            0.0021    -0.0041     0.0020 Cl      
   2 Cl2           -2.7738     4.6406     0.0535 Cl      
   3 Cl3            6.2875     6.9014    -0.0190 Cl      
   4 Cl4            3.5679     8.4251     0.0147 Cl      
   5 C5            -0.0215     1.7317     0.0116 C.ar    
   6 C6             1.1647     2.4375     0.0040 C.ar    
   7 C7             1.1451     3.8310     0.0117 C.ar    
   8 C8            -0.0729     4.5083     0.0270 C.ar    
   9 C9            -1.2562     3.7978     0.0344 C.ar    
  10 C10           -1.2339     2.4091     0.0210 C.ar    
  11 C11            2.4186     4.5922     0.0041 C.ar    
  12 C12            2.4001     5.9853     0.0118 C.ar    
  13 C13            3.5885     6.6892     0.0052 C.ar    
  14 C14            4.7968     6.0118    -0.0095 C.ar    
  15 C15            4.8192     4.6276    -0.0172 C.ar    
  16 C16            3.6372     3.9158    -0.0049 C.ar    
  17 O17           -2.4006     1.7118     0.0223 O.3     
  18 H18            2.1072     1.9103    -0.0074 H       
  19 H19           -0.0908     5.5882     0.0333 H       
  20 H20            1.4583     6.5138     0.0225 H       
  21 H21            5.7637     4.1040    -0.0290 H       
  22 H22            3.6563     2.8360    -0.0066 H       
  23 H23           -2.7342     1.5050     0.9060 H       
@<TRIPOS>BOND
   1    1    5 1
   2    2    9 1
   3    3   14 1
   4    4   13 1
   5    5    6 ar
   6    5   10 ar
   7    6    7 ar
   8    6   18 1
   9    7    8 ar
  10    7   11 1
  11    8    9 ar
  12    8   19 1
  13    9   10 ar
  14   10   17 1
  15   11   12 ar
  16   11   16 ar
  17   12   13 ar
  18   12   20 1
  19   13   14 ar
  20   14   15 ar
  21   15   16 ar
  22   15   21 1
  23   16   22 1
  24   17   23 1

#	End of record

