#	Name: ASD10610036
#	Creating user name:	WinNT
#	Creation time:	15. 06. 2019 21:27

#	Modifying user name:	WinNT
#	Modification time:	15. 06. 2019 21:27

#	Program:	/corina/corina34_cracker 3.40 0067  02.08.2006

@<TRIPOS>MOLECULE
ASD10610036
  60   65    0    0    0
SMALL
NO_CHARGES


@<TRIPOS>ATOM
   1 C1             2.0139     3.5150    -2.7436 C.ar    
   2 N2             3.1260     3.5009    -3.4522 N.ar    
   3 C3             4.1394     2.7241    -3.1117 C.ar    
   4 C4             4.0173     1.9094    -1.9803 C.ar    
   5 C5             2.8190     1.9573    -1.2591 C.ar    
   6 N6             1.8567     2.7638    -1.6713 N.ar    
   7 C7             5.1229     1.0229    -1.5593 C.2     
   8 O8             6.1563     0.9945    -2.1987 O.2     
   9 N9             4.9850     0.2461    -0.4666 N.am    
  10 C10            6.0348    -0.7122    -0.1118 C.3     
  11 C11            7.4424    -0.1619     0.1264 C.3     
  12 C12            6.6004    -0.6468     1.3083 C.3     
  13 C13            5.9181    -2.0710    -0.7530 C.2     
  14 N14            4.7036    -2.6204    -0.9515 N.am    
  15 O15            6.9172    -2.6701    -1.0904 O.2     
  16 C16            4.5933    -3.9849    -1.4732 C.3     
  17 C17            3.2505    -4.6145    -1.0460 C.3     
  18 C18            2.3310    -4.2749    -2.2381 C.3     
  19 C19            3.2583    -4.1343    -3.4264 C.ar    
  20 C20            2.9836    -4.1509    -4.7815 C.ar    
  21 C21            4.0146    -3.9994    -5.7054 C.ar    
  22 C22            5.3240    -3.8318    -5.2568 C.ar    
  23 C23            5.5882    -3.8171    -3.9039 C.ar    
  24 C24            4.5594    -3.9676    -2.9868 C.ar    
  25 C25            3.7215    -4.0169    -7.1585 C.ar    
  26 C26            4.2168    -3.0000    -7.9906 C.ar    
  27 C27            3.9342    -3.0275    -9.3557 C.ar    
  28 C28            3.1698    -4.0529    -9.8820 C.ar    
  29 C29            2.6822    -5.0547    -9.0599 C.ar    
  30 C30            2.9589    -5.0442    -7.7056 C.ar    
  31 O31            6.0452    -0.7577    -6.0282 O.3     
  32 N32            5.3727    -1.7578    -6.1651 N.2     
  33 C33            5.0349    -1.9035    -7.4209 C.2     
  34 N34            5.5730    -0.8658    -8.1017 N.2     
  35 C35            6.2086    -0.1503    -7.2077 C.2     
  36 C36            6.9791     1.1198    -7.4610 C.3     
  37 F37            4.4063    -2.0530   -10.1635 F       
  38 Cl38           1.7237    -6.3350    -9.7350 Cl      
  39 H39            1.2078     4.1658    -3.0488 H       
  40 H40            5.0468     2.7178    -3.6972 H       
  41 H41            2.6827     1.3448    -0.3801 H       
  42 H42            4.1907     0.3216     0.0850 H       
  43 H43            8.2841    -0.7829    -0.1802 H       
  44 H44            7.5874     0.9130     0.0192 H       
  45 H45            6.1914     0.1091     1.9786 H       
  46 H46            6.8881    -1.5868     1.7791 H       
  47 H47            3.9025    -2.1123    -0.7491 H       
  48 H48            5.4257    -4.5939    -1.1205 H       
  49 H49            3.3488    -5.6936    -0.9278 H       
  50 H50            2.8816    -4.1552    -0.1290 H       
  51 H51            1.6182    -5.0819    -2.4079 H       
  52 H52            1.8056    -3.3375    -2.0554 H       
  53 H53            1.9677    -4.2811    -5.1241 H       
  54 H54            6.1290    -3.7141    -5.9671 H       
  55 H55            6.6025    -3.6876    -3.5564 H       
  56 H56            2.9518    -4.0720   -10.9396 H       
  57 H57            2.5791    -5.8312    -7.0710 H       
  58 H58            7.3969     1.4846    -6.5227 H       
  59 H59            7.7869     0.9203    -8.1652 H       
  60 H60            6.3109     1.8730    -7.8784 H       
@<TRIPOS>BOND
   1    1    2 ar
   2    1    6 ar
   3    1   39 1
   4    2    3 ar
   5    3    4 ar
   6    3   40 1
   7    4    5 ar
   8    4    7 1
   9    5    6 ar
  10    5   41 1
  11    7    8 2
  12    7    9 am
  13    9   10 1
  14    9   42 1
  15   10   11 1
  16   10   12 1
  17   10   13 1
  18   11   12 1
  19   11   43 1
  20   11   44 1
  21   12   45 1
  22   12   46 1
  23   13   14 am
  24   13   15 2
  25   14   16 1
  26   14   47 1
  27   16   17 1
  28   16   24 1
  29   16   48 1
  30   17   18 1
  31   17   49 1
  32   17   50 1
  33   18   19 1
  34   18   51 1
  35   18   52 1
  36   19   20 ar
  37   19   24 ar
  38   20   21 ar
  39   20   53 1
  40   21   22 ar
  41   21   25 1
  42   22   23 ar
  43   22   54 1
  44   23   24 ar
  45   23   55 1
  46   25   26 ar
  47   25   30 ar
  48   26   27 ar
  49   26   33 1
  50   27   28 ar
  51   27   37 1
  52   28   29 ar
  53   28   56 1
  54   29   30 ar
  55   29   38 1
  56   30   57 1
  57   31   32 1
  58   31   35 1
  59   32   33 2
  60   33   34 1
  61   34   35 2
  62   35   36 1
  63   36   58 1
  64   36   59 1
  65   36   60 1

#	End of record

