#	Name: ASD13570002
#	Creating user name:	WinNT
#	Creation time:	15. 06. 2019 21:30

#	Modifying user name:	WinNT
#	Modification time:	15. 06. 2019 21:30

#	Program:	/corina/corina34_cracker 3.40 0067  02.08.2006

@<TRIPOS>MOLECULE
ASD13570002
  35   38    0    0    0
SMALL
NO_CHARGES


@<TRIPOS>ATOM
   1 C1            -0.2577     1.5340     0.1823 C.ar    
   2 C2            -0.3991     0.1709     0.3557 C.ar    
   3 C3             0.7164    -0.6311     0.5388 C.ar    
   4 C4             2.1348     1.3013     0.3706 C.ar    
   5 C5             1.0079     2.1126     0.1923 C.ar    
   6 C6            -1.4838     2.3838    -0.0234 C.3     
   7 C7             1.1872     3.5642     0.0292 C.2     
   8 C8            -1.4157     3.0510    -1.3683 C.2     
   9 N9             0.5357     4.3177    -0.7760 N.2     
  10 N10           -0.4480     3.9249    -1.6662 N.am    
  11 O11           -2.2571     2.7907    -2.2026 O.2     
  12 C12            2.2146     4.2131     0.8737 C.ar    
  13 C13            2.7950     5.4162     0.4683 C.ar    
  14 C14            3.7514     6.0182     1.2566 C.ar    
  15 C15            4.1389     5.4281     2.4548 C.ar    
  16 C16            3.5623     4.2295     2.8611 C.ar    
  17 C17            2.6010     3.6263     2.0799 C.ar    
  18 O18            0.8413    -1.9765     0.7320 O.3     
  19 C19            2.1664    -2.1676     1.2618 C.3     
  20 O20            2.9091    -1.0516     0.7369 O.3     
  21 C21            1.9893    -0.0608     0.5436 C.ar    
  22 N22            5.1081     6.0393     3.2503 N.pl3   
  23 H23           -1.3840    -0.2722     0.3489 H       
  24 H24            3.1208     1.7421     0.3726 H       
  25 H25           -2.3731     1.7555     0.0254 H       
  26 H26           -1.5336     3.1437     0.7565 H       
  27 H27           -0.4351     4.3055    -2.5583 H       
  28 H28            2.4950     5.8745    -0.4624 H       
  29 H29            4.2008     6.9490     0.9435 H       
  30 H30            3.8651     3.7735     3.7921 H       
  31 H31            2.1500     2.6980     2.3982 H       
  32 H32            2.1510    -2.1390     2.3513 H       
  33 H33            2.5881    -3.1085     0.9084 H       
  34 H34            5.5110     6.8751     2.9676 H       
  35 H35            5.3790     5.6285     4.0862 H       
@<TRIPOS>BOND
   1    1    2 ar
   2    1    5 ar
   3    1    6 1
   4    2    3 ar
   5    2   23 1
   6    3   18 1
   7    3   21 ar
   8    4    5 ar
   9    4   21 ar
  10    4   24 1
  11    5    7 1
  12    6    8 1
  13    6   25 1
  14    6   26 1
  15    7    9 2
  16    7   12 1
  17    8   10 am
  18    8   11 2
  19    9   10 1
  20   10   27 1
  21   12   13 ar
  22   12   17 ar
  23   13   14 ar
  24   13   28 1
  25   14   15 ar
  26   14   29 1
  27   15   16 ar
  28   15   22 1
  29   16   17 ar
  30   16   30 1
  31   17   31 1
  32   18   19 1
  33   19   20 1
  34   19   32 1
  35   19   33 1
  36   20   21 1
  37   22   34 1
  38   22   35 1

#	End of record

