#	Name: ASD16530001
#	Creating user name:	WinNT
#	Creation time:	15. 06. 2019 21:31

#	Modifying user name:	WinNT
#	Modification time:	15. 06. 2019 21:31

#	Program:	/corina/corina34_cracker 3.40 0067  02.08.2006

@<TRIPOS>MOLECULE
ASD16530001
  61   63    0    0    0
SMALL
NO_CHARGES


@<TRIPOS>ATOM
   1 N1            -0.0548     1.5480     0.6470 N.am    
   2 C2            -0.8304     4.5359    -0.0284 C.ar    
   3 N3             5.3554    -2.4552     1.8138 N.am    
   4 C4            -0.5387     5.8852     0.0945 C.ar    
   5 C5             1.5786    -2.2825    -1.3651 C.3     
   6 C6             0.6990    -1.7080    -2.4774 C.3     
   7 C7             1.2247    -2.1754    -3.8361 C.3     
   8 O8             0.3377    -1.7361    -4.8668 O.3     
   9 O9             0.7302    -0.2805    -2.4200 O.3     
  10 N10            1.0279    -0.4660     0.1771 N.am    
  11 N11            5.7215    -3.5267     3.8752 N.ar    
  12 C12           -0.3794     6.4459     1.3498 C.ar    
  13 C13           -0.5112     5.6601     2.4794 C.ar    
  14 C14           -0.8026     4.3145     2.3563 C.ar    
  15 C15           -0.9618     3.7522     1.1033 C.ar    
  16 C16           -1.2789     2.2849     0.9708 C.3     
  17 C17           -0.0971     0.2112     0.4804 C.2     
  18 C18            2.2969     0.2509     0.0283 C.3     
  19 C19            0.9820    -1.9190    -0.0040 C.3     
  20 C20            1.7899    -2.5969     1.1044 C.3     
  21 C21            4.0423    -2.7517     1.8786 C.2     
  22 C22            6.2223    -2.9048     2.8107 C.ar    
  23 C23            7.5779    -2.6947     2.6693 C.ar    
  24 C24            8.4374    -3.1534     3.6816 C.ar    
  25 C25            7.8663    -3.8120     4.8028 C.ar    
  26 C26            6.4730    -3.9764     4.8522 C.ar    
  27 C27            9.8280    -2.9806     3.6150 C.ar    
  28 C28           10.6109    -3.4472     4.6273 C.ar    
  29 C29           10.0516    -4.0940     5.7278 C.ar    
  30 C30            8.7060    -4.2790     5.8262 C.ar    
  31 O31           -1.1503    -0.3838     0.6039 O.2     
  32 O32            3.1899    -2.2346     0.9736 O.3     
  33 O33            3.6276    -3.4855     2.7537 O.2     
  34 Cl34          -1.0378     3.8318    -1.6015 Cl      
  35 F35           -0.4097     6.6523    -1.0101 F       
  36 H36            0.7853     2.0227     0.5485 H       
  37 H37            5.6980    -1.9293     1.0742 H       
  38 H38            1.6261    -3.3671    -1.4631 H       
  39 H39            2.5829    -1.8662    -1.4445 H       
  40 H40           -0.3260    -2.0546    -2.3456 H       
  41 H41            2.2159    -1.7552    -4.0063 H       
  42 H42            1.2846    -3.2637    -3.8477 H       
  43 H43            0.6094    -1.9975    -5.7573 H       
  44 H44            1.6131     0.0983    -2.5300 H       
  45 H45           -0.1517     7.4972     1.4467 H       
  46 H46           -0.3868     6.0978     3.4588 H       
  47 H47           -0.9050     3.7017     3.2396 H       
  48 H48           -2.0104     2.1416     0.1755 H       
  49 H49           -1.6875     1.9152     1.9113 H       
  50 H50            2.3759     0.6430    -0.9856 H       
  51 H51            2.3341     1.0752     0.7406 H       
  52 H52            3.1246    -0.4321     0.2193 H       
  53 H53           -0.0529    -2.2583     0.0414 H       
  54 H54            1.4193    -2.2701     2.0760 H       
  55 H55            1.6852    -3.6786     1.0208 H       
  56 H56            7.9702    -2.1891     1.7993 H       
  57 H57            6.0187    -4.4742     5.6961 H       
  58 H58           10.2744    -2.4817     2.7675 H       
  59 H59           11.6814    -3.3142     4.5762 H       
  60 H60           10.6961    -4.4542     6.5160 H       
  61 H61            8.2878    -4.7819     6.6856 H       
@<TRIPOS>BOND
   1    1   17 am
   2    1   36 1
   3    1   16 1
   4    2   15 ar
   5    2    4 ar
   6    2   34 1
   7    3   21 am
   8    3   37 1
   9    3   22 1
  10    4   12 ar
  11    4   35 1
  12    5    6 1
  13    5   38 1
  14    5   39 1
  15    5   19 1
  16    6    7 1
  17    6   40 1
  18    6    9 1
  19    7    8 1
  20    7   41 1
  21    7   42 1
  22    8   43 1
  23    9   44 1
  24   10   19 1
  25   10   17 am
  26   10   18 1
  27   11   22 ar
  28   11   26 ar
  29   12   13 ar
  30   12   45 1
  31   13   14 ar
  32   13   46 1
  33   14   47 1
  34   14   15 ar
  35   15   16 1
  36   16   48 1
  37   16   49 1
  38   17   31 2
  39   18   50 1
  40   18   51 1
  41   18   52 1
  42   19   20 1
  43   19   53 1
  44   20   54 1
  45   20   55 1
  46   20   32 1
  47   21   33 2
  48   21   32 1
  49   22   23 ar
  50   23   56 1
  51   23   24 ar
  52   24   25 ar
  53   24   27 ar
  54   25   26 ar
  55   25   30 ar
  56   26   57 1
  57   27   58 1
  58   27   28 ar
  59   28   59 1
  60   28   29 ar
  61   29   30 ar
  62   29   60 1
  63   30   61 1

#	End of record

