#	Name: ASD10410246
#	Creating user name:	WinNT
#	Creation time:	15. 06. 2019 21:27

#	Modifying user name:	WinNT
#	Modification time:	15. 06. 2019 21:27

#	Program:	/corina/corina34_cracker 3.40 0067  02.08.2006

@<TRIPOS>MOLECULE
ASD10410246
  60   64    0    0    0
SMALL
NO_CHARGES


@<TRIPOS>ATOM
   1 C1             0.0473     1.2880     0.5355 C.ar    
   2 C2             0.0015    -0.0026     0.0294 C.ar    
   3 C3             1.1471    -0.5848    -0.4930 C.ar    
   4 C4             2.3344     0.1203    -0.5095 C.ar    
   5 C5             2.3811     1.4127    -0.0034 C.ar    
   6 C6             1.2337     1.9947     0.5194 C.ar    
   7 O7            -1.1672    -0.6978     0.0456 O.3     
   8 N8             3.5843     2.1280    -0.0193 N.pl3   
   9 C9             3.5673     3.5190    -0.1174 C.2     
  10 N10            4.6183     4.2991    -0.0406 N.2     
  11 N11            2.4764     4.2697    -0.3106 N.2     
  12 C12            2.8142     5.5405    -0.3544 C.2     
  13 N13            4.1617     5.6189    -0.1884 N.pl3   
  14 C14            4.9347     6.7770    -0.1689 C.ar    
  15 N15            1.9538     6.6053    -0.5393 N.pl3   
  16 N16            4.3434     7.9509    -0.3239 N.ar    
  17 C17           -1.1421    -2.0217    -0.4918 C.3     
  18 C18           -2.5373    -2.6409    -0.3878 C.3     
  19 N19           -3.4700    -1.8926    -1.2412 N.3     
  20 C20           -4.7615    -2.5948    -1.3549 C.3     
  21 C21           -5.8569    -1.6166    -0.8810 C.3     
  22 C22           -5.1887    -0.2284    -1.0636 C.3     
  23 C23           -3.7159    -0.5397    -0.6982 C.3     
  24 N24            6.2407     6.6780     0.0093 N.ar    
  25 C25            7.0160     7.7584     0.0355 C.ar    
  26 C26            6.4406     8.9955    -0.1327 C.ar    
  27 C27            5.0558     9.0693    -0.3118 C.ar    
  28 O28            4.4493    10.2699    -0.4765 O.3     
  29 C29            8.4928     7.5748     0.2572 C.3     
  30 C30            9.2572     8.8271    -0.1697 C.3     
  31 C31            8.6091    10.0448     0.4991 C.3     
  32 C32            7.2364    10.2712    -0.1332 C.3     
  33 H33           -0.8460     1.7420     0.9383 H       
  34 H34            1.1105    -1.5898    -0.8866 H       
  35 H35            3.2264    -0.3334    -0.9156 H       
  36 H36            1.2691     2.9997     0.9132 H       
  37 H37            4.4298     1.6561     0.0379 H       
  38 H38            1.0033     6.4471    -0.6512 H       
  39 H39            2.3000     7.5112    -0.5572 H       
  40 H40           -0.8386    -1.9834    -1.5380 H       
  41 H41           -0.4324    -2.6286     0.0704 H       
  42 H42           -2.4991    -3.6799    -0.7152 H       
  43 H43           -2.8776    -2.5982     0.6469 H       
  44 H44           -4.9400    -2.8770    -2.3925 H       
  45 H45           -4.7580    -3.4823    -0.7222 H       
  46 H46           -6.7460    -1.7015    -1.5059 H       
  47 H47           -6.1027    -1.7912     0.1664 H       
  48 H48           -5.2713     0.1120    -2.0958 H       
  49 H49           -5.6149     0.5034    -0.3775 H       
  50 H50           -3.5843    -0.5353     0.3838 H       
  51 H51           -3.0479     0.1839    -1.1655 H       
  52 H52            4.3829    10.5539    -1.3984 H       
  53 H53            8.6774     7.3828     1.3141 H       
  54 H54            8.8417     6.7231    -0.3269 H       
  55 H55           10.2974     8.7464     0.1458 H       
  56 H56            9.2076     8.9348    -1.2533 H       
  57 H57            8.4941     9.8584     1.5668 H       
  58 H58            9.2339    10.9243     0.3430 H       
  59 H59            7.3648    10.6151    -1.1596 H       
  60 H60            6.6993    11.0314     0.4339 H       
@<TRIPOS>BOND
   1    1    2 ar
   2    1    6 ar
   3    1   33 1
   4    2    3 ar
   5    2    7 1
   6    3    4 ar
   7    3   34 1
   8    4    5 ar
   9    4   35 1
  10    5    6 ar
  11    5    8 1
  12    6   36 1
  13    7   17 1
  14    8    9 1
  15    8   37 1
  16    9   10 2
  17    9   11 1
  18   10   13 1
  19   11   12 2
  20   12   13 1
  21   12   15 1
  22   13   14 1
  23   14   16 ar
  24   14   24 ar
  25   15   38 1
  26   15   39 1
  27   16   27 ar
  28   17   18 1
  29   17   40 1
  30   17   41 1
  31   18   19 1
  32   18   42 1
  33   18   43 1
  34   19   20 1
  35   19   23 1
  36   20   21 1
  37   20   44 1
  38   20   45 1
  39   21   22 1
  40   21   46 1
  41   21   47 1
  42   22   23 1
  43   22   48 1
  44   22   49 1
  45   23   50 1
  46   23   51 1
  47   24   25 ar
  48   25   26 ar
  49   25   29 1
  50   26   27 ar
  51   26   32 1
  52   27   28 1
  53   28   52 1
  54   29   30 1
  55   29   53 1
  56   29   54 1
  57   30   31 1
  58   30   55 1
  59   30   56 1
  60   31   32 1
  61   31   57 1
  62   31   58 1
  63   32   59 1
  64   32   60 1

#	End of record

