#	Name: ASD11030011
#	Creating user name:	WinNT
#	Creation time:	15. 06. 2019 21:29

#	Modifying user name:	WinNT
#	Modification time:	15. 06. 2019 21:29

#	Program:	/corina/corina34_cracker 3.40 0067  02.08.2006

@<TRIPOS>MOLECULE
ASD11030011
  37   40    0    0    0
SMALL
NO_CHARGES


@<TRIPOS>ATOM
   1 F1             0.1306     0.0933    -0.9884 F       
   2 C2             0.0812     1.4206    -0.7415 C.ar    
   3 C3            -0.9570     2.1807    -1.2590 C.ar    
   4 C4            -1.0137     3.5348    -1.0111 C.ar    
   5 C5            -0.0202     4.1431    -0.2349 C.ar    
   6 C6             1.0247     3.3697     0.2842 C.ar    
   7 C7             1.0657     2.0156     0.0331 C.ar    
   8 C8            -0.0737     5.5866     0.0333 C.2     
   9 C9            -1.2545     6.2497    -0.0543 C.2     
  10 S10           -2.8702     5.5620    -0.3072 S.3     
  11 C11           -3.7018     7.1265    -0.2774 C.2     
  12 N12           -4.9957     7.3319    -0.4165 N.2     
  13 C13           -5.4912     8.5947    -0.3707 C.2     
  14 N14           -4.7954     9.6914    -0.1954 N.2     
  15 N15           -5.4246    10.7841    -0.1804 N.2     
  16 C16           -6.7179    10.7424    -0.3399 C.2     
  17 S17           -7.1863     9.0535    -0.5442 S.3     
  18 C18           -7.6299    11.9048    -0.3527 C.ar    
  19 C19           -7.1231    13.1949    -0.1842 C.ar    
  20 C20           -7.9789    14.2762    -0.1970 C.ar    
  21 C21           -9.3397    14.0841    -0.3762 C.ar    
  22 C22           -9.8482    12.8058    -0.5440 C.ar    
  23 C23           -9.0009    11.7177    -0.5391 C.ar    
  24 F24          -10.1737    15.1469    -0.3870 F       
  25 N25           -2.7417     8.0785    -0.0818 N.am    
  26 C26           -1.4822     7.6956     0.0452 C.2     
  27 O27           -0.5750     8.4875     0.2218 O.2     
  28 H28           -1.7226     1.7101    -1.8580 H       
  29 H29           -1.8225     4.1256    -1.4150 H       
  30 H30            1.7947     3.8327     0.8836 H       
  31 H31            1.8713     1.4177     0.4330 H       
  32 H32            0.8266     6.1201     0.3001 H       
  33 H33           -6.0629    13.3456    -0.0438 H       
  34 H34           -7.5881    15.2745    -0.0667 H       
  35 H35          -10.9095    12.6618    -0.6829 H       
  36 H36           -9.3982    10.7220    -0.6700 H       
  37 H37           -2.9798     9.0175    -0.0327 H       
@<TRIPOS>BOND
   1    1    2 1
   2    2    3 ar
   3    2    7 ar
   4    3    4 ar
   5    3   28 1
   6    4    5 ar
   7    4   29 1
   8    5    6 ar
   9    5    8 1
  10    6    7 ar
  11    6   30 1
  12    7   31 1
  13    8    9 2
  14    8   32 1
  15    9   10 1
  16    9   26 1
  17   10   11 1
  18   11   12 2
  19   11   25 1
  20   12   13 1
  21   13   14 2
  22   13   17 1
  23   14   15 1
  24   15   16 2
  25   16   17 1
  26   16   18 1
  27   18   19 ar
  28   18   23 ar
  29   19   20 ar
  30   19   33 1
  31   20   21 ar
  32   20   34 1
  33   21   22 ar
  34   21   24 1
  35   22   23 ar
  36   22   35 1
  37   23   36 1
  38   25   26 am
  39   25   37 1
  40   26   27 2

#	End of record

