#	Name: ASD11790001
#	Creating user name:	WinNT
#	Creation time:	15. 06. 2019 21:29

#	Modifying user name:	WinNT
#	Modification time:	15. 06. 2019 21:29

#	Program:	/corina/corina34_cracker 3.40 0067  02.08.2006

@<TRIPOS>MOLECULE
ASD11790001
  34   37    0    0    0
SMALL
NO_CHARGES


@<TRIPOS>ATOM
   1 C1            -0.0188     1.5347     0.0105 C.3     
   2 C2             0.0021    -0.0041     0.0020 C.3     
   3 C3            -1.4686    -0.3155    -0.4051 C.3     
   4 C4            -1.9339     0.9669    -1.1248 C.3     
   5 O5            -0.8247     1.8879    -1.1208 O.3     
   6 C6             1.3440     2.1813     0.0009 C.3     
   7 N7            -2.3158     0.6533    -2.5039 N.pl3   
   8 C8            -3.5397     0.1967    -2.9235 C.ar    
   9 C9            -3.4378     0.0391    -4.3158 C.ar    
  10 N10           -2.1806     0.4008    -4.6676 N.2     
  11 C11           -1.5223     0.7672    -3.6064 C.2     
  12 N12           -4.6889    -0.0950    -2.3227 N.ar    
  13 C13           -5.7195    -0.5258    -3.0189 C.ar    
  14 N14           -5.6714    -0.6901    -4.3285 N.ar    
  15 C15           -4.5653    -0.4245    -5.0153 C.ar    
  16 N16           -4.5245    -0.5998    -6.3874 N.pl3   
  17 O17            2.1253     1.7356    -1.1200 O.3     
  18 O18            0.8166    -0.4889    -1.0808 O.3     
  19 O19           -1.5169    -1.4342    -1.2928 O.3     
  20 P20            2.2873     0.1348    -1.3549 P.3     
  21 O21            2.7091    -0.1391    -2.7468 O.2     
  22 O22            3.3547    -0.4762    -0.3159 O.3     
  23 H23           -0.5479     1.8629     0.9051 H       
  24 H24            0.2751    -0.4278     0.9684 H       
  25 H25           -2.0784    -0.5033     0.4787 H       
  26 H26           -2.7799     1.4035    -0.5941 H       
  27 H27            1.2253     3.2634    -0.0544 H       
  28 H28            1.8660     1.9272     0.9234 H       
  29 H29           -0.4963     1.1042    -3.5993 H       
  30 H30           -6.6387    -0.7538    -2.4999 H       
  31 H31           -5.3093    -0.9200    -6.8590 H       
  32 H32           -3.7111    -0.4024    -6.8776 H       
  33 H33           -2.4098    -1.6717    -1.5781 H       
  34 H34            4.2395    -0.0933    -0.3904 H       
@<TRIPOS>BOND
   1    1    2 1
   2    1    6 1
   3    1    5 1
   4    1   23 1
   5    2    3 1
   6    2   18 1
   7    2   24 1
   8    3   19 1
   9    3    4 1
  10    3   25 1
  11    4    5 1
  12    4    7 1
  13    4   26 1
  14    6   17 1
  15    6   27 1
  16    6   28 1
  17    7    8 1
  18    7   11 1
  19    8    9 ar
  20    8   12 ar
  21    9   10 1
  22    9   15 ar
  23   10   11 2
  24   11   29 1
  25   12   13 ar
  26   13   14 ar
  27   13   30 1
  28   14   15 ar
  29   15   16 1
  30   16   31 1
  31   16   32 1
  32   17   20 1
  33   18   20 1
  34   19   33 1
  35   20   21 2
  36   20   22 1
  37   22   34 1

#	End of record

