#	Name: ASD10160244
#	Creating user name:	WinNT
#	Creation time:	15. 06. 2019 21:25

#	Modifying user name:	WinNT
#	Modification time:	15. 06. 2019 21:25

#	Program:	/corina/corina34_cracker 3.40 0067  02.08.2006

@<TRIPOS>MOLECULE
ASD10160244
  43   44    0    0    0
SMALL
NO_CHARGES


@<TRIPOS>ATOM
   1 C1            -0.0179     1.4703     0.0101 C.2     
   2 C2             0.0021    -0.0041     0.0020 C.ar    
   3 C3             1.2225    -0.6896    -0.0133 C.ar    
   4 C4             1.2360    -2.0699    -0.0204 C.ar    
   5 C5             0.0416    -2.7777    -0.0123 C.ar    
   6 C6            -1.1746    -2.0995     0.0025 C.ar    
   7 C7            -1.1978    -0.7217     0.0155 C.ar    
   8 O8             1.0268     2.0925     0.0035 O.2     
   9 N9            -1.1941     2.1282     0.0193 N.am    
  10 S10           -1.2166     3.7840     0.0284 S.o2    
  11 O11           -2.5980     4.1156     0.0625 O.2     
  12 O12           -0.3511     4.1404     1.0975 O.2     
  13 C13           -0.4880     4.2554    -1.5646 C.3     
  14 F14           -2.3337    -2.7935     0.0094 F       
  15 F15            2.3851    -0.0014    -0.0216 F       
  16 O16            0.0593    -4.1350    -0.0193 O.3     
  17 C17            3.6457    -5.9829    -0.0635 C.ar    
  18 N18            3.0882    -5.6953     1.0955 N.ar    
  19 C19            1.9134    -5.0898     1.1522 C.ar    
  20 C20            1.2675    -4.7572    -0.0342 C.ar    
  21 C21            1.8900    -5.0783    -1.2362 C.ar    
  22 N22            3.0655    -5.6842    -1.2085 N.ar    
  23 C23            1.2344    -4.7412    -2.5506 C.3     
  24 C24            1.2839    -4.7656     2.4824 C.3     
  25 C25            4.9881    -6.6676    -0.0800 C.3     
  26 C26            4.7870    -8.1843    -0.0820 C.3     
  27 H27            2.1768    -2.6000    -0.0326 H       
  28 H28           -2.1416    -0.1970     0.0315 H       
  29 H29           -2.0275     1.6318     0.0205 H       
  30 H30           -1.0900     3.8447    -2.3752 H       
  31 H31           -0.4628     5.3421    -1.6453 H       
  32 H32            0.5266     3.8625    -1.6305 H       
  33 H33            1.5468    -3.7463    -2.8679 H       
  34 H34            1.5311    -5.4723    -3.3026 H       
  35 H35            0.1510    -4.7612    -2.4319 H       
  36 H36            1.6029    -3.7739     2.8033 H       
  37 H37            0.1984    -4.7842     2.3848 H       
  38 H38            1.5949    -5.5041     3.2213 H       
  39 H39            5.5355    -6.3725    -0.9752 H       
  40 H40            5.5549    -6.3774     0.8046 H       
  41 H41            4.2396    -8.4794     0.8132 H       
  42 H42            4.2202    -8.4746    -0.9666 H       
  43 H43            5.7579    -8.6796    -0.0939 H       
@<TRIPOS>BOND
   1    1    2 1
   2    1    8 2
   3    1    9 am
   4    2    3 ar
   5    2    7 ar
   6    3    4 ar
   7    3   15 1
   8    4    5 ar
   9    4   27 1
  10    5    6 ar
  11    5   16 1
  12    6    7 ar
  13    6   14 1
  14    7   28 1
  15    9   10 am
  16    9   29 1
  17   10   11 2
  18   10   12 2
  19   10   13 1
  20   13   30 1
  21   13   31 1
  22   13   32 1
  23   16   20 1
  24   17   18 ar
  25   17   22 ar
  26   17   25 1
  27   18   19 ar
  28   19   20 ar
  29   19   24 1
  30   20   21 ar
  31   21   22 ar
  32   21   23 1
  33   23   33 1
  34   23   34 1
  35   23   35 1
  36   24   36 1
  37   24   37 1
  38   24   38 1
  39   25   26 1
  40   25   39 1
  41   25   40 1
  42   26   41 1
  43   26   42 1
  44   26   43 1

#	End of record

