#	Name: ASD10410205
#	Creating user name:	WinNT
#	Creation time:	15. 06. 2019 21:27

#	Modifying user name:	WinNT
#	Modification time:	15. 06. 2019 21:27

#	Program:	/corina/corina34_cracker 3.40 0067  02.08.2006

@<TRIPOS>MOLECULE
ASD10410205
  55   59    0    0    0
SMALL
NO_CHARGES


@<TRIPOS>ATOM
   1 C1             0.0476     1.1393     0.2467 C.ar    
   2 C2             0.1830    -0.1895     0.6208 C.ar    
   3 C3             1.4457    -0.7439     0.7696 C.ar    
   4 C4             2.5694     0.0267     0.5449 C.ar    
   5 C5             2.4349     1.3571     0.1698 C.ar    
   6 C6             1.1702     1.9114     0.0216 C.ar    
   7 O7            -0.9231    -0.9492     0.8423 O.3     
   8 N8             3.5734     2.1391    -0.0577 N.pl3   
   9 C9             4.7331     1.5519    -0.5612 C.2     
  10 N10            5.8855     2.1579    -0.7174 N.2     
  11 N11            4.8490     0.2785    -0.9566 N.2     
  12 C12            6.0753     0.0537    -1.3764 C.2     
  13 N13            6.7781     1.2123    -1.2477 N.pl3   
  14 C14            8.1110     1.4179    -1.5747 C.ar    
  15 N15            6.5633    -1.1446    -1.8585 N.pl3   
  16 C16            8.5048     2.5340    -2.3493 C.ar    
  17 C17           -0.7099    -2.3094     1.2248 C.3     
  18 C18           -2.0602    -2.9996     1.4283 C.3     
  19 N19           -2.7753    -3.0637     0.1467 N.3     
  20 C20           -3.9669    -3.9261     0.2492 C.3     
  21 N21            9.0493     0.5769    -1.1652 N.ar    
  22 C22           10.3251     0.7612    -1.4702 C.ar    
  23 N23           10.7475     1.7756    -2.1896 N.ar    
  24 C24            9.8808     2.6887    -2.6501 C.ar    
  25 Cl25          11.4905    -0.3887    -0.8931 Cl      
  26 C26           -5.1847    -3.0744    -0.1667 C.3     
  27 C27           -4.5479    -1.9492    -1.0241 C.3     
  28 C28           -3.2045    -1.7176    -0.2885 C.3     
  29 C29           10.2955     3.7836    -3.4210 C.ar    
  30 C30            9.3721     4.6827    -3.8644 C.ar    
  31 C31            8.0209     4.5317    -3.5635 C.ar    
  32 C32            7.5825     3.4761    -2.8200 C.ar    
  33 H33           -0.9360     1.5690     0.1271 H       
  34 H34            1.5502    -1.7784     1.0616 H       
  35 H35            3.5526    -0.4050     0.6611 H       
  36 H36            1.0647     2.9458    -0.2704 H       
  37 H37            3.5553     3.0896     0.1349 H       
  38 H38            5.9820    -1.9194    -1.9103 H       
  39 H39            7.4875    -1.2116    -2.1454 H       
  40 H40           -0.1532    -2.8241     0.4417 H       
  41 H41           -0.1421    -2.3407     2.1547 H       
  42 H42           -1.8989    -4.0095     1.8053 H       
  43 H43           -2.6528    -2.4337     2.1471 H       
  44 H44           -3.8654    -4.7799    -0.4207 H       
  45 H45           -4.0884    -4.2702     1.2763 H       
  46 H46           -5.8824    -3.6640    -0.7613 H       
  47 H47           -5.6806    -2.6572     0.7098 H       
  48 H48           -4.3799    -2.2856    -2.0472 H       
  49 H49           -5.1629    -1.0494    -1.0066 H       
  50 H50           -3.3515    -1.0685     0.5747 H       
  51 H51           -2.4693    -1.2861    -0.9679 H       
  52 H52           11.3402     3.9142    -3.6617 H       
  53 H53            9.6934     5.5256    -4.4582 H       
  54 H54            7.3100     5.2589    -3.9270 H       
  55 H55            6.5320     3.3696    -2.5930 H       
@<TRIPOS>BOND
   1    1    2 ar
   2    1    6 ar
   3    1   33 1
   4    2    3 ar
   5    2    7 1
   6    3    4 ar
   7    3   34 1
   8    4    5 ar
   9    4   35 1
  10    5    6 ar
  11    5    8 1
  12    6   36 1
  13    7   17 1
  14    8    9 1
  15    8   37 1
  16    9   10 2
  17    9   11 1
  18   10   13 1
  19   11   12 2
  20   12   13 1
  21   12   15 1
  22   13   14 1
  23   14   16 ar
  24   14   21 ar
  25   15   38 1
  26   15   39 1
  27   16   24 ar
  28   16   32 ar
  29   17   18 1
  30   17   40 1
  31   17   41 1
  32   18   19 1
  33   18   42 1
  34   18   43 1
  35   19   20 1
  36   19   28 1
  37   20   26 1
  38   20   44 1
  39   20   45 1
  40   21   22 ar
  41   22   23 ar
  42   22   25 1
  43   23   24 ar
  44   24   29 ar
  45   26   27 1
  46   26   46 1
  47   26   47 1
  48   27   28 1
  49   27   48 1
  50   27   49 1
  51   28   50 1
  52   28   51 1
  53   29   30 ar
  54   29   52 1
  55   30   31 ar
  56   30   53 1
  57   31   32 ar
  58   31   54 1
  59   32   55 1

#	End of record

