#	Name: ASD14870012
#	Creating user name:	WinNT
#	Creation time:	15. 06. 2019 21:31

#	Modifying user name:	WinNT
#	Modification time:	15. 06. 2019 21:31

#	Program:	/corina/corina34_cracker 3.40 0067  02.08.2006

@<TRIPOS>MOLECULE
ASD14870012
  65   69    0    0    0
SMALL
NO_CHARGES


@<TRIPOS>ATOM
   1 C1             0.5041     0.6499     0.2473 C.ar    
   2 C2             0.5630    -0.7142     0.0245 C.ar    
   3 C3             1.7787    -1.3282    -0.2117 C.ar    
   4 C4             2.9387    -0.5643    -0.2239 C.ar    
   5 C5             2.8730     0.8173    -0.0121 C.ar    
   6 C6             1.6583     1.4161     0.2292 C.ar    
   7 C7             4.2697    -1.1624    -0.4677 C.2     
   8 N8             5.3625    -0.4043    -0.2408 N.am    
   9 N9             5.2754     0.8017     0.3813 N.3     
  10 C10            4.1471     1.6179    -0.0744 C.3     
  11 O11            4.3760    -2.3073    -0.8619 O.2     
  12 C12            6.6740    -0.8921    -0.6745 C.3     
  13 C13            4.3913     2.0604    -1.4941 C.ar    
  14 C14            4.0552     3.3434    -1.8834 C.ar    
  15 C15            4.2790     3.7529    -3.1893 C.ar    
  16 C16            4.8433     2.8668    -4.1065 C.ar    
  17 C17            5.1775     1.5811    -3.7071 C.ar    
  18 C18            4.9561     1.1835    -2.4020 C.ar    
  19 N19            5.0713     3.2733    -5.4256 N.3     
  20 C20            3.8049     3.5247    -6.1251 C.3     
  21 C21            4.0930     4.1046    -7.5118 C.3     
  22 C22            4.9486     3.1139    -8.3063 C.3     
  23 C23            6.2397     2.8320    -7.5329 C.3     
  24 C24            5.8894     2.2890    -6.1456 C.3     
  25 N25            3.9385     5.0532    -3.5863 N.am    
  26 C26            2.8627     5.6619    -3.0491 C.2     
  27 C27            2.5698     7.1030    -3.3781 C.3     
  28 O28            1.3866     7.5173    -2.6922 O.3     
  29 C29           -0.1600     9.2693    -2.2467 C.ar    
  30 C30            0.9806     8.8003    -2.8820 C.ar    
  31 C31            1.7064     9.6433    -3.7110 C.ar    
  32 C32            1.2919    10.9472    -3.9019 C.ar    
  33 C33            0.1550    11.4123    -3.2672 C.ar    
  34 C34           -0.5698    10.5743    -2.4401 C.ar    
  35 O35            2.1302     5.0497    -2.3007 O.2     
  36 H36           -0.4495     1.1219     0.4324 H       
  37 H37           -0.3435    -1.3011     0.0354 H       
  38 H38            1.8262    -2.3932    -0.3849 H       
  39 H39            1.6044     2.4806     0.4033 H       
  40 H40            5.2602     0.6910     1.3841 H       
  41 H41            4.0540     2.4955     0.5652 H       
  42 H42            6.5602    -1.8662    -1.1502 H       
  43 H43            7.1063    -0.1886    -1.3860 H       
  44 H44            7.3314    -0.9846     0.1901 H       
  45 H45            3.6179     4.0269    -1.1707 H       
  46 H46            5.6147     0.8923    -4.4148 H       
  47 H47            5.2172     0.1822    -2.0926 H       
  48 H48            3.2558     2.5890    -6.2297 H       
  49 H49            3.2079     4.2339    -5.5518 H       
  50 H50            3.1533     4.2765    -8.0368 H       
  51 H51            4.6301     5.0473    -7.4076 H       
  52 H52            4.3962     2.1844    -8.4441 H       
  53 H53            5.1925     3.5415    -9.2788 H       
  54 H54            6.8337     2.0947    -8.0729 H       
  55 H55            6.8105     3.7547    -7.4290 H       
  56 H56            6.8063     2.1007    -5.5872 H       
  57 H57            5.3305     1.3591    -6.2501 H       
  58 H58            4.4772     5.5150    -4.2477 H       
  59 H59            3.4082     7.7250    -3.0644 H       
  60 H60            2.4221     7.2075    -4.4530 H       
  61 H61           -0.7291     8.6137    -1.6043 H       
  62 H62            2.5949     9.2806    -4.2064 H       
  63 H63            1.8565    11.6038    -4.5471 H       
  64 H64           -0.1673    12.4321    -3.4175 H       
  65 H65           -1.4575    10.9400    -1.9455 H       
@<TRIPOS>BOND
   1    1    2 ar
   2    1    6 ar
   3    1   36 1
   4    2    3 ar
   5    2   37 1
   6    3    4 ar
   7    3   38 1
   8    4    5 ar
   9    4    7 1
  10    5    6 ar
  11    5   10 1
  12    6   39 1
  13    7    8 am
  14    7   11 2
  15    8    9 1
  16    8   12 1
  17    9   10 1
  18    9   40 1
  19   10   13 1
  20   10   41 1
  21   12   42 1
  22   12   43 1
  23   12   44 1
  24   13   14 ar
  25   13   18 ar
  26   14   15 ar
  27   14   45 1
  28   15   16 ar
  29   15   25 1
  30   16   17 ar
  31   16   19 1
  32   17   18 ar
  33   17   46 1
  34   18   47 1
  35   19   20 1
  36   19   24 1
  37   20   21 1
  38   20   48 1
  39   20   49 1
  40   21   22 1
  41   21   50 1
  42   21   51 1
  43   22   23 1
  44   22   52 1
  45   22   53 1
  46   23   24 1
  47   23   54 1
  48   23   55 1
  49   24   56 1
  50   24   57 1
  51   25   26 am
  52   25   58 1
  53   26   27 1
  54   26   35 2
  55   27   28 1
  56   27   59 1
  57   27   60 1
  58   28   30 1
  59   29   30 ar
  60   29   34 ar
  61   29   61 1
  62   30   31 ar
  63   31   32 ar
  64   31   62 1
  65   32   33 ar
  66   32   63 1
  67   33   34 ar
  68   33   64 1
  69   34   65 1

#	End of record

