#	Name: ASD10420102
#	Creating user name:	WinNT
#	Creation time:	15. 06. 2019 21:27

#	Modifying user name:	WinNT
#	Modification time:	15. 06. 2019 21:27

#	Program:	/corina/corina34_cracker 3.40 0067  02.08.2006

@<TRIPOS>MOLECULE
ASD10420102
  84   88    0    0    0
SMALL
NO_CHARGES


@<TRIPOS>ATOM
   1 N1             0.3548     0.3214     0.6084 N.pl3   
   2 C2             0.1879    -1.0279     0.4251 C.2     
   3 C3            -1.1752    -1.2686     0.1735 C.2     
   4 C4            -1.8223    -0.0345     0.2098 C.2     
   5 C5            -0.8665     0.9323     0.4841 C.2     
   6 N6             1.6288     0.8388     0.8773 N.2     
   7 C7             2.6700     0.0584     0.9581 C.2     
   8 C8             2.5439    -1.3362     0.7763 C.2     
   9 C9             1.2946    -1.8808     0.5083 C.2     
  10 C10           -1.1185     2.3692     0.6111 C.2     
  11 O11           -1.1918     3.0646    -0.3853 O.2     
  12 C12           -3.2947     0.2050    -0.0043 C.3     
  13 C13           -4.0322    -0.0087     1.2924 C.ar    
  14 C14           -4.4557     1.0784     2.0336 C.ar    
  15 C15           -4.2898    -1.2917     1.7373 C.ar    
  16 C16           -4.9663    -1.4894     2.9269 C.ar    
  17 C17           -5.3861    -0.4041     3.6721 C.ar    
  18 C18           -1.8039    -2.5848    -0.0822 C.ar    
  19 C19           -1.8233    -3.5577     0.9173 C.ar    
  20 C20           -2.4105    -4.7821     0.6729 C.ar    
  21 C21           -2.9789    -5.0460    -0.5605 C.ar    
  22 C22           -2.9628    -4.0853    -1.5559 C.ar    
  23 C23           -2.3841    -2.8548    -1.3217 C.ar    
  24 C24           -4.1805     2.4772     1.5450 C.3     
  25 C25           -5.1331     0.8818     3.2248 C.ar    
  26 F26           -5.5427     1.9436     3.9528 F       
  27 C27            3.7313    -2.2090     0.8700 C.2     
  28 N28            3.9717    -2.9006     2.0015 N.am    
  29 O29            4.4921    -2.3037    -0.0737 O.2     
  30 C30            5.2045    -3.6806     2.1353 C.3     
  31 C31            3.0002    -2.8723     3.0977 C.3     
  32 N32           -1.2694     2.9216     1.8311 N.am    
  33 C33           -1.6228     4.3417     1.9783 C.3     
  34 C34           -0.6288     4.9931     2.9457 C.3     
  35 N35           -0.5972     4.2277     4.1991 N.3     
  36 C36           -0.1119     2.8593     3.9758 C.3     
  37 C37           -1.0908     2.1190     3.0506 C.3     
  38 C38           -1.0659     6.4303     3.2359 C.3     
  39 C39           -0.0249     7.1095     4.0880 C.2     
  40 N40           -0.1982     8.3902     4.4706 N.am    
  41 O41            0.9687     6.5038     4.4295 O.2     
  42 C42            0.8137     9.0505     5.2989 C.3     
  43 C43            0.3766    10.4878     5.5892 C.3     
  44 O44           -0.8113    10.4732     6.3834 O.3     
  45 C45           -1.3064    11.7726     6.7125 C.3     
  46 H46            3.6407     0.4837     1.1662 H       
  47 H47            1.1788    -2.9452     0.3667 H       
  48 H48           -3.4504     1.2282    -0.3464 H       
  49 H49           -3.6705    -0.4902    -0.7549 H       
  50 H50           -3.9627    -2.1406     1.1552 H       
  51 H51           -5.1670    -2.4923     3.2735 H       
  52 H52           -5.9151    -0.5587     4.6009 H       
  53 H53           -1.3793    -3.3531     1.8804 H       
  54 H54           -2.4262    -5.5361     1.4460 H       
  55 H55           -3.4367    -6.0062    -0.7473 H       
  56 H56           -3.4081    -4.2972    -2.5167 H       
  57 H57           -2.3722    -2.1056    -2.0995 H       
  58 H58           -4.9924     2.8009     0.8937 H       
  59 H59           -4.1076     3.1522     2.3977 H       
  60 H60           -3.2424     2.4902     0.9900 H       
  61 H61            5.9851    -3.0550     2.5682 H       
  62 H62            5.0238    -4.5373     2.7844 H       
  63 H63            5.5220    -4.0298     1.1527 H       
  64 H64            2.3362    -3.7330     3.0169 H       
  65 H65            3.5271    -2.9082     4.0512 H       
  66 H66            2.4144    -1.9549     3.0405 H       
  67 H67           -1.5667     4.8355     1.0082 H       
  68 H68           -2.6331     4.4280     2.3783 H       
  69 H69            0.3648     4.9981     2.4975 H       
  70 H70           -0.0412     4.6992     4.8968 H       
  71 H71            0.8745     2.8940     3.5133 H       
  72 H72           -0.0485     2.3356     4.9297 H       
  73 H73           -2.0509     1.9958     3.5517 H       
  74 H74           -0.6827     1.1425     2.7897 H       
  75 H75           -1.1774     6.9727     2.2971 H       
  76 H76           -2.0187     6.4204     3.7652 H       
  77 H77           -0.9929     8.8747     4.1974 H       
  78 H78            0.9252     8.5081     6.2378 H       
  79 H79            1.7665     9.0604     4.7697 H       
  80 H80            1.1686    11.0063     6.1295 H       
  81 H81            0.1793    11.0043     4.6498 H       
  82 H82           -0.5493    12.3178     7.2762 H       
  83 H83           -1.5386    12.3158     5.7965 H       
  84 H84           -2.2089    11.6755     7.3160 H       
@<TRIPOS>BOND
   1    1    2 1
   2    1    6 1
   3    1    5 1
   4    2    3 2
   5    2    9 1
   6    3    4 1
   7    3   18 1
   8    4    5 2
   9    4   12 1
  10    5   10 1
  11    6    7 2
  12    7    8 1
  13    7   46 1
  14    8    9 2
  15    8   27 1
  16    9   47 1
  17   10   11 2
  18   10   32 am
  19   12   13 1
  20   12   48 1
  21   12   49 1
  22   13   14 ar
  23   13   15 ar
  24   14   24 1
  25   14   25 ar
  26   15   16 ar
  27   15   50 1
  28   16   17 ar
  29   16   51 1
  30   17   25 ar
  31   17   52 1
  32   18   19 ar
  33   18   23 ar
  34   19   20 ar
  35   19   53 1
  36   20   21 ar
  37   20   54 1
  38   21   22 ar
  39   21   55 1
  40   22   23 ar
  41   22   56 1
  42   23   57 1
  43   24   58 1
  44   24   59 1
  45   24   60 1
  46   25   26 1
  47   27   28 am
  48   27   29 2
  49   28   30 1
  50   28   31 1
  51   30   61 1
  52   30   62 1
  53   30   63 1
  54   31   64 1
  55   31   65 1
  56   31   66 1
  57   32   33 1
  58   32   37 1
  59   33   34 1
  60   33   67 1
  61   33   68 1
  62   34   35 1
  63   34   38 1
  64   34   69 1
  65   35   36 1
  66   35   70 1
  67   36   37 1
  68   36   71 1
  69   36   72 1
  70   37   73 1
  71   37   74 1
  72   38   39 1
  73   38   75 1
  74   38   76 1
  75   39   40 am
  76   39   41 2
  77   40   42 1
  78   40   77 1
  79   42   43 1
  80   42   78 1
  81   42   79 1
  82   43   44 1
  83   43   80 1
  84   43   81 1
  85   44   45 1
  86   45   82 1
  87   45   83 1
  88   45   84 1

#	End of record

