#	Name: ASD10220021
#	Creating user name:	WinNT
#	Creation time:	15. 06. 2019 21:26

#	Modifying user name:	WinNT
#	Modification time:	15. 06. 2019 21:26

#	Program:	/corina/corina34_cracker 3.40 0067  02.08.2006

@<TRIPOS>MOLECULE
ASD10220021
  30   32    0    0    0
SMALL
NO_CHARGES


@<TRIPOS>ATOM
   1 C1            -0.0059     1.4626    -0.1715 C.2     
   2 C2             0.0242     0.0559    -0.3205 C.2     
   3 C3            -1.1135    -0.6719    -0.3779 C.2     
   4 C4            -2.4364    -0.0532    -0.2905 C.2     
   5 C5            -2.5495     1.3199    -0.1435 C.2     
   6 C6            -1.3370     2.1504    -0.0697 C.2     
   7 O7            -3.6791    -0.5710    -0.3244 O.3     
   8 C8            -4.6085     0.3794    -0.2084 C.2     
   9 C9            -3.9875     1.6063    -0.0892 C.2     
  10 O10           -1.4106     3.3544     0.0589 O.2     
  11 O11            1.0262     2.1018    -0.1216 O.2     
  12 C12           -4.6310     2.9223     0.0601 C.2     
  13 O13           -3.9532     3.9108     0.2645 O.2     
  14 C14           -6.1028     3.0417    -0.0385 C.ar    
  15 C15           -6.7691     4.0547     0.6540 C.ar    
  16 C16           -8.1392     4.1661     0.5618 C.ar    
  17 C17           -8.8615     3.2661    -0.2242 C.ar    
  18 C18           -8.1953     2.2531    -0.9168 C.ar    
  19 C19           -6.8246     2.1449    -0.8288 C.ar    
  20 C20          -10.3324     3.3855    -0.3229 C.2     
  21 O21          -11.0292     2.5173    -1.0811 O.3     
  22 Cl22           1.5561    -0.7532    -0.4328 Cl      
  23 Cl23          -1.0013    -2.3945    -0.5618 Cl      
  24 O24          -10.9120     4.2663     0.2798 O.2     
  25 H25           -5.6759     0.2149    -0.2076 H       
  26 H26           -6.2104     4.7506     1.2623 H       
  27 H27           -8.6546     4.9494     1.0977 H       
  28 H28           -8.7540     1.5570    -1.5247 H       
  29 H29           -6.3093     1.3613    -1.3644 H       
  30 H30          -11.9884     2.6352    -1.1145 H       
@<TRIPOS>BOND
   1    1    2 1
   2    1   11 2
   3    1    6 1
   4    2    3 2
   5    2   22 1
   6    3    4 1
   7    3   23 1
   8    4    5 2
   9    4    7 1
  10    5    6 1
  11    5    9 1
  12    6   10 2
  13    7    8 1
  14    8    9 2
  15    8   25 1
  16    9   12 1
  17   12   13 2
  18   12   14 1
  19   14   15 ar
  20   14   19 ar
  21   15   16 ar
  22   15   26 1
  23   16   17 ar
  24   16   27 1
  25   17   18 ar
  26   17   20 1
  27   18   19 ar
  28   18   28 1
  29   19   29 1
  30   20   21 1
  31   20   24 2
  32   21   30 1

#	End of record

