#	Name: ASD11940006
#	Creating user name:	WinNT
#	Creation time:	15. 06. 2019 21:29

#	Modifying user name:	WinNT
#	Modification time:	15. 06. 2019 21:29

#	Program:	/corina/corina34_cracker 3.40 0067  02.08.2006

@<TRIPOS>MOLECULE
ASD11940006
  21   22    0    0    0
SMALL
NO_CHARGES


@<TRIPOS>ATOM
   1 C1            -0.0167     1.3798     0.0096 C.ar    
   2 C2             0.0021    -0.0041     0.0020 C.ar    
   3 C3             1.2061    -0.6863    -0.0127 C.ar    
   4 C4             2.3967     0.0096    -0.0203 C.ar    
   5 C5             2.3854     1.4067    -0.0131 C.ar    
   6 C6             1.1662     2.0888     0.0021 C.ar    
   7 C7             3.6564     2.1590    -0.0207 C.2     
   8 O8             4.7152     1.5629    -0.0332 O.2     
   9 C9             3.6404     3.6391    -0.0131 C.2     
  10 N10            2.6052     4.4518     0.0007 N.2     
  11 O11            2.9945     5.5960     0.0028 O.3     
  12 N12            4.1929     5.7505    -0.0077 N.2     
  13 C13            4.7855     4.5787    -0.0126 C.2     
  14 N14            6.1435     4.2925    -0.0237 N.pl3   
  15 H15           -0.9600     1.9057     0.0169 H       
  16 H16           -0.9273    -0.5542     0.0079 H       
  17 H17            1.2133    -1.7663    -0.0178 H       
  18 H18            3.3356    -0.5241    -0.0314 H       
  19 H19            1.1501     3.1686     0.0074 H       
  20 H20            6.7913     5.0145    -0.0293 H       
  21 H21            6.4449     3.3705    -0.0258 H       
@<TRIPOS>BOND
   1    1    2 ar
   2    1    6 ar
   3    1   15 1
   4    2    3 ar
   5    2   16 1
   6    3    4 ar
   7    3   17 1
   8    4    5 ar
   9    4   18 1
  10    5    6 ar
  11    5    7 1
  12    6   19 1
  13    7    8 2
  14    7    9 1
  15    9   10 2
  16    9   13 1
  17   10   11 1
  18   11   12 1
  19   12   13 2
  20   13   14 1
  21   14   20 1
  22   14   21 1

#	End of record

