#	Name: ASD13650004
#	Creating user name:	WinNT
#	Creation time:	15. 06. 2019 21:30

#	Modifying user name:	WinNT
#	Modification time:	15. 06. 2019 21:30

#	Program:	/corina/corina34_cracker 3.40 0067  02.08.2006

@<TRIPOS>MOLECULE
ASD13650004
  58   62    0    0    0
SMALL
NO_CHARGES


@<TRIPOS>ATOM
   1 C1            -0.0184     1.5025     0.0103 C.ar    
   2 C2            -2.4965     1.5073     0.1094 C.3     
   3 C3            -2.3409     0.0205     0.4082 C.3     
   4 N4            -1.2857    -0.5344    -0.4534 N.3     
   5 C5             0.0021    -0.0041     0.0020 C.3     
   6 C6            -1.3014    -2.0029    -0.4173 C.3     
   7 C7            -0.2245    -2.5501    -1.3567 C.3     
   8 C8             1.1448    -2.0246    -0.9166 C.3     
   9 C9             1.1194    -0.4935    -0.9221 C.3     
  10 C10            0.1446     4.2273    -0.0269 C.ar    
  11 C11           -1.1146     3.6144    -0.0203 C.ar    
  12 C12           -1.2018     2.2404     0.0359 C.ar    
  13 C13            1.2199     2.1238     0.0018 C.ar    
  14 C14            1.3054     3.4981    -0.0092 C.ar    
  15 C15           -2.2318     4.6148    -0.1088 C.3     
  16 C16           -3.5970     4.0720    -0.4257 C.3     
  17 C17           -4.1150     3.2617     0.7241 C.ar    
  18 C18           -5.1884     3.7257     1.4701 C.ar    
  19 C19           -5.6179     3.0027     2.5675 C.ar    
  20 C20           -4.9747     1.8308     2.9208 C.ar    
  21 C21           -3.9199     1.3641     2.1576 C.ar    
  22 C22           -3.5205     2.0794     1.0408 C.ar    
  23 O23            1.4350    -2.4929     0.4019 O.3     
  24 C24            2.2192    -2.5219    -1.8858 C.3     
  25 C25            1.9083    -2.0150    -3.2955 C.3     
  26 C26            3.5866    -1.9961    -1.4447 C.3     
  27 C27            2.2369    -4.0518    -1.8863 C.3     
  28 H28           -2.9402     1.5695    -0.8843 H       
  29 H29           -2.0660    -0.1143     1.4543 H       
  30 H30           -3.2819    -0.4920     0.2082 H       
  31 H31            0.1879    -0.3662     1.0131 H       
  32 H32           -1.1036    -2.3433     0.5992 H       
  33 H33           -2.2792    -2.3635    -0.7367 H       
  34 H34           -0.2262    -3.6393    -1.3170 H       
  35 H35           -0.4298    -2.2222    -2.3757 H       
  36 H36            0.9363    -0.1362    -1.9354 H       
  37 H37            2.0774    -0.1123    -0.5685 H       
  38 H38            0.2029     5.3055    -0.0473 H       
  39 H39            2.1209     1.5284     0.0042 H       
  40 H40            2.2663     3.9910    -0.0043 H       
  41 H41           -2.2906     5.1402     0.8444 H       
  42 H42           -1.9721     5.3437    -0.8766 H       
  43 H43           -4.2786     4.9003    -0.6193 H       
  44 H44           -3.5377     3.4420    -1.3132 H       
  45 H45           -5.6845     4.6450     1.1961 H       
  46 H46           -6.4569     3.3539     3.1498 H       
  47 H47           -5.2957     1.2802     3.7927 H       
  48 H48           -3.4118     0.4511     2.4307 H       
  49 H49            0.7941    -2.2116     1.0692 H       
  50 H50            1.8957    -0.9250    -3.2951 H       
  51 H51            2.6738    -2.3692    -3.9860 H       
  52 H52            0.9341    -2.3895    -3.6097 H       
  53 H53            3.8081    -2.3572    -0.4404 H       
  54 H54            4.3521    -2.3503    -2.1352 H       
  55 H55            3.5740    -0.9062    -1.4444 H       
  56 H56            1.2627    -4.4263    -2.2005 H       
  57 H57            3.0024    -4.4060    -2.5767 H       
  58 H58            2.4584    -4.4129    -0.8820 H       
@<TRIPOS>BOND
   1    1    5 1
   2    1   13 ar
   3    1   12 ar
   4    2    3 1
   5    2   12 1
   6    2   22 1
   7    2   28 1
   8    3    4 1
   9    3   29 1
  10    3   30 1
  11    4    6 1
  12    4    5 1
  13    5    9 1
  14    5   31 1
  15    6    7 1
  16    6   32 1
  17    6   33 1
  18    7    8 1
  19    7   34 1
  20    7   35 1
  21    8    9 1
  22    8   23 1
  23    8   24 1
  24    9   36 1
  25    9   37 1
  26   10   11 ar
  27   10   14 ar
  28   10   38 1
  29   11   12 ar
  30   11   15 1
  31   13   14 ar
  32   13   39 1
  33   14   40 1
  34   15   16 1
  35   15   41 1
  36   15   42 1
  37   16   17 1
  38   16   43 1
  39   16   44 1
  40   17   18 ar
  41   17   22 ar
  42   18   19 ar
  43   18   45 1
  44   19   20 ar
  45   19   46 1
  46   20   21 ar
  47   20   47 1
  48   21   22 ar
  49   21   48 1
  50   23   49 1
  51   24   25 1
  52   24   26 1
  53   24   27 1
  54   25   50 1
  55   25   51 1
  56   25   52 1
  57   26   53 1
  58   26   54 1
  59   26   55 1
  60   27   56 1
  61   27   57 1
  62   27   58 1

#	End of record

