#	Name: ASD10410126
#	Creating user name:	WinNT
#	Creation time:	15. 06. 2019 21:26

#	Modifying user name:	WinNT
#	Modification time:	15. 06. 2019 21:26

#	Program:	/corina/corina34_cracker 3.40 0067  02.08.2006

@<TRIPOS>MOLECULE
ASD10410126
  71   78    0    0    0
SMALL
NO_CHARGES


@<TRIPOS>ATOM
   1 C1             0.7000     0.7444    -0.2560 C.ar    
   2 C2             0.7959    -0.5124    -0.8390 C.ar    
   3 C3             2.0321    -0.9962    -1.2469 C.ar    
   4 C4             3.1659    -0.2278    -1.0724 C.ar    
   5 C5             3.0701     1.0290    -0.4894 C.ar    
   6 C6             1.8338     1.5130    -0.0819 C.ar    
   7 N7             4.2201     1.8081    -0.3120 N.pl3   
   8 C8             4.1437     3.1969    -0.4118 C.2     
   9 N9             5.1540     4.0242    -0.2925 N.2     
  10 N10            3.0285     3.8972    -0.6504 N.2     
  11 C11            3.3095     5.1821    -0.6818 C.2     
  12 N12            4.6442     5.3218    -0.4606 N.pl3   
  13 C13            5.3616     6.5132    -0.4107 C.ar    
  14 N14            2.4098     6.2066    -0.9037 N.pl3   
  15 N15           -0.3534    -1.2917    -1.0151 N.3     
  16 C16           -0.0261    -2.5775    -1.6468 C.3     
  17 C17           -1.2932    -3.4299    -1.7488 C.3     
  18 N18           -2.3061    -2.7057    -2.5293 N.3     
  19 C19           -2.6334    -1.4198    -1.8977 C.3     
  20 C20           -1.3663    -0.5675    -1.7956 C.3     
  21 N21            5.3986     7.3199    -1.4603 N.ar    
  22 C22            6.0752     8.4533    -1.4272 C.ar    
  23 N23            6.7412     8.8385    -0.3631 N.ar    
  24 C24            6.7627     8.0895     0.7463 C.ar    
  25 C25            6.0576     6.8837     0.7641 C.ar    
  26 C26           -3.5123    -3.5236    -2.7141 C.3     
  27 C27           -4.6234    -2.6989    -3.4329 C.3     
  28 C28           -3.2219    -4.7038    -3.6693 C.3     
  29 C29           -4.1850    -4.4810    -4.8752 C.3     
  30 C30           -5.8944    -3.5979    -3.3464 C.3     
  31 C31           -5.6041    -4.7781    -4.3015 C.3     
  32 C32           -4.2183    -2.9130    -4.9341 C.3     
  33 S33            7.5530     8.3430     2.2952 S.3     
  34 C34            6.9374     6.8334     2.9396 C.2     
  35 C35            6.1855     6.1941     2.0426 C.2     
  36 C36            5.5383     4.8949     2.3202 C.2     
  37 C37            6.1796     3.7703     2.6964 C.2     
  38 C38            5.3581     2.6787     2.8991 C.2     
  39 C39            4.0584     2.9029     2.6923 C.2     
  40 S40            3.8112     4.5782     2.2185 S.3     
  41 H41           -0.2620     1.1224     0.0571 H       
  42 H42            2.1066    -1.9735    -1.7003 H       
  43 H43            4.1274    -0.6043    -1.3890 H       
  44 H44            1.7592     2.4905     0.3712 H       
  45 H45            5.0699     1.3817    -0.1196 H       
  46 H46            1.4730     6.0052    -1.0548 H       
  47 H47            2.7148     7.1274    -0.9083 H       
  48 H48            0.3747    -2.4008    -2.6449 H       
  49 H49            0.7163    -3.1004    -1.0438 H       
  50 H50           -1.0585    -4.3725    -2.2433 H       
  51 H51           -1.6787    -3.6295    -0.7490 H       
  52 H52           -3.3758    -0.8970    -2.5006 H       
  53 H53           -3.0341    -1.5965    -0.8995 H       
  54 H54           -1.6009     0.3752    -1.3012 H       
  55 H55           -0.9808    -0.3679    -2.7954 H       
  56 H56            6.0813     9.0838    -2.3039 H       
  57 H57           -3.8728    -3.8901    -1.7530 H       
  58 H58           -4.7445    -1.6689    -3.0975 H       
  59 H59           -2.1842    -4.6772    -4.0017 H       
  60 H60           -3.4405    -5.6523    -3.1787 H       
  61 H61           -3.9244    -5.0031    -5.7959 H       
  62 H62           -6.0356    -3.9593    -2.3278 H       
  63 H63           -6.7734    -3.0463    -3.6801 H       
  64 H64           -6.3403    -4.8068    -5.1048 H       
  65 H65           -5.6026    -5.7197    -3.7525 H       
  66 H66           -4.9818    -2.5458    -5.6199 H       
  67 H67           -3.2382    -2.4914    -5.1571 H       
  68 H68            7.1380     6.4697     3.9365 H       
  69 H69            7.2506     3.7264     2.8284 H       
  70 H70            5.7391     1.7147     3.2022 H       
  71 H71            3.2759     2.1669     2.8033 H       
@<TRIPOS>BOND
   1    1    2 ar
   2    1    6 ar
   3    1   41 1
   4    2    3 ar
   5    2   15 1
   6    3    4 ar
   7    3   42 1
   8    4    5 ar
   9    4   43 1
  10    5    6 ar
  11    5    7 1
  12    6   44 1
  13    7    8 1
  14    7   45 1
  15    8    9 2
  16    8   10 1
  17    9   12 1
  18   10   11 2
  19   11   12 1
  20   11   14 1
  21   12   13 1
  22   13   21 ar
  23   13   25 ar
  24   14   46 1
  25   14   47 1
  26   15   16 1
  27   15   20 1
  28   16   17 1
  29   16   48 1
  30   16   49 1
  31   17   18 1
  32   17   50 1
  33   17   51 1
  34   18   19 1
  35   18   26 1
  36   19   20 1
  37   19   52 1
  38   19   53 1
  39   20   54 1
  40   20   55 1
  41   21   22 ar
  42   22   23 ar
  43   22   56 1
  44   23   24 ar
  45   24   25 ar
  46   24   33 1
  47   25   35 1
  48   26   27 1
  49   26   28 1
  50   26   57 1
  51   27   30 1
  52   27   32 1
  53   27   58 1
  54   28   29 1
  55   28   59 1
  56   28   60 1
  57   29   31 1
  58   29   32 1
  59   29   61 1
  60   30   31 1
  61   30   62 1
  62   30   63 1
  63   31   64 1
  64   31   65 1
  65   32   66 1
  66   32   67 1
  67   33   34 1
  68   34   35 2
  69   34   68 1
  70   35   36 1
  71   36   37 2
  72   36   40 1
  73   37   38 1
  74   37   69 1
  75   38   39 2
  76   38   70 1
  77   39   40 1
  78   39   71 1

#	End of record

