#	Name: ASD11000311
#	Creating user name:	WinNT
#	Creation time:	15. 06. 2019 21:29

#	Modifying user name:	WinNT
#	Modification time:	15. 06. 2019 21:29

#	Program:	/corina/corina34_cracker 3.40 0067  02.08.2006

@<TRIPOS>MOLECULE
ASD11000311
  33   35    0    0    0
SMALL
NO_CHARGES


@<TRIPOS>ATOM
   1 N1            -0.0169     1.3942     0.0097 N.pl3   
   2 N2             0.0021    -0.0041     0.0020 N.2     
   3 C3             1.2308    -0.4351    -0.0120 C.2     
   4 C4             2.1114     0.7295    -0.0142 C.ar    
   5 C5             3.4991     0.8946    -0.0265 C.ar    
   6 C6             4.0330     2.1757    -0.0247 C.ar    
   7 C7             3.1854     3.2925    -0.0102 C.ar    
   8 C8             1.8315     3.1377     0.0023 C.ar    
   9 C9             1.2718     1.8607    -0.0001 C.ar    
  10 C10            5.4992     2.3632    -0.0377 C.2     
  11 C11            6.0111     3.5860    -0.0360 C.2     
  12 C12           -1.2218     2.2274     0.0201 C.3     
  13 C13           -1.8614     2.2176    -1.3708 C.3     
  14 C14           -3.1523     3.0414    -1.3364 C.3     
  15 C15           -4.0834     2.4667    -0.2644 C.3     
  16 C16           -3.3580     2.4668     1.0838 C.3     
  17 O17           -2.1513     1.7093     0.9740 O.3     
  18 H18            1.5427    -1.4691    -0.0200 H       
  19 H19            4.1502     0.0331    -0.0370 H       
  20 H20            3.6098     4.2856    -0.0086 H       
  21 H21            1.1902     4.0066     0.0142 H       
  22 H22            6.1534     1.5039    -0.0486 H       
  23 H23            5.3568     4.4453    -0.0252 H       
  24 H24            7.0823     3.7230    -0.0455 H       
  25 H25           -0.9550     3.2491     0.2903 H       
  26 H26           -1.1704     2.6533    -2.0925 H       
  27 H27           -2.0914     1.1918    -1.6587 H       
  28 H28           -2.9169     4.0784    -1.0970 H       
  29 H29           -3.6421     2.9925    -2.3090 H       
  30 H30           -4.9815     3.0804    -0.1949 H       
  31 H31           -4.3583     1.4459    -0.5300 H       
  32 H32           -3.1193     3.4917     1.3679 H       
  33 H33           -4.0004     2.0194     1.8422 H       
@<TRIPOS>BOND
   1    1    2 1
   2    1    9 1
   3    1   12 1
   4    2    3 2
   5    3    4 1
   6    3   18 1
   7    4    5 ar
   8    4    9 ar
   9    5    6 ar
  10    5   19 1
  11    6    7 ar
  12    6   10 1
  13    7    8 ar
  14    7   20 1
  15    8    9 ar
  16    8   21 1
  17   10   11 2
  18   10   22 1
  19   11   23 1
  20   11   24 1
  21   12   13 1
  22   12   17 1
  23   12   25 1
  24   13   14 1
  25   13   26 1
  26   13   27 1
  27   14   15 1
  28   14   28 1
  29   14   29 1
  30   15   16 1
  31   15   30 1
  32   15   31 1
  33   16   17 1
  34   16   32 1
  35   16   33 1

#	End of record

