#	Name: ASD11000011
#	Creating user name:	WinNT
#	Creation time:	15. 06. 2019 21:28

#	Modifying user name:	WinNT
#	Modification time:	15. 06. 2019 21:28

#	Program:	/corina/corina34_cracker 3.40 0067  02.08.2006

@<TRIPOS>MOLECULE
ASD11000011
  49   52    0    0    0
SMALL
NO_CHARGES


@<TRIPOS>ATOM
   1 C1             3.0240    -2.9435    -1.9483 C.ar    
   2 C2             4.1652    -2.6890    -2.6854 C.ar    
   3 C3             4.9272    -1.5660    -2.4175 C.ar    
   4 C4             4.5398    -0.7015    -1.4091 C.ar    
   5 C5             3.4083    -0.9542    -0.6777 C.ar    
   6 C6             2.6422    -2.0757    -0.9408 C.ar    
   7 C7             5.3748     0.5283    -1.1190 C.3     
   8 C8             6.0815     0.3284     0.2241 C.3     
   9 C9             5.1873     0.7473     1.3742 C.3     
  10 C10            3.9786    -0.1429     1.5854 C.3     
  11 C11            2.9884    -0.0054     0.4257 C.3     
  12 N12            5.9852     0.7499     2.6077 N.3     
  13 C13            6.9584     1.8509     2.6030 C.3     
  14 C14            7.7127     1.8672     3.9347 C.3     
  15 N15            8.3846     0.5750     4.1299 N.3     
  16 C16            7.4114    -0.5261     4.1346 C.3     
  17 C17            6.6572    -0.5424     2.8029 C.3     
  18 C18            9.1433     0.5774     5.3027 C.ar    
  19 C19            9.8595    -0.5545     5.6708 C.ar    
  20 C20           10.6090    -0.5485     6.8307 C.ar    
  21 C21           10.6469     0.5825     7.6255 C.ar    
  22 C22            9.9351     1.7110     7.2620 C.ar    
  23 C23            9.1878     1.7136     6.1006 C.ar    
  24 H24            2.4275    -3.8180    -2.1621 H       
  25 H25            4.4625    -3.3678    -3.4711 H       
  26 H26            5.8195    -1.3654    -2.9918 H       
  27 H27            1.7511    -2.2724    -0.3634 H       
  28 H28            6.1162     0.6620    -1.9067 H       
  29 H29            4.7296     1.4052    -1.0665 H       
  30 H30            6.3427    -0.7237     0.3383 H       
  31 H31            6.9924     0.9268     0.2422 H       
  32 H32            4.8399     1.7638     1.1895 H       
  33 H33            4.3058    -1.1802     1.6560 H       
  34 H34            3.4836     0.1397     2.5144 H       
  35 H35            3.0007     1.0188     0.0529 H       
  36 H36            1.9857    -0.2619     0.7677 H       
  37 H37            7.6658     1.7076     1.7862 H       
  38 H38            6.4355     2.7980     2.4696 H       
  39 H39            8.4552     2.6650     3.9223 H       
  40 H40            7.0087     2.0378     4.7492 H       
  41 H41            7.9343    -1.4731     4.2679 H       
  42 H42            6.7040    -0.3827     4.9514 H       
  43 H43            5.9146    -1.3402     2.8152 H       
  44 H44            7.3611    -0.7129     1.9883 H       
  45 H45            9.8301    -1.4383     5.0507 H       
  46 H46           11.1658    -1.4283     7.1177 H       
  47 H47           11.2335     0.5844     8.5323 H       
  48 H48            9.9669     2.5927     7.8849 H       
  49 H49            8.6356     2.5968     5.8149 H       
@<TRIPOS>BOND
   1    1    2 ar
   2    1    6 ar
   3    1   24 1
   4    2    3 ar
   5    2   25 1
   6    3    4 ar
   7    3   26 1
   8    4    5 ar
   9    4    7 1
  10    5    6 ar
  11    5   11 1
  12    6   27 1
  13    7    8 1
  14    7   28 1
  15    7   29 1
  16    8    9 1
  17    8   30 1
  18    8   31 1
  19    9   10 1
  20    9   12 1
  21    9   32 1
  22   10   11 1
  23   10   33 1
  24   10   34 1
  25   11   35 1
  26   11   36 1
  27   12   13 1
  28   12   17 1
  29   13   14 1
  30   13   37 1
  31   13   38 1
  32   14   15 1
  33   14   39 1
  34   14   40 1
  35   15   16 1
  36   15   18 1
  37   16   17 1
  38   16   41 1
  39   16   42 1
  40   17   43 1
  41   17   44 1
  42   18   19 ar
  43   18   23 ar
  44   19   20 ar
  45   19   45 1
  46   20   21 ar
  47   20   46 1
  48   21   22 ar
  49   21   47 1
  50   22   23 ar
  51   22   48 1
  52   23   49 1

#	End of record

