#	Name: ASD11920034
#	Creating user name:	WinNT
#	Creation time:	15. 06. 2019 21:29

#	Modifying user name:	WinNT
#	Modification time:	15. 06. 2019 21:29

#	Program:	/corina/corina34_cracker 3.40 0067  02.08.2006

@<TRIPOS>MOLECULE
ASD11920034
  43   45    0    0    0
SMALL
NO_CHARGES


@<TRIPOS>ATOM
   1 C1             0.2179     1.6950    -0.3164 C.3     
   2 C2             0.4720    -2.4270    -3.0440 C.1     
   3 N3             0.5632    -2.9240    -4.0614 N.1     
   4 C4             0.0429    -2.8153     1.8713 C.3     
   5 C5             0.1358    -0.5881     0.7204 C.ar    
   6 C6             0.1488    -1.9745     0.6252 C.ar    
   7 C7             0.2588    -2.5812    -0.6064 C.ar    
   8 C8             0.3570    -1.8005    -1.7614 C.ar    
   9 C9             0.3430    -0.4066    -1.6612 C.ar    
  10 N10            4.6786    -0.0706     2.1765 N.pl3   
  11 C11            0.2331     0.1920    -0.4257 C.ar    
  12 C12            3.4625     0.2599     2.7539 C.ar    
  13 N13            2.3430    -0.0120     2.0979 N.ar    
  14 C14            1.1601     0.2879     2.6152 C.ar    
  15 C15            1.1025     0.8997     3.8710 C.ar    
  16 C16            2.3014     1.1700     4.5305 C.ar    
  17 N17            3.4517     0.8323     3.9452 N.ar    
  18 O18            0.0220     0.0059     1.9358 O.3     
  19 C19            2.2972     1.8154     5.8604 C.2     
  20 O20            3.3411     2.0454     6.4235 O.2     
  21 C21            5.8690     0.3105     2.7928 C.ar    
  22 C22            6.9842    -0.5188     2.7213 C.ar    
  23 C23            8.1617    -0.1455     3.3289 C.ar    
  24 C24            8.2365     1.0686     4.0180 C.ar    
  25 C25            7.1144     1.8995     4.0874 C.ar    
  26 C26            5.9415     1.5221     3.4734 C.ar    
  27 C27            9.4596     1.4599     4.6516 C.1     
  28 N28           10.4298     1.7704     5.1543 N.1     
  29 Br29          -0.5584     1.3496     4.6552 Br      
  30 H30            1.2380     2.0612    -0.2004 H       
  31 H31           -0.2205     2.1205    -1.2190 H       
  32 H32           -0.3747     1.9903     0.5494 H       
  33 H33           -1.0064    -3.0215     2.0824 H       
  34 H34            0.5749    -3.7548     1.7220 H       
  35 H35            0.4836    -2.2777     2.7109 H       
  36 H36            0.2696    -3.6586    -0.6795 H       
  37 H37            0.4190     0.2004    -2.5513 H       
  38 H38            4.7010    -0.5671     1.3435 H       
  39 H39            1.3610     2.0814     6.3286 H       
  40 H40            6.9257    -1.4566     2.1888 H       
  41 H41            9.0266    -0.7899     3.2736 H       
  42 H42            7.1686     2.8379     4.6192 H       
  43 H43            5.0754     2.1654     3.5231 H       
@<TRIPOS>BOND
   1    1   11 1
   2    1   30 1
   3    1   31 1
   4    1   32 1
   5    2    3 3
   6    2    8 1
   7    4    6 1
   8    4   33 1
   9    4   34 1
  10    4   35 1
  11    5    6 ar
  12    5   11 ar
  13    5   18 1
  14    6    7 ar
  15    7    8 ar
  16    7   36 1
  17    8    9 ar
  18    9   11 ar
  19    9   37 1
  20   10   12 1
  21   10   21 1
  22   10   38 1
  23   12   13 ar
  24   12   17 ar
  25   13   14 ar
  26   14   15 ar
  27   14   18 1
  28   15   16 ar
  29   15   29 1
  30   16   17 ar
  31   16   19 1
  32   19   20 2
  33   19   39 1
  34   21   22 ar
  35   21   26 ar
  36   22   23 ar
  37   22   40 1
  38   23   24 ar
  39   23   41 1
  40   24   25 ar
  41   24   27 1
  42   25   26 ar
  43   25   42 1
  44   26   43 1
  45   27   28 3

#	End of record

