#	Name: ASD13390013
#	Creating user name:	WinNT
#	Creation time:	15. 06. 2019 21:30

#	Modifying user name:	WinNT
#	Modification time:	15. 06. 2019 21:30

#	Program:	/corina/corina34_cracker 3.40 0067  02.08.2006

@<TRIPOS>MOLECULE
ASD13390013
  25   24    0    0    0
SMALL
NO_CHARGES


@<TRIPOS>ATOM
   1 C1            -0.0166     1.3752     0.0096 C.ar    
   2 C2             0.0021    -0.0041     0.0020 C.ar    
   3 C3             1.2232    -0.6853    -0.0133 C.ar    
   4 C4             2.4196     0.0373    -0.0208 C.ar    
   5 C5             2.3869     1.4206    -0.0131 C.ar    
   6 C6             1.1685     2.0876     0.0021 C.ar    
   7 C7             1.2484    -2.1570    -0.0209 C.2     
   8 N8             0.1297    -2.8288    -0.0135 N.2     
   9 N9             0.1519    -4.1186    -0.0202 N.2     
  10 C10           -0.9781    -4.7972    -0.0126 C.2     
  11 N11           -2.1772    -4.1320     0.0024 N.pl3   
  12 N12           -0.9545    -6.1683    -0.0197 N.pl3   
  13 O13            3.5477     2.1273    -0.0199 O.3     
  14 H14           -0.9602     1.9005     0.0169 H       
  15 H15           -0.9255    -0.5573     0.0082 H       
  16 H16            3.3664    -0.4823    -0.0323 H       
  17 H17            1.1468     3.1674     0.0077 H       
  18 H18            2.1928    -2.6808    -0.0327 H       
  19 H19           -2.1939    -3.1622     0.0074 H       
  20 H20           -3.0088    -4.6314     0.0080 H       
  21 H21           -0.1063    -6.6387    -0.0303 H       
  22 H22           -1.7861    -6.6677    -0.0142 H       
  23 H23            3.8756     2.3366    -0.9052 H       
  24 Cl24           8.8756     8.1674     5.0169 Cl      
  25 H25            8.8756     9.5374     5.0169 H       
@<TRIPOS>BOND
   1    1    2 ar
   2    1    6 ar
   3    1   14 1
   4    2    3 ar
   5    2   15 1
   6    3    4 ar
   7    3    7 1
   8    4    5 ar
   9    4   16 1
  10    5    6 ar
  11    5   13 1
  12    6   17 1
  13    7    8 2
  14    7   18 1
  15    8    9 1
  16    9   10 2
  17   10   11 1
  18   10   12 1
  19   11   19 1
  20   11   20 1
  21   12   21 1
  22   12   22 1
  23   13   23 1
  24   24   25 1

#	End of record

