#	Name: ASD14870008
#	Creating user name:	WinNT
#	Creation time:	15. 06. 2019 21:31

#	Modifying user name:	WinNT
#	Modification time:	15. 06. 2019 21:31

#	Program:	/corina/corina34_cracker 3.40 0067  02.08.2006

@<TRIPOS>MOLECULE
ASD14870008
  47   50    0    0    0
SMALL
NO_CHARGES


@<TRIPOS>ATOM
   1 C1             1.1776    -1.0343     3.4406 C.ar    
   2 C2             1.1433    -0.9382     2.0633 C.ar    
   3 C3             1.2564    -2.0826     1.2849 C.ar    
   4 C4             1.4039    -3.3226     1.8921 C.ar    
   5 C5             1.4380    -3.4168     3.2696 C.ar    
   6 C6             1.3249    -2.2733     4.0463 C.ar    
   7 O7             1.3590    -2.3669     5.4027 O.3     
   8 C8             1.2370    -1.1491     6.1403 C.3     
   9 N9             1.2213    -1.9862    -0.1108 N.am    
  10 S10            2.3358    -2.8011    -1.0253 S.o2    
  11 O11            2.3045    -4.1522    -0.5860 O.2     
  12 O12            2.1063    -2.4169    -2.3739 O.2     
  13 C13            3.9245    -2.1739    -0.5926 C.ar    
  14 C14            4.8460    -2.9910     0.0247 C.ar    
  15 C15            6.0978    -2.5031     0.3670 C.ar    
  16 C16            6.4370    -1.1932     0.0940 C.ar    
  17 C17            5.5224    -0.3579    -0.5263 C.ar    
  18 C18            4.2564    -0.8489    -0.8792 C.ar    
  19 O19            5.5522     0.9374    -0.9160 O.3     
  20 C20            4.3659     1.2348    -1.4758 C.2     
  21 N21            3.5863     0.1828    -1.4616 N.2     
  22 S22            3.9267     2.8084    -2.1357 S.3     
  23 C23            5.4563     3.7216    -1.8156 C.3     
  24 C24            5.3095     5.1371    -2.3113 C.ar    
  25 C25            4.8204     6.1173    -1.4680 C.ar    
  26 C26            4.6855     7.4157    -1.9222 C.ar    
  27 C27            5.0400     7.7344    -3.2210 C.ar    
  28 C28            5.5295     6.7530    -4.0644 C.ar    
  29 C29            5.6692     5.4561    -3.6074 C.ar    
  30 Cl30           4.8703     9.3649    -3.7922 Cl      
  31 H31            1.0942    -0.1438     4.0461 H       
  32 H32            1.0282     0.0266     1.5918 H       
  33 H33            1.4916    -4.2132     1.2875 H       
  34 H34            1.5523    -4.3812     3.7421 H       
  35 H35            2.0536    -0.4786     5.8724 H       
  36 H36            0.2848    -0.6746     5.9033 H       
  37 H37            1.2796    -1.3651     7.2079 H       
  38 H38            0.5442    -1.4421    -0.5425 H       
  39 H39            4.5917    -4.0175     0.2436 H       
  40 H40            6.8124    -3.1524     0.8510 H       
  41 H41            7.4139    -0.8200     0.3639 H       
  42 H42            5.6565     3.7308    -0.7441 H       
  43 H43            6.2835     3.2384    -2.3356 H       
  44 H44            4.5433     5.8683    -0.4543 H       
  45 H45            4.3030     8.1813    -1.2634 H       
  46 H46            5.8064     7.0011    -5.0784 H       
  47 H47            6.0513     4.6899    -4.2658 H       
@<TRIPOS>BOND
   1    1    2 ar
   2    1    6 ar
   3    1   31 1
   4    2    3 ar
   5    2   32 1
   6    3    4 ar
   7    3    9 1
   8    4    5 ar
   9    4   33 1
  10    5    6 ar
  11    5   34 1
  12    6    7 1
  13    7    8 1
  14    8   35 1
  15    8   36 1
  16    8   37 1
  17    9   10 am
  18    9   38 1
  19   10   11 2
  20   10   12 2
  21   10   13 1
  22   13   14 ar
  23   13   18 ar
  24   14   15 ar
  25   14   39 1
  26   15   16 ar
  27   15   40 1
  28   16   17 ar
  29   16   41 1
  30   17   18 ar
  31   17   19 1
  32   18   21 1
  33   19   20 1
  34   20   21 2
  35   20   22 1
  36   22   23 1
  37   23   24 1
  38   23   42 1
  39   23   43 1
  40   24   25 ar
  41   24   29 ar
  42   25   26 ar
  43   25   44 1
  44   26   27 ar
  45   26   45 1
  46   27   28 ar
  47   27   30 1
  48   28   29 ar
  49   28   46 1
  50   29   47 1

#	End of record

