#	Name: ASD11920068
#	Creating user name:	WinNT
#	Creation time:	15. 06. 2019 21:29

#	Modifying user name:	WinNT
#	Modification time:	15. 06. 2019 21:29

#	Program:	/corina/corina34_cracker 3.40 0067  02.08.2006

@<TRIPOS>MOLECULE
ASD11920068
  66   69    0    0    0
SMALL
NO_CHARGES


@<TRIPOS>ATOM
   1 C1             1.6052     1.4948     0.6870 C.3     
   2 C2            -0.3814    -2.0650    -2.2136 C.3     
   3 C3             1.8554    -3.2968     2.1050 C.3     
   4 C4             3.5509   -10.5457    -7.0745 C.1     
   5 C5             2.5741    -8.5428    -6.0519 C.ar    
   6 C6             2.8073   -10.5611    -4.7382 C.ar    
   7 C7             2.0189    -7.9045    -4.9658 C.ar    
   8 C8             2.2518    -9.9164    -3.6560 C.ar    
   9 C9             0.6305    -0.3301    -0.7209 C.ar    
  10 C10            1.6991    -0.9186     1.3423 C.ar    
  11 C11            5.0260    -3.8220    -5.7021 C.3     
  12 C12            4.0932    -4.7345    -4.9034 C.3     
  13 C13            8.4095    -3.5932    -9.2182 C.3     
  14 C14            6.8142    -1.8145    -9.0493 C.3     
  15 C15            5.7090    -4.6315    -6.8063 C.3     
  16 C16            7.4531    -4.5370    -8.4845 C.3     
  17 C17            5.8416    -2.7403    -8.3139 C.3     
  18 C18            1.3030     0.0412     0.4290 C.ar    
  19 N19            4.0090   -11.0751    -7.9691 N.1     
  20 N20            0.8959    -5.9448    -1.4904 N.ar    
  21 N21            2.3705    -5.9366    -3.2586 N.ar    
  22 N22            1.9665    -3.9969    -2.0912 N.ar    
  23 N23            1.2925    -7.9377    -2.6667 N.pl3   
  24 N24            0.4672    -3.9767    -0.2841 N.pl3   
  25 O25            7.6513    -2.5950    -9.9068 O.3     
  26 O26            3.4553    -3.9785    -3.8722 O.3     
  27 C27            2.9734    -9.8784    -5.9467 C.ar    
  28 C28            0.3519    -1.6614    -0.9604 C.ar    
  29 C29            1.4233    -2.2516     1.1091 C.ar    
  30 C30            1.8550    -8.5872    -3.7644 C.ar    
  31 C31            1.5222    -6.5894    -2.4693 C.ar    
  32 C32            1.1180    -4.6479    -1.3011 C.ar    
  33 C33            2.5917    -4.6417    -3.0689 C.ar    
  34 C34            0.7480    -2.6278    -0.0449 C.ar    
  35 N35            6.6047    -3.7554    -7.5732 N.3     
  36 H36            0.7815     1.9443     1.2417 H       
  37 H37            2.5230     1.5773     1.2692 H       
  38 H38            1.7297     2.0143    -0.2631 H       
  39 H39            0.3372    -2.2451    -3.0131 H       
  40 H40           -0.9502    -2.9754    -2.0244 H       
  41 H41           -1.0617    -1.2665    -2.5096 H       
  42 H42            1.0964    -3.3949     2.8811 H       
  43 H43            1.9812    -4.2529     1.5968 H       
  44 H44            2.8012    -2.9986     2.5573 H       
  45 H45            2.6969    -8.0137    -6.9854 H       
  46 H46            3.1151   -11.5928    -4.6533 H       
  47 H47            1.7105    -6.8726    -5.0462 H       
  48 H48            2.1235   -10.4431    -2.7219 H       
  49 H49            0.3188     0.4223    -1.4303 H       
  50 H50            2.2245    -0.6254     2.2392 H       
  51 H51            4.4480    -3.0132    -6.1492 H       
  52 H52            5.7821    -3.4040    -5.0375 H       
  53 H53            3.3372    -5.1526    -5.5680 H       
  54 H54            4.6712    -5.5433    -4.4564 H       
  55 H55            9.0722    -3.1141    -8.4975 H       
  56 H56            9.0012    -4.1607    -9.9364 H       
  57 H57            6.2520    -1.0956    -9.6454 H       
  58 H58            7.4305    -1.2837    -8.3237 H       
  59 H59            6.2871    -5.4403    -6.3592 H       
  60 H60            4.9530    -5.0496    -7.4709 H       
  61 H61            6.8265    -5.0562    -9.2097 H       
  62 H62            8.0280    -5.2650    -7.9120 H       
  63 H63            5.2401    -2.1567    -7.6169 H       
  64 H64            5.1892    -3.2308    -9.0364 H       
  65 H65            0.7398    -8.4321    -2.0415 H       
  66 H66           -0.1847    -4.4410     0.2640 H       
@<TRIPOS>BOND
   1    1   18 1
   2    1   36 1
   3    1   37 1
   4    1   38 1
   5    2   28 1
   6    2   39 1
   7    2   40 1
   8    2   41 1
   9    3   29 1
  10    3   42 1
  11    3   43 1
  12    3   44 1
  13    4   19 3
  14    4   27 1
  15    5    7 ar
  16    5   27 ar
  17    5   45 1
  18    6    8 ar
  19    6   27 ar
  20    6   46 1
  21    7   30 ar
  22    7   47 1
  23    8   30 ar
  24    8   48 1
  25    9   18 ar
  26    9   28 ar
  27    9   49 1
  28   10   18 ar
  29   10   29 ar
  30   10   50 1
  31   11   12 1
  32   11   15 1
  33   11   51 1
  34   11   52 1
  35   12   26 1
  36   12   53 1
  37   12   54 1
  38   13   16 1
  39   13   25 1
  40   13   55 1
  41   13   56 1
  42   14   17 1
  43   14   25 1
  44   14   57 1
  45   14   58 1
  46   15   35 1
  47   15   59 1
  48   15   60 1
  49   16   35 1
  50   16   61 1
  51   16   62 1
  52   17   35 1
  53   17   63 1
  54   17   64 1
  55   20   31 ar
  56   20   32 ar
  57   21   31 ar
  58   21   33 ar
  59   22   32 ar
  60   22   33 ar
  61   23   30 1
  62   23   31 1
  63   23   65 1
  64   24   32 1
  65   24   34 1
  66   24   66 1
  67   26   33 1
  68   28   34 ar
  69   29   34 ar

#	End of record

