#	Name: ASD10610052
#	Creating user name:	WinNT
#	Creation time:	15. 06. 2019 21:27

#	Modifying user name:	WinNT
#	Modification time:	15. 06. 2019 21:27

#	Program:	/corina/corina34_cracker 3.40 0067  02.08.2006

@<TRIPOS>MOLECULE
ASD10610052
  64   69    0    0    0
SMALL
NO_CHARGES


@<TRIPOS>ATOM
   1 C1             1.9238     3.3948    -2.8026 C.ar    
   2 N2             2.9806     3.2804    -3.5930 N.ar    
   3 C3             3.9957     2.5046    -3.2602 C.ar    
   4 C4             3.9423     1.7980    -2.0521 C.ar    
   5 C5             2.8064     1.9477    -1.2465 C.ar    
   6 N6             1.8346     2.7437    -1.6524 N.ar    
   7 C7             5.0536     0.9183    -1.6391 C.2     
   8 O8             6.0320     0.7999    -2.3510 O.2     
   9 N9             4.9836     0.2466    -0.4727 N.am    
  10 C10            6.0324    -0.7118    -0.1153 C.3     
  11 C11            7.4406    -0.1623     0.1213 C.3     
  12 C12            6.5982    -0.6430     1.3046 C.3     
  13 C13            5.9144    -2.0723    -0.7527 C.2     
  14 N14            4.6992    -2.6203    -0.9512 N.am    
  15 O15            6.9129    -2.6741    -1.0869 O.2     
  16 C16            4.5873    -3.9847    -1.4728 C.3     
  17 C17            3.2437    -4.6127    -1.0458 C.3     
  18 C18            2.3248    -4.2720    -2.2380 C.3     
  19 C19            3.2526    -4.1325    -3.4262 C.ar    
  20 C20            2.9778    -4.1488    -4.7815 C.ar    
  21 C21            4.0082    -3.9996    -5.7065 C.ar    
  22 C22            5.3181    -3.8333    -5.2599 C.ar    
  23 C23            5.5839    -3.8178    -3.9051 C.ar    
  24 C24            4.5534    -3.9673    -2.9865 C.ar    
  25 F25            6.8531    -3.6567    -3.4710 F       
  26 C26            3.7133    -4.0180    -7.1592 C.ar    
  27 C27            4.2090    -3.0025    -7.9928 C.ar    
  28 C28            3.9252    -3.0312    -9.3576 C.ar    
  29 C29            3.1593    -4.0562    -9.8822 C.ar    
  30 C30            2.6713    -5.0567    -9.0586 C.ar    
  31 C31            2.9487    -5.0447    -7.7045 C.ar    
  32 O32            6.0415    -0.7602    -6.0343 O.3     
  33 N33            5.3678    -1.7596    -6.1696 N.2     
  34 C34            5.0289    -1.9063    -7.4250 C.2     
  35 N35            5.5675    -0.8699    -8.1073 N.2     
  36 C36            6.2046    -0.1542    -7.2146 C.2     
  37 C37            6.9767     1.1145    -7.4700 C.3     
  38 F38            4.3978    -2.0580   -10.1669 F       
  39 Cl39           1.7112    -6.3369    -9.7316 Cl      
  40 O40            0.9076     4.2050    -3.1786 O.3     
  41 C41           -0.2108     4.2963    -2.2938 C.3     
  42 H42            4.8539     2.4159    -3.9097 H       
  43 H43            2.7267     1.4197    -0.3077 H       
  44 H44            4.2388     0.3976     0.1300 H       
  45 H45            8.2817    -0.7850    -0.1836 H       
  46 H46            7.5867     0.9122     0.0111 H       
  47 H47            6.1900     0.1153     1.9728 H       
  48 H48            6.8850    -1.5820     1.7781 H       
  49 H49            3.8987    -2.1112    -0.7488 H       
  50 H50            5.4190    -4.5937    -1.1186 H       
  51 H51            3.3407    -5.6919    -0.9275 H       
  52 H52            2.8752    -4.1529    -0.1288 H       
  53 H53            1.6112    -5.0782    -2.4080 H       
  54 H54            1.8005    -3.3340    -2.0554 H       
  55 H55            1.9615    -4.2779    -5.1234 H       
  56 H56            6.1224    -3.7174    -5.9713 H       
  57 H57            2.9404    -4.0763   -10.9396 H       
  58 H58            2.5686    -5.8307    -7.0687 H       
  59 H59            7.3959     1.4797    -6.5324 H       
  60 H60            7.7835     0.9133    -8.1748 H       
  61 H61            6.3091     1.8683    -7.8875 H       
  62 H62           -0.6551     3.3090    -2.1667 H       
  63 H63            0.1212     4.6726    -1.3262 H       
  64 H64           -0.9516     4.9767    -2.7136 H       
@<TRIPOS>BOND
   1    1    2 ar
   2    1    6 ar
   3    1   40 1
   4    2    3 ar
   5    3    4 ar
   6    3   42 1
   7    4    5 ar
   8    4    7 1
   9    5    6 ar
  10    5   43 1
  11    7    8 2
  12    7    9 am
  13    9   10 1
  14    9   44 1
  15   10   11 1
  16   10   12 1
  17   10   13 1
  18   11   12 1
  19   11   45 1
  20   11   46 1
  21   12   47 1
  22   12   48 1
  23   13   14 am
  24   13   15 2
  25   14   16 1
  26   14   49 1
  27   16   17 1
  28   16   24 1
  29   16   50 1
  30   17   18 1
  31   17   51 1
  32   17   52 1
  33   18   19 1
  34   18   53 1
  35   18   54 1
  36   19   20 ar
  37   19   24 ar
  38   20   21 ar
  39   20   55 1
  40   21   22 ar
  41   21   26 1
  42   22   23 ar
  43   22   56 1
  44   23   24 ar
  45   23   25 1
  46   26   27 ar
  47   26   31 ar
  48   27   28 ar
  49   27   34 1
  50   28   29 ar
  51   28   38 1
  52   29   30 ar
  53   29   57 1
  54   30   31 ar
  55   30   39 1
  56   31   58 1
  57   32   33 1
  58   32   36 1
  59   33   34 2
  60   34   35 1
  61   35   36 2
  62   36   37 1
  63   37   59 1
  64   37   60 1
  65   37   61 1
  66   40   41 1
  67   41   62 1
  68   41   63 1
  69   41   64 1

#	End of record

