#	Name: ASD13490018
#	Creating user name:	WinNT
#	Creation time:	15. 06. 2019 21:30

#	Modifying user name:	WinNT
#	Modification time:	15. 06. 2019 21:30

#	Program:	/corina/corina34_cracker 3.40 0067  02.08.2006

@<TRIPOS>MOLECULE
ASD13490018
  51   55    0    0    0
SMALL
NO_CHARGES


@<TRIPOS>ATOM
   1 C1            -0.0090     1.4963     0.1235 C.ar    
   2 C2             0.0175     0.1889     0.5781 C.ar    
   3 C3             1.1614    -0.3078     1.1993 C.ar    
   4 C4             2.2713     0.5076     1.3614 C.ar    
   5 C5             2.2440     1.8120     0.9076 C.ar    
   6 C6             1.1048     2.3100     0.2878 C.ar    
   7 N7             1.1903    -1.6341     1.6617 N.pl3   
   8 C8             2.1668    -2.5620     1.4107 C.2     
   9 C9             1.7993    -3.6945     2.0411 C.2     
  10 N10            0.6316    -3.4658     2.6599 N.2     
  11 C11            0.2627    -2.2324     2.4426 C.2     
  12 C12            2.5664    -4.9917     2.0496 C.3     
  13 O13           -1.0715    -0.6092     0.4188 O.3     
  14 C14           -2.2091    -0.0334    -0.2263 C.3     
  15 N15            1.0793     3.6303    -0.1707 N.pl3   
  16 C16            2.2436     4.4008    -0.1452 C.2     
  17 C17            3.3935     3.9832    -0.8553 C.2     
  18 C18            2.2835     5.5706     0.5618 C.2     
  19 C19            3.4618     6.3329     0.5761 C.2     
  20 C20            4.5514     5.9166    -0.1036 C.2     
  21 C21            4.8849     2.9753    -2.0668 C.2     
  22 N22            3.6358     2.9208    -1.6122 N.2     
  23 N23            4.5259     4.7527    -0.8186 N.pl3   
  24 C24            5.4704     4.1127    -1.5869 C.2     
  25 C25            6.8523     4.5679    -1.8443 C.ar    
  26 C26            7.1828     5.9174    -1.7058 C.ar    
  27 C27            8.4745     6.3365    -1.9468 C.ar    
  28 C28            9.4434     5.4212    -2.3258 C.ar    
  29 C29            9.1212     4.0807    -2.4648 C.ar    
  30 C30            7.8339     3.6493    -2.2212 C.ar    
  31 F31           10.7070     5.8375    -2.5610 F       
  32 H32           -0.8932     1.8819    -0.3623 H       
  33 H33            3.1578     0.1225     1.8433 H       
  34 H34            3.1094     2.4455     1.0348 H       
  35 H35            3.0594    -2.4140     0.8210 H       
  36 H36           -0.6356    -1.7678     2.8217 H       
  37 H37            3.2568    -5.0001     2.8930 H       
  38 H38            1.8698    -5.8250     2.1418 H       
  39 H39            3.1272    -5.0882     1.1199 H       
  40 H40           -1.9330     0.2891    -1.2302 H       
  41 H41           -3.0054    -0.7751    -0.2890 H       
  42 H42           -2.5567     0.8252     0.3483 H       
  43 H43            0.2529     4.0112    -0.5065 H       
  44 H44            1.4130     5.9063     1.1058 H       
  45 H45            3.4969     7.2573     1.1334 H       
  46 H46            5.4520     6.5124    -0.0854 H       
  47 H47            5.3564     2.2441    -2.7066 H       
  48 H48            6.4283     6.6317    -1.4108 H       
  49 H49            8.7312     7.3802    -1.8404 H       
  50 H50            9.8803     3.3717    -2.7604 H       
  51 H51            7.5848     2.6036    -2.3259 H       
@<TRIPOS>BOND
   1    1    2 ar
   2    1    6 ar
   3    1   32 1
   4    2    3 ar
   5    2   13 1
   6    3    4 ar
   7    3    7 1
   8    4    5 ar
   9    4   33 1
  10    5    6 ar
  11    5   34 1
  12    6   15 1
  13    7    8 1
  14    7   11 1
  15    8    9 2
  16    8   35 1
  17    9   10 1
  18    9   12 1
  19   10   11 2
  20   11   36 1
  21   12   37 1
  22   12   38 1
  23   12   39 1
  24   13   14 1
  25   14   40 1
  26   14   41 1
  27   14   42 1
  28   15   16 1
  29   15   43 1
  30   16   18 2
  31   16   17 1
  32   17   23 1
  33   17   22 2
  34   18   19 1
  35   18   44 1
  36   19   20 2
  37   19   45 1
  38   20   23 1
  39   20   46 1
  40   21   22 1
  41   21   24 2
  42   21   47 1
  43   23   24 1
  44   24   25 1
  45   25   26 ar
  46   25   30 ar
  47   26   27 ar
  48   26   48 1
  49   27   28 ar
  50   27   49 1
  51   28   29 ar
  52   28   31 1
  53   29   30 ar
  54   29   50 1
  55   30   51 1

#	End of record

