#	Name: ASD13110024
#	Creating user name:	WinNT
#	Creation time:	15. 06. 2019 21:30

#	Modifying user name:	WinNT
#	Modification time:	15. 06. 2019 21:30

#	Program:	/corina/corina34_cracker 3.40 0067  02.08.2006

@<TRIPOS>MOLECULE
ASD13110024
  49   52    0    0    0
SMALL
NO_CHARGES


@<TRIPOS>ATOM
   1 C1            -0.0464     1.5805     0.0573 C.3     
   2 C2            -0.0525     0.0508     0.0309 C.3     
   3 H3             0.4330    -0.2982    -0.8804 H       
   4 N4            -1.4371    -0.4324     0.0622 N.am    
   5 C5            -2.1443    -0.3736     1.3523 C.3     
   6 C6            -1.4300    -1.3136     2.3222 C.3     
   7 C7             0.0593    -1.0936     2.2829 C.ar    
   8 C8             0.8056    -1.5440     3.3649 C.ar    
   9 C9             2.1754    -1.3828     3.3885 C.ar    
  10 C10            2.8137    -0.7685     2.3274 C.ar    
  11 C11            2.0746    -0.3164     1.2534 C.ar    
  12 C12            0.6950    -0.4748     1.2307 C.ar    
  13 C13            0.1125    -2.2149     4.5227 C.3     
  14 H14           -0.7634    -2.7526     4.1597 H       
  15 O15            1.0105    -3.1340     5.1477 O.3     
  16 C16           -0.3233    -1.1570     5.5386 C.3     
  17 F17           -1.1000    -0.1863     4.8970 F       
  18 F18           -1.0765    -1.7636     6.5495 F       
  19 C19           -2.0379    -0.9106    -1.0455 C.2     
  20 O20           -1.4326    -0.9476    -2.0957 O.2     
  21 C21           -3.4619    -1.3994    -0.9789 C.3     
  22 C22           -3.8928    -1.8783    -2.3413 C.ar    
  23 C23           -4.4687    -1.0099    -3.2240 C.ar    
  24 Cl24          -4.7019     0.6494    -2.7701 Cl      
  25 C25           -4.8696    -1.4426    -4.4833 C.ar    
  26 C26           -4.6964    -2.7428    -4.8640 C.ar    
  27 C27           -4.1118    -3.6511    -3.9845 C.ar    
  28 N28           -3.8076    -4.9855    -4.0616 N.pl3   
  29 H29           -3.9736    -5.5571    -4.8275 H       
  30 N30           -3.2192    -5.3908    -2.8592 N.2     
  31 C31           -3.1402    -4.3824    -2.0376 C.2     
  32 Cl32          -2.4811    -4.4200    -0.4320 Cl      
  33 C33           -3.6998    -3.2140    -2.7110 C.ar    
  34 H34            0.9822     1.9403     0.0326 H       
  35 H35           -0.5853     1.9610    -0.8104 H       
  36 H36           -0.5318     1.9302     0.9685 H       
  37 H37           -2.1198     0.6448     1.7401 H       
  38 H38           -3.1777    -0.6944     1.2214 H       
  39 H39           -1.7931    -1.1290     3.3332 H       
  40 H40           -1.6474    -2.3456     2.0469 H       
  41 H41            2.7476    -1.7354     4.2339 H       
  42 H42            3.8863    -0.6426     2.3391 H       
  43 H43            2.5728     0.1642     0.4243 H       
  44 H44            1.8144    -2.7239     5.4952 H       
  45 H45            0.5582    -0.6871     5.9746 H       
  46 H46           -3.5311    -2.2212    -0.2662 H       
  47 H47           -4.1111    -0.5846    -0.6581 H       
  48 H48           -5.3237    -0.7421    -5.1685 H       
  49 H49           -5.0125    -3.0661    -5.8448 H       
@<TRIPOS>BOND
   1    1    2 1
   2    1   34 1
   3    1   35 1
   4    1   36 1
   5    2    3 1
   6    2   12 1
   7    2    4 1
   8    4    5 1
   9    4   19 am
  10    5    6 1
  11    5   37 1
  12    5   38 1
  13    6    7 1
  14    6   39 1
  15    6   40 1
  16    7   12 ar
  17    7    8 ar
  18    8    9 ar
  19    8   13 1
  20    9   10 ar
  21    9   41 1
  22   10   11 ar
  23   10   42 1
  24   11   12 ar
  25   11   43 1
  26   13   14 1
  27   13   15 1
  28   13   16 1
  29   15   44 1
  30   16   17 1
  31   16   18 1
  32   16   45 1
  33   19   20 2
  34   19   21 1
  35   21   22 1
  36   21   46 1
  37   21   47 1
  38   22   33 ar
  39   22   23 ar
  40   23   24 1
  41   23   25 ar
  42   25   26 ar
  43   25   48 1
  44   26   27 ar
  45   26   49 1
  46   27   33 ar
  47   27   28 1
  48   28   29 1
  49   28   30 1
  50   30   31 2
  51   31   32 1
  52   31   33 1

#	End of record

