#	Name: ASD10160199
#	Creating user name:	WinNT
#	Creation time:	15. 06. 2019 21:25

#	Modifying user name:	WinNT
#	Modification time:	15. 06. 2019 21:25

#	Program:	/corina/corina34_cracker 3.40 0067  02.08.2006

@<TRIPOS>MOLECULE
ASD10160199
  35   36    0    0    0
SMALL
NO_CHARGES


@<TRIPOS>ATOM
   1 C1            -0.0335     1.4701     0.0134 C.2     
   2 C2            -0.0094    -0.0043     0.0045 C.ar    
   3 C3             1.2056    -0.6857    -0.1325 C.ar    
   4 C4             1.2229    -2.0661    -0.1398 C.ar    
   5 C5             0.0378    -2.7777    -0.0120 C.ar    
   6 C6            -1.1730    -2.1036     0.1240 C.ar    
   7 C7            -1.1994    -0.7258     0.1386 C.ar    
   8 O8             1.0032     2.0958    -0.0983 O.2     
   9 N9            -1.2051     2.1242     0.1398 N.am    
  10 S10           -1.2322     3.7799     0.1499 S.o2    
  11 O11           -2.6043     4.1069     0.3219 O.2     
  12 O12           -0.2651     4.1403     1.1267 O.2     
  13 C13           -0.6684     4.2519    -1.5084 C.3     
  14 O14            0.0593    -4.1351    -0.0202 O.3     
  15 C15           -0.1516    -4.7684    -1.2014 C.ar    
  16 C16           -0.0379    -6.1514    -1.2705 C.ar    
  17 C17           -0.2556    -6.7850    -2.4813 C.ar    
  18 C18           -0.5809    -6.0092    -3.5856 C.ar    
  19 C19           -0.6767    -4.6392    -3.4440 C.ar    
  20 N20           -0.4688    -4.0639    -2.2749 N.ar    
  21 C21           -0.1417    -8.2832    -2.5985 C.3     
  22 F22           -2.3231    -2.8015     0.2475 F       
  23 F23            2.3592     0.0062    -0.2577 F       
  24 H24            2.1597    -2.5931    -0.2454 H       
  25 H25           -2.1386    -0.2042     0.2490 H       
  26 H26           -2.0325     1.6251     0.2249 H       
  27 H27           -1.3471     3.8383    -2.2543 H       
  28 H28           -0.6551     5.3386    -1.5920 H       
  29 H29            0.3359     3.8623    -1.6753 H       
  30 H30            0.2172    -6.7241    -0.3912 H       
  31 H31           -0.7567    -6.4723    -4.5453 H       
  32 H32           -0.9295    -4.0311    -4.3000 H       
  33 H33           -1.1118    -8.7381    -2.3984 H       
  34 H34            0.1816    -8.5452    -3.6059 H       
  35 H35            0.5875    -8.6497    -1.8760 H       
@<TRIPOS>BOND
   1    1    2 1
   2    1    8 2
   3    1    9 am
   4    2    3 ar
   5    2    7 ar
   6    3    4 ar
   7    3   23 1
   8    4    5 ar
   9    4   24 1
  10    5    6 ar
  11    5   14 1
  12    6    7 ar
  13    6   22 1
  14    7   25 1
  15    9   10 am
  16    9   26 1
  17   10   11 2
  18   10   12 2
  19   10   13 1
  20   13   27 1
  21   13   28 1
  22   13   29 1
  23   14   15 1
  24   15   16 ar
  25   15   20 ar
  26   16   17 ar
  27   16   30 1
  28   17   18 ar
  29   17   21 1
  30   18   19 ar
  31   18   31 1
  32   19   20 ar
  33   19   32 1
  34   21   33 1
  35   21   34 1
  36   21   35 1

#	End of record

