#	Name: ASD10220028
#	Creating user name:	WinNT
#	Creation time:	15. 06. 2019 21:26

#	Modifying user name:	WinNT
#	Modification time:	15. 06. 2019 21:26

#	Program:	/corina/corina34_cracker 3.40 0067  02.08.2006

@<TRIPOS>MOLECULE
ASD10220028
  27   29    0    0    0
SMALL
NO_CHARGES


@<TRIPOS>ATOM
   1 C1            -0.0064     1.4612    -0.1692 C.2     
   2 C2             0.0235     0.0541    -0.3153 C.2     
   3 C3            -1.1141    -0.6734    -0.3708 C.2     
   4 C4            -2.4360    -0.0547    -0.2844 C.2     
   5 C5            -2.5497     1.3191    -0.1403 C.2     
   6 C6            -1.3371     2.1497    -0.0686 C.2     
   7 O7            -3.6802    -0.5689    -0.3165 O.3     
   8 C8            -4.6053     0.3861    -0.2020 C.2     
   9 C9            -3.9876     1.6034    -0.0866 C.2     
  10 O10           -1.4104     3.3540     0.0573 O.2     
  11 O11            1.0259     2.1002    -0.1211 O.2     
  12 C12           -4.6317     2.9201     0.0613 C.2     
  13 O13           -3.9538     3.9094     0.2633 O.2     
  14 C14           -6.1011     3.0387    -0.0359 C.ar    
  15 C15           -6.7701     4.0503     0.6567 C.ar    
  16 C16           -8.1429     4.1556     0.5618 C.ar    
  17 C17           -8.8568     3.2599    -0.2190 C.ar    
  18 C18           -8.1979     2.2547    -0.9079 C.ar    
  19 C19           -6.8263     2.1429    -0.8255 C.ar    
  20 Br20           1.6919    -0.8277    -0.4360 Br      
  21 Br21          -0.9923    -2.5503    -0.5670 Br      
  22 Cl22          -8.9771     5.4117     1.4220 Cl      
  23 Cl23         -10.5835     3.3979    -0.3334 Cl      
  24 H24           -5.6731     0.2247    -0.2013 H       
  25 H25           -6.2145     4.7483     1.2654 H       
  26 H26           -8.7596     1.5596    -1.5143 H       
  27 H27           -6.3142     1.3589    -1.3636 H       
@<TRIPOS>BOND
   1    1    2 1
   2    1   11 2
   3    1    6 1
   4    2    3 2
   5    2   20 1
   6    3    4 1
   7    3   21 1
   8    4    5 2
   9    4    7 1
  10    5    6 1
  11    5    9 1
  12    6   10 2
  13    7    8 1
  14    8    9 2
  15    8   24 1
  16    9   12 1
  17   12   13 2
  18   12   14 1
  19   14   15 ar
  20   14   19 ar
  21   15   16 ar
  22   15   25 1
  23   16   17 ar
  24   16   22 1
  25   17   18 ar
  26   17   23 1
  27   18   19 ar
  28   18   26 1
  29   19   27 1

#	End of record

