#	Name: ASD10610012
#	Creating user name:	WinNT
#	Creation time:	15. 06. 2019 21:27

#	Modifying user name:	WinNT
#	Modification time:	15. 06. 2019 21:27

#	Program:	/corina/corina34_cracker 3.40 0067  02.08.2006

@<TRIPOS>MOLECULE
ASD10610012
  54   57    0    0    0
SMALL
NO_CHARGES


@<TRIPOS>ATOM
   1 C1             0.0994     0.8961    -0.4424 C.2     
   2 C2             0.2910    -0.5598    -0.5715 C.ar    
   3 C3             0.3154    -1.3697     0.5667 C.ar    
   4 C4             0.4954    -2.7329     0.4385 C.ar    
   5 C5             0.6521    -3.3042    -0.8129 C.ar    
   6 C6             0.6307    -2.5192    -1.9486 C.ar    
   7 C7             0.4448    -1.1442    -1.8422 C.ar    
   8 O8             1.0621     1.6269    -0.3184 O.2     
   9 O9            -1.1432     1.4170    -0.4674 O.3     
  10 C10            0.5577     2.0129    -6.6482 C.3     
  11 C11            1.5683     1.1590    -7.4428 C.3     
  12 C12            2.3492     0.4409    -6.3219 C.3     
  13 C13            1.3912     0.3744    -5.1515 C.ar    
  14 C14            1.4208    -0.4139    -4.0159 C.ar    
  15 C15            0.4145    -0.2997    -3.0595 C.ar    
  16 C16           -0.6217     0.6131    -3.2537 C.ar    
  17 C17           -0.6424     1.3945    -4.3890 C.ar    
  18 C18            0.3607     1.2783    -5.3389 C.ar    
  19 N19            1.1037     3.3502    -6.4036 N.am    
  20 C20            0.2719     4.3906    -6.1986 C.2     
  21 O21           -0.9266     4.2389    -6.3053 O.2     
  22 O22           -0.0738     7.0725    -7.1407 O.3     
  23 C23            1.2725     6.5914    -7.0354 C.3     
  24 C24            0.8311     5.7425    -5.8369 C.3     
  25 C25           -0.2160     6.8579    -5.7305 C.3     
  26 N26            1.7928     5.7013    -4.7325 N.am    
  27 C27            1.3861     5.3463    -3.4976 C.2     
  28 O28            0.2483     4.9659    -3.3199 O.2     
  29 C29            2.3451     5.4219    -2.3376 C.3     
  30 F30            1.6976     5.0059    -1.1693 F       
  31 F31            3.4421     4.5895    -2.5845 F       
  32 F32            2.7859     6.7405    -2.1822 F       
  33 Cl33           0.1203    -0.6631     2.1403 Cl      
  34 C34           -1.2565     2.8585    -0.3349 C.3     
  35 H35            0.5143    -3.3570     1.3197 H       
  36 H36            0.7926    -4.3714    -0.9013 H       
  37 H37            0.7537    -2.9734    -2.9208 H       
  38 H38           -0.3863     2.0821    -7.1888 H       
  39 H39            1.0522     0.4390    -8.0779 H       
  40 H40            2.2313     1.7921    -8.0325 H       
  41 H41            2.6287    -0.5636    -6.6394 H       
  42 H42            3.2365     1.0138    -6.0523 H       
  43 H43            2.2255    -1.1194    -3.8703 H       
  44 H44           -1.4057     0.7073    -2.5170 H       
  45 H45           -1.4451     2.1012    -4.5397 H       
  46 H46            2.0640     3.4868    -6.3892 H       
  47 H47            1.5883     5.9979    -7.8933 H       
  48 H48            1.9906     7.3687    -6.7741 H       
  49 H49            0.1134     7.7048    -5.1285 H       
  50 H50           -1.2045     6.4979    -5.4451 H       
  51 H51            2.7223     5.9295    -4.8900 H       
  52 H52           -0.8271     3.1707     0.6170 H       
  53 H53           -0.7199     3.3416    -1.1515 H       
  54 H54           -2.3075     3.1452    -0.3710 H       
@<TRIPOS>BOND
   1    1    2 1
   2    1    8 2
   3    1    9 1
   4    2    3 ar
   5    2    7 ar
   6    3    4 ar
   7    3   33 1
   8    4    5 ar
   9    4   35 1
  10    5    6 ar
  11    5   36 1
  12    6    7 ar
  13    6   37 1
  14    7   15 1
  15    9   34 1
  16   10   11 1
  17   10   18 1
  18   10   19 1
  19   10   38 1
  20   11   12 1
  21   11   39 1
  22   11   40 1
  23   12   13 1
  24   12   41 1
  25   12   42 1
  26   13   14 ar
  27   13   18 ar
  28   14   15 ar
  29   14   43 1
  30   15   16 ar
  31   16   17 ar
  32   16   44 1
  33   17   18 ar
  34   17   45 1
  35   19   20 am
  36   19   46 1
  37   20   21 2
  38   20   24 1
  39   22   23 1
  40   22   25 1
  41   23   24 1
  42   23   47 1
  43   23   48 1
  44   24   25 1
  45   24   26 1
  46   25   49 1
  47   25   50 1
  48   26   27 am
  49   26   51 1
  50   27   28 2
  51   27   29 1
  52   29   30 1
  53   29   31 1
  54   29   32 1
  55   34   52 1
  56   34   53 1
  57   34   54 1

#	End of record

