#	Name: ASD13110026
#	Creating user name:	WinNT
#	Creation time:	15. 06. 2019 21:30

#	Modifying user name:	WinNT
#	Modification time:	15. 06. 2019 21:30

#	Program:	/corina/corina34_cracker 3.40 0067  02.08.2006

@<TRIPOS>MOLECULE
ASD13110026
  52   56    0    0    0
SMALL
NO_CHARGES


@<TRIPOS>ATOM
   1 C1            -1.2041     1.0659     0.2218 C.3     
   2 N2            -0.4068    -0.1548     0.0784 N.pl3   
   3 C3            -0.3119    -0.7450    -1.1490 C.2     
   4 C4             0.6654    -1.7231    -1.3963 C.2     
   5 C5             0.7426    -2.3102    -2.6820 C.2     
   6 O6             1.5791    -3.1587    -2.9359 O.2     
   7 N7            -0.1419    -1.8999    -3.6198 N.am    
   8 C8            -1.0653    -0.9547    -3.3195 C.2     
   9 N9            -1.1480    -0.4024    -2.1400 N.2     
  10 C10           -2.0354    -0.5249    -4.3897 C.3     
  11 C11           -3.2447    -1.4621    -4.3881 C.3     
  12 C12           -4.2296    -1.0256    -5.4746 C.3     
  13 C13           -4.6933     0.4058    -5.1974 C.3     
  14 C14           -3.4840     1.3430    -5.1990 C.3     
  15 C15           -2.4991     0.9066    -4.1125 C.3     
  16 C16           -0.1027    -2.4538    -4.9059 C.ar    
  17 C17            0.5904    -1.8076    -5.9208 C.ar    
  18 C18            0.6275    -2.3565    -7.1877 C.ar    
  19 C19           -0.0245    -3.5483    -7.4458 C.ar    
  20 C20           -0.7156    -4.1942    -6.4372 C.ar    
  21 C21           -0.7521    -3.6531    -5.1669 C.ar    
  22 C22            1.5756    -2.1141    -0.3171 C.2     
  23 O23            2.5705    -2.7847    -0.5307 O.2     
  24 C24            1.2273    -1.6542     1.0437 C.ar    
  25 C25            1.8701    -2.1739     2.1657 C.ar    
  26 C26            1.5175    -1.7258     3.4204 C.ar    
  27 C27            0.5288    -0.7641     3.5671 C.ar    
  28 C28           -0.1136    -0.2406     2.4657 C.ar    
  29 C29            0.2328    -0.6734     1.1878 C.ar    
  30 H30           -0.7335     1.7234     0.9527 H       
  31 H31           -1.2644     1.5756    -0.7398 H       
  32 H32           -2.2077     0.8068     0.5592 H       
  33 H33           -1.5451    -0.5660    -5.3623 H       
  34 H34           -2.9144    -2.4819    -4.5856 H       
  35 H35           -3.7350    -1.4209    -3.4155 H       
  36 H36           -3.7393    -1.0668    -6.4472 H       
  37 H37           -5.0912    -1.6933    -5.4735 H       
  38 H38           -5.3950     0.7167    -5.9714 H       
  39 H39           -5.1836     0.4470    -4.2248 H       
  40 H40           -2.9937     1.3019    -6.1716 H       
  41 H41           -3.8144     2.3628    -5.0015 H       
  42 H42           -2.9894     0.9477    -3.1399 H       
  43 H43           -1.6375     1.5743    -4.1136 H       
  44 H44            1.0996    -0.8766    -5.7199 H       
  45 H45            1.1662    -1.8542    -7.9776 H       
  46 H46            0.0057    -3.9753    -8.4373 H       
  47 H47           -1.2242    -5.1247    -6.6419 H       
  48 H48           -1.2885    -4.1601    -4.3786 H       
  49 H49            2.6395    -2.9234     2.0527 H       
  50 H50            2.0128    -2.1253     4.2930 H       
  51 H51            0.2590    -0.4219     4.5553 H       
  52 H52           -0.8818     0.5077     2.5933 H       
@<TRIPOS>BOND
   1    1    2 1
   2    1   30 1
   3    1   31 1
   4    1   32 1
   5    2   29 1
   6    2    3 1
   7    3    9 1
   8    3    4 2
   9    4    5 1
  10    4   22 1
  11    5    6 2
  12    5    7 am
  13    7    8 1
  14    7   16 1
  15    8    9 2
  16    8   10 1
  17   10   15 1
  18   10   11 1
  19   10   33 1
  20   11   12 1
  21   11   34 1
  22   11   35 1
  23   12   13 1
  24   12   36 1
  25   12   37 1
  26   13   14 1
  27   13   38 1
  28   13   39 1
  29   14   15 1
  30   14   40 1
  31   14   41 1
  32   15   42 1
  33   15   43 1
  34   16   21 ar
  35   16   17 ar
  36   17   18 ar
  37   17   44 1
  38   18   19 ar
  39   18   45 1
  40   19   20 ar
  41   19   46 1
  42   20   21 ar
  43   20   47 1
  44   21   48 1
  45   22   23 2
  46   22   24 1
  47   24   29 ar
  48   24   25 ar
  49   25   26 ar
  50   25   49 1
  51   26   27 ar
  52   26   50 1
  53   27   28 ar
  54   27   51 1
  55   28   29 ar
  56   28   52 1

#	End of record

