#	Name: ASD11000291
#	Creating user name:	WinNT
#	Creation time:	15. 06. 2019 21:29

#	Modifying user name:	WinNT
#	Modification time:	15. 06. 2019 21:29

#	Program:	/corina/corina34_cracker 3.40 0067  02.08.2006

@<TRIPOS>MOLECULE
ASD11000291
  50   52    0    0    0
SMALL
NO_CHARGES


@<TRIPOS>ATOM
   1 N1            -0.0108     1.3278    -0.1471 N.am    
   2 C2             0.0093    -0.0165    -0.1533 C.2     
   3 C3             1.2215    -0.7391    -0.1480 C.2     
   4 C4             2.4078    -0.0825    -0.1365 C.2     
   5 C5             2.3975     1.3815    -0.1297 C.ar    
   6 C6             3.5905     2.1120    -0.1181 C.ar    
   7 C7             3.5445     3.4914    -0.1124 C.ar    
   8 C8             2.3193     4.1544    -0.1181 C.ar    
   9 C9             1.1382     3.4463    -0.1294 C.ar    
  10 C10            1.1619     2.0554    -0.1353 C.ar    
  11 O11           -1.0460    -0.6265    -0.1633 O.2     
  12 O12            4.7007     4.2068    -0.1008 O.3     
  13 C13            4.5824     5.6308    -0.0954 C.3     
  14 C14            7.2956     8.1201    -0.0641 C.ar    
  15 N15            6.0995     7.5667    -0.0758 N.ar    
  16 C16            5.9568     6.2490    -0.0826 C.ar    
  17 C17            7.0829     5.4492    -0.0773 C.ar    
  18 C18            8.3347     6.0674    -0.0650 C.ar    
  19 N19            8.3962     7.3961    -0.0587 N.ar    
  20 N20            9.4950     5.3086    -0.0588 N.pl3   
  21 C21           10.7404     5.9345    -0.1724 C.ar    
  22 C22           11.8434     5.4148     0.4928 C.ar    
  23 C23           13.0729     6.0351     0.3783 C.ar    
  24 C24           13.2052     7.1740    -0.3991 C.ar    
  25 C25           12.1076     7.6931    -1.0619 C.ar    
  26 C26           10.8776     7.0734    -0.9552 C.ar    
  27 Cl27          14.7509     7.9514    -0.5413 Cl      
  28 Cl28          14.4523     5.3871     1.2096 Cl      
  29 H29           -0.8619     1.7930    -0.1552 H       
  30 H30            1.2042    -1.8190    -0.1529 H       
  31 H31            3.3401    -0.6277    -0.1320 H       
  32 H32            4.5413     1.5999    -0.1134 H       
  33 H33            2.2955     5.2341    -0.1132 H       
  34 H34            0.1940     3.9705    -0.1334 H       
  35 H35            4.0469     5.9543    -0.9880 H       
  36 H36            4.0338     5.9465     0.7919 H       
  37 H37            7.3758     9.1971    -0.0634 H       
  38 H38            6.9973     4.3726    -0.0823 H       
  39 H39            9.4429     4.3436     0.0243 H       
  40 H40           11.7402     4.5270     1.0992 H       
  41 H41           12.2133     8.5816    -1.6668 H       
  42 H42           10.0223     7.4767    -1.4770 H       
  43 C43           20.9224    16.1853     7.3564 C.2     
  44 C44           20.9428    14.6785     7.3481 C.3     
  45 O45           21.9604    16.8037     7.3498 O.2     
  46 O46           19.7509    16.8406     7.3655 O.3     
  47 F47           22.2679    14.2302     7.3330 F       
  48 F48           20.3006    14.1971     8.4940 F       
  49 F49           20.2788    14.2094     6.2096 F       
  50 H50           19.7884    17.8069     7.3706 H       
@<TRIPOS>BOND
   1    1    2 am
   2    1   10 1
   3    1   29 1
   4    2    3 1
   5    2   11 2
   6    3    4 2
   7    3   30 1
   8    4    5 1
   9    4   31 1
  10    5    6 ar
  11    5   10 ar
  12    6    7 ar
  13    6   32 1
  14    7    8 ar
  15    7   12 1
  16    8    9 ar
  17    8   33 1
  18    9   10 ar
  19    9   34 1
  20   12   13 1
  21   13   16 1
  22   13   35 1
  23   13   36 1
  24   14   15 ar
  25   14   19 ar
  26   14   37 1
  27   15   16 ar
  28   16   17 ar
  29   17   18 ar
  30   17   38 1
  31   18   19 ar
  32   18   20 1
  33   20   21 1
  34   20   39 1
  35   21   22 ar
  36   21   26 ar
  37   22   23 ar
  38   22   40 1
  39   23   24 ar
  40   23   28 1
  41   24   25 ar
  42   24   27 1
  43   25   26 ar
  44   25   41 1
  45   26   42 1
  46   43   44 1
  47   43   45 2
  48   43   46 1
  49   44   47 1
  50   44   48 1
  51   44   49 1
  52   46   50 1

#	End of record

