#	Name: ASD10950043
#	Creating user name:	WinNT
#	Creation time:	15. 06. 2019 21:28

#	Modifying user name:	WinNT
#	Modification time:	15. 06. 2019 21:28

#	Program:	/corina/corina34_cracker 3.40 0067  02.08.2006

@<TRIPOS>MOLECULE
ASD10950043
  62   66    0    0    0
SMALL
NO_CHARGES


@<TRIPOS>ATOM
   1 C1            -2.2515     1.3020     0.5127 C.3     
   2 O2            -1.8462    -0.0887     0.4120 O.3     
   3 C3            -1.0791    -0.4273    -0.6423 C.2     
   4 O4            -0.7576     0.4160    -1.4553 O.2     
   5 C5            -0.6289    -1.8243    -0.8097 C.ar    
   6 C6             0.1663    -2.1788    -1.9013 C.ar    
   7 C7             0.5831    -3.4851    -2.0516 C.ar    
   8 C8             0.2150    -4.4432    -1.1237 C.ar    
   9 C9            -0.5729    -4.0988    -0.0396 C.ar    
  10 C10           -0.9919    -2.7950     0.1260 C.ar    
  11 C11            0.6738    -5.8685    -1.2948 C.3     
  12 N12            1.2036    -6.3836    -0.0268 N.am    
  13 C13            2.3472    -5.8435     0.7126 C.3     
  14 C14            1.8610    -4.7773     1.6963 C.3     
  15 C15            3.0374    -4.2217     2.4568 C.2     
  16 C16            3.4726    -4.6255     3.6608 C.2     
  17 N17            4.5649    -3.8900     4.0326 N.pl3   
  18 C18            4.8667    -2.9717     3.0521 C.ar    
  19 C19            3.9267    -3.1428     2.0197 C.ar    
  20 C20            3.9889    -2.3379     0.8805 C.ar    
  21 C21            2.9837    -2.5173    -0.2279 C.3     
  22 C22            4.9640    -1.3869     0.7743 C.ar    
  23 C23            5.8944    -1.2144     1.7902 C.ar    
  24 C24            5.8535    -1.9997     2.9212 C.ar    
  25 C25            0.4529    -7.4392     0.3369 C.2     
  26 O26            0.6205    -8.1008     1.3420 O.2     
  27 C27           -0.6064    -7.6747    -0.6670 C.2     
  28 C28           -0.4985    -6.7522    -1.6518 C.2     
  29 C29           -1.3542    -6.6334    -2.8360 C.2     
  30 O30           -2.5264    -6.3320    -2.7117 O.2     
  31 C31           -0.7929    -6.8797    -4.1815 C.ar    
  32 C32           -1.5884    -6.7270    -5.3240 C.ar    
  33 C33           -1.0147    -6.9692    -6.5596 C.ar    
  34 C34            0.3133    -7.3508    -6.6266 C.ar    
  35 N35            1.0394    -7.4868    -5.5330 N.ar    
  36 C36            0.5412    -7.2628    -4.3352 C.ar    
  37 O37           -1.5353    -8.6565    -0.6110 O.3     
  38 H38           -1.3664     1.9345     0.5793 H       
  39 H39           -2.8290     1.5770    -0.3700 H       
  40 H40           -2.8636     1.4385     1.4042 H       
  41 H41            0.4540    -1.4320    -2.6265 H       
  42 H42            1.1979    -3.7608    -2.8957 H       
  43 H43           -0.8569    -4.8516     0.6808 H       
  44 H44           -1.6068    -2.5275     0.9726 H       
  45 H45            1.4372    -5.9254    -2.0707 H       
  46 H46            2.8377    -6.6475     1.2613 H       
  47 H47            3.0541    -5.3972     0.0131 H       
  48 H48            1.3706    -3.9733     1.1475 H       
  49 H49            1.1541    -5.2236     2.3957 H       
  50 H50            3.0264    -5.4136     4.2491 H       
  51 H51            5.0535    -3.9990     4.8634 H       
  52 H52            2.1223    -1.8750    -0.0446 H       
  53 H53            3.4410    -2.2487    -1.1802 H       
  54 H54            2.6606    -3.5578    -0.2606 H       
  55 H55            5.0117    -0.7646    -0.1071 H       
  56 H56            6.6596    -0.4586     1.6916 H       
  57 H57            6.5817    -1.8578     3.7060 H       
  58 H58           -2.6231    -6.4283    -5.2426 H       
  59 H59           -1.5978    -6.8619    -7.4623 H       
  60 H60            0.7633    -7.5408    -7.5898 H       
  61 H61            1.1671    -7.3845    -3.4636 H       
  62 H62           -1.4602    -9.2250     0.1676 H       
@<TRIPOS>BOND
   1    1    2 1
   2    1   38 1
   3    1   39 1
   4    1   40 1
   5    2    3 1
   6    3    4 2
   7    3    5 1
   8    5    6 ar
   9    5   10 ar
  10    6    7 ar
  11    6   41 1
  12    7    8 ar
  13    7   42 1
  14    8    9 ar
  15    8   11 1
  16    9   10 ar
  17    9   43 1
  18   10   44 1
  19   11   12 1
  20   11   28 1
  21   11   45 1
  22   12   13 1
  23   12   25 am
  24   13   14 1
  25   13   46 1
  26   13   47 1
  27   14   15 1
  28   14   48 1
  29   14   49 1
  30   15   16 2
  31   15   19 1
  32   16   17 1
  33   16   50 1
  34   17   18 1
  35   17   51 1
  36   18   19 ar
  37   18   24 ar
  38   19   20 ar
  39   20   21 1
  40   20   22 ar
  41   21   52 1
  42   21   53 1
  43   21   54 1
  44   22   23 ar
  45   22   55 1
  46   23   24 ar
  47   23   56 1
  48   24   57 1
  49   25   26 2
  50   25   27 1
  51   27   28 2
  52   27   37 1
  53   28   29 1
  54   29   30 2
  55   29   31 1
  56   31   32 ar
  57   31   36 ar
  58   32   33 ar
  59   32   58 1
  60   33   34 ar
  61   33   59 1
  62   34   35 ar
  63   34   60 1
  64   35   36 ar
  65   36   61 1
  66   37   62 1

#	End of record

