#	Name: ASD10160313
#	Creating user name:	WinNT
#	Creation time:	15. 06. 2019 21:25

#	Modifying user name:	WinNT
#	Modification time:	15. 06. 2019 21:25

#	Program:	/corina/corina34_cracker 3.40 0067  02.08.2006

@<TRIPOS>MOLECULE
ASD10160313
  39   40    0    0    0
SMALL
NO_CHARGES


@<TRIPOS>ATOM
   1 C1             4.7420    -7.0628    -0.9526 C.2     
   2 C2             3.5081    -6.2909    -0.7074 C.ar    
   3 C3             2.8493    -5.6671    -1.7703 C.ar    
   4 C4             1.6985    -4.9478    -1.5375 C.ar    
   5 C5             1.1921    -4.8413    -0.2472 C.ar    
   6 C6             1.8449    -5.4601     0.8129 C.ar    
   7 C7             2.9925    -6.1867     0.5872 C.ar    
   8 O8             5.1864    -7.1566    -2.0804 O.2     
   9 N9             5.3790    -7.6592     0.0746 N.am    
  10 O10            0.0580    -4.1312    -0.0217 O.3     
  11 C11           -2.3239    -4.0836    -0.0053 C.ar    
  12 C12           -1.1322    -4.7814    -0.1190 C.ar    
  13 C13           -1.1685    -6.1563    -0.3344 C.ar    
  14 C14           -2.4030    -6.7766    -0.4273 C.ar    
  15 C15           -3.5562    -6.0113    -0.3032 C.ar    
  16 N16           -3.4830    -4.7071    -0.0994 N.ar    
  17 O17           -4.7718    -6.6095    -0.3927 O.3     
  18 C18           -5.9198    -5.7695    -0.2569 C.3     
  19 C19           -7.1885    -6.6151    -0.3849 C.3     
  20 C20           -7.2660    -7.5987     0.7845 C.3     
  21 C21           -8.4150    -5.7008    -0.3645 C.3     
  22 Cl22          -2.5087    -8.4885    -0.6959 Cl      
  23 H23            3.2424    -5.7487    -2.7728 H       
  24 H24            1.1888    -4.4654    -2.3584 H       
  25 H25            1.4487    -5.3749     1.8140 H       
  26 H26            3.4964    -6.6712     1.4105 H       
  27 H27            5.0266    -7.5810     0.9749 H       
  28 H28            6.1899    -8.1665    -0.0865 H       
  29 H29           -2.3038    -3.0175     0.1663 H       
  30 H30           -0.2554    -6.7256    -0.4273 H       
  31 H31           -5.9026    -5.2858     0.7198 H       
  32 H32           -5.9089    -5.0101    -1.0387 H       
  33 H33           -7.1632    -7.1682    -1.3238 H       
  34 H34           -8.1698    -8.2011     0.6932 H       
  35 H35           -6.3922    -8.2501     0.7699 H       
  36 H36           -7.2913    -7.0456     1.7234 H       
  37 H37           -8.3598    -5.0001    -1.1976 H       
  38 H38           -9.3188    -6.3032    -0.4557 H       
  39 H39           -8.4403    -5.1477     0.5744 H       
@<TRIPOS>BOND
   1    1    2 1
   2    1    8 2
   3    1    9 am
   4    2    3 ar
   5    2    7 ar
   6    3    4 ar
   7    3   23 1
   8    4    5 ar
   9    4   24 1
  10    5    6 ar
  11    5   10 1
  12    6    7 ar
  13    6   25 1
  14    7   26 1
  15    9   27 1
  16    9   28 1
  17   10   12 1
  18   11   12 ar
  19   11   16 ar
  20   11   29 1
  21   12   13 ar
  22   13   14 ar
  23   13   30 1
  24   14   15 ar
  25   14   22 1
  26   15   16 ar
  27   15   17 1
  28   17   18 1
  29   18   19 1
  30   18   31 1
  31   18   32 1
  32   19   20 1
  33   19   21 1
  34   19   33 1
  35   20   34 1
  36   20   35 1
  37   20   36 1
  38   21   37 1
  39   21   38 1
  40   21   39 1

#	End of record

