#	Name: ASD11000201
#	Creating user name:	WinNT
#	Creation time:	15. 06. 2019 21:28

#	Modifying user name:	WinNT
#	Modification time:	15. 06. 2019 21:28

#	Program:	/corina/corina34_cracker 3.40 0067  02.08.2006

@<TRIPOS>MOLECULE
ASD11000201
  42   45    0    0    0
SMALL
NO_CHARGES


@<TRIPOS>ATOM
   1 C1            -0.0199     1.3901    -0.0285 C.ar    
   2 C2             0.0009    -0.0026    -0.0161 C.ar    
   3 N3             1.1619    -0.6452    -0.0288 N.ar    
   4 C4             2.2934     0.0382    -0.0532 C.ar    
   5 C5             2.2686     1.4201    -0.0650 C.ar    
   6 N6             1.1138     2.0646    -0.0529 N.ar    
   7 N7            -1.1916    -0.7177     0.0100 N.pl3   
   8 C8            -1.1738    -2.1112    -0.1031 C.ar    
   9 C9            -2.1105    -2.8767     0.5794 C.ar    
  10 C10           -0.2229    -2.7322    -0.9029 C.ar    
  11 C11           -0.2076    -4.1087    -1.0128 C.ar    
  12 C12           -1.1387    -4.8693    -0.3275 C.ar    
  13 C13           -2.0905    -4.2529     0.4658 C.ar    
  14 Cl14          -1.1173    -6.5994    -0.4689 Cl      
  15 C15            3.6123    -0.6907    -0.0676 C.3     
  16 O16            4.6806     0.2581    -0.0934 O.3     
  17 C17            5.9464    -0.2379    -0.1091 C.ar    
  18 C18            6.1510    -1.6154    -0.0997 C.ar    
  19 C19            7.4264    -2.1359    -0.1158 C.ar    
  20 C20            8.5245    -1.2829    -0.1417 C.ar    
  21 C21            8.3223     0.1102    -0.1512 C.ar    
  22 C22            7.0226     0.6264    -0.1400 C.ar    
  23 N23            9.8102    -1.7847    -0.1571 N.am    
  24 C24           10.8734    -0.9623    -0.1811 C.2     
  25 C25           10.7242     0.4410    -0.1912 C.2     
  26 C26            9.4874     0.9965    -0.1775 C.2     
  27 O27           11.9944    -1.4407    -0.1942 O.2     
  28 H28           -0.9627     1.9169    -0.0228 H       
  29 H29            3.1948     1.9752    -0.0846 H       
  30 H30           -2.0357    -0.2497     0.1068 H       
  31 H31           -2.8535    -2.3962     1.1986 H       
  32 H32            0.5036    -2.1391    -1.4385 H       
  33 H33            0.5315    -4.5921    -1.6344 H       
  34 H34           -2.8158    -4.8489     0.9998 H       
  35 H35            3.6961    -1.3079     0.8269 H       
  36 H36            3.6677    -1.3243    -0.9528 H       
  37 H37            5.3016    -2.2821    -0.0793 H       
  38 H38            7.5734    -3.2058    -0.1080 H       
  39 H39            6.8619     1.6944    -0.1476 H       
  40 H40            9.9486    -2.7448    -0.1501 H       
  41 H41           11.5985     1.0749    -0.2102 H       
  42 H42            9.3643     2.0695    -0.1858 H       
@<TRIPOS>BOND
   1    1    2 ar
   2    1    6 ar
   3    1   28 1
   4    2    3 ar
   5    2    7 1
   6    3    4 ar
   7    4    5 ar
   8    4   15 1
   9    5    6 ar
  10    5   29 1
  11    7    8 1
  12    7   30 1
  13    8    9 ar
  14    8   10 ar
  15    9   13 ar
  16    9   31 1
  17   10   11 ar
  18   10   32 1
  19   11   12 ar
  20   11   33 1
  21   12   13 ar
  22   12   14 1
  23   13   34 1
  24   15   16 1
  25   15   35 1
  26   15   36 1
  27   16   17 1
  28   17   18 ar
  29   17   22 ar
  30   18   19 ar
  31   18   37 1
  32   19   20 ar
  33   19   38 1
  34   20   21 ar
  35   20   23 1
  36   21   22 ar
  37   21   26 1
  38   22   39 1
  39   23   24 am
  40   23   40 1
  41   24   25 1
  42   24   27 2
  43   25   26 2
  44   25   41 1
  45   26   42 1

#	End of record

