#	Name: ASD10830001
#	Creating user name:	WinNT
#	Creation time:	15. 06. 2019 21:28

#	Modifying user name:	WinNT
#	Modification time:	15. 06. 2019 21:28

#	Program:	/corina/corina34_cracker 3.40 0067  02.08.2006

@<TRIPOS>MOLECULE
ASD10830001
  48   52    0    0    0
SMALL
NO_CHARGES


@<TRIPOS>ATOM
   1 C1            -0.0183     1.4992     0.0103 C.3     
   2 C2             0.0021    -0.0041     0.0020 C.3     
   3 C3             0.4243    -0.7513    -1.2185 C.3     
   4 C4            -0.6522    -0.9236    -2.2794 C.3     
   5 C5            -1.9991    -1.2919    -1.6468 C.3     
   6 C6            -1.8293    -2.4243    -0.6493 C.2     
   7 C7            -1.5845    -1.7949     0.7199 C.3     
   8 C8            -1.4560    -0.3106     0.4327 C.3     
   9 C9            -1.7507     0.6790     1.5510 C.3     
  10 C10           -0.7084     1.7943     1.3953 C.3     
  11 C11           -1.2778     3.1839     1.0628 C.3     
  12 C12           -0.0349     4.1142     1.1746 C.3     
  13 C13            0.9437     3.7770     0.0482 C.3     
  14 C14            1.2745     2.2768     0.0021 C.3     
  15 O15           -0.9788     2.0310    -0.9462 O.3     
  16 C16           -1.5682     3.1215    -0.4333 C.2     
  17 C17           -2.3870    -0.0632    -0.7744 C.3     
  18 C18           -1.6015     0.0094     2.8928 C.2     
  19 O19           -1.2876    -1.1557     2.9550 O.2     
  20 O20           -1.8174     0.7073     4.0189 O.3     
  21 O21           -2.2232     3.9239    -1.0554 O.2     
  22 C22           -1.8835    -3.7060    -0.9148 C.2     
  23 C23           -2.4738     3.6001     1.9215 C.3     
  24 O24            0.6019     3.9115     2.4377 O.3     
  25 H25            0.6421    -0.3252     0.8238 H       
  26 H26           -2.7519    -1.5234    -2.4004 H       
  27 H27           -0.0001     1.8152     2.2235 H       
  28 H28            1.2670    -0.2257    -1.6677 H       
  29 H29            0.7663    -1.7403    -0.9136 H       
  30 H30           -0.7606     0.0089    -2.8332 H       
  31 H31           -0.3525    -1.7140    -2.9675 H       
  32 H32           -2.4293    -1.9831     1.3824 H       
  33 H33           -0.6631    -2.1797     1.1569 H       
  34 H34           -2.7564     1.0845     1.4407 H       
  35 H35           -0.3487     5.1543     1.0858 H       
  36 H36            0.5032     4.0721    -0.9041 H       
  37 H37            1.8656     4.3386     0.1996 H       
  38 H38            1.8699     2.0064     0.8742 H       
  39 H39            1.8309     2.0525    -0.9080 H       
  40 H40           -2.1472     0.8738    -1.2769 H       
  41 H41           -3.4364    -0.0978    -0.4817 H       
  42 H42           -1.7095     0.2348     4.8557 H       
  43 H43           -2.0639    -4.0409    -1.9256 H       
  44 H44           -1.7477    -4.4277    -0.1230 H       
  45 H45           -2.1782     3.6208     2.9705 H       
  46 H46           -2.8105     4.5917     1.6192 H       
  47 H47           -3.2846     2.8842     1.7866 H       
  48 H48            1.3860     4.4605     2.5756 H       
@<TRIPOS>BOND
   1    1    2 1
   2    1   14 1
   3    1   15 1
   4    1   10 1
   5    2    3 1
   6    2    8 1
   7    2   25 1
   8    3    4 1
   9    3   28 1
  10    3   29 1
  11    4    5 1
  12    4   30 1
  13    4   31 1
  14    5    6 1
  15    5   17 1
  16    5   26 1
  17    6    7 1
  18    6   22 2
  19    7    8 1
  20    7   32 1
  21    7   33 1
  22    8   17 1
  23    8    9 1
  24    9   10 1
  25    9   18 1
  26    9   34 1
  27   10   11 1
  28   10   27 1
  29   11   16 1
  30   11   23 1
  31   11   12 1
  32   12   13 1
  33   12   24 1
  34   12   35 1
  35   13   14 1
  36   13   36 1
  37   13   37 1
  38   14   38 1
  39   14   39 1
  40   15   16 1
  41   16   21 2
  42   17   40 1
  43   17   41 1
  44   18   19 2
  45   18   20 1
  46   20   42 1
  47   22   43 1
  48   22   44 1
  49   23   45 1
  50   23   46 1
  51   23   47 1
  52   24   48 1

#	End of record

