#	Name: ASD10160111
#	Creating user name:	WinNT
#	Creation time:	15. 06. 2019 21:25

#	Modifying user name:	WinNT
#	Modification time:	15. 06. 2019 21:25

#	Program:	/corina/corina34_cracker 3.40 0067  02.08.2006

@<TRIPOS>MOLECULE
ASD10160111
  42   43    0    0    0
SMALL
NO_CHARGES


@<TRIPOS>ATOM
   1 C1             0.0722     1.0315    -1.4411 C.ar    
   2 C2             0.0493    -0.1964    -0.7723 C.ar    
   3 C3             1.2889     1.6964    -1.6328 C.ar    
   4 C4             2.4597     1.1371    -1.1611 C.ar    
   5 C5             2.4306    -0.0824    -0.4983 C.ar    
   6 C6             1.2220    -0.7462    -0.3054 C.ar    
   7 C7            -1.1806     1.6210    -1.9480 C.2     
   8 N8            -2.3503     0.9763    -1.7671 N.am    
   9 O9            -1.1585     2.6889    -2.5293 O.2     
  10 S10           -3.7574     1.6384    -2.3364 S.o2    
  11 O11           -4.7628     0.7125    -1.9478 O.2     
  12 O12           -3.7495     2.9664    -1.8308 O.2     
  13 O13            3.5837    -0.6293    -0.0369 O.3     
  14 C14            4.7257     0.1002    -0.1489 C.ar    
  15 Cl15           1.1939    -2.2707     0.5244 Cl      
  16 C16            5.1010     0.9817     0.8617 C.ar    
  17 C17            5.5330    -0.0285    -1.2673 C.ar    
  18 N18            6.6430     0.6759    -1.3836 N.ar    
  19 C19            7.0279     1.5259    -0.4475 C.ar    
  20 C20            6.2715     1.7039     0.7051 C.ar    
  21 Cl21           6.7845     2.8230     1.9292 Cl      
  22 O22            8.1779     2.2291    -0.6110 O.3     
  23 F23            1.3176     2.8827    -2.2786 F       
  24 C24            8.9140     1.9982    -1.8138 C.3     
  25 C25            9.6677     3.2715    -2.2030 C.3     
  26 F26           10.5504     3.6232    -1.1762 F       
  27 F27           10.3884     3.0454    -3.3805 F       
  28 F28            8.7533     4.3103    -2.4080 F       
  29 C29           -3.5585     1.6426    -4.1395 C.3     
  30 C30            9.9140     0.8621    -1.5896 C.3     
  31 H31           -0.8873    -0.7126    -0.6218 H       
  32 H32            3.3994     1.6487    -1.3082 H       
  33 H33           -2.3679     0.1245    -1.3034 H       
  34 H34            4.4930     1.0993     1.7465 H       
  35 H35            5.2510    -0.7137    -2.0530 H       
  36 H36            8.2263     1.7242    -2.6138 H       
  37 H37           -3.4178     0.6208    -4.4919 H       
  38 H38           -4.4494     2.0671    -4.6023 H       
  39 H39           -2.6888     2.2424    -4.4077 H       
  40 H40           10.6018     1.1361    -0.7896 H       
  41 H41            9.3771    -0.0451    -1.3123 H       
  42 H42           10.4755     0.6859    -2.5070 H       
@<TRIPOS>BOND
   1    1    2 ar
   2    1    3 ar
   3    1    7 1
   4    2    6 ar
   5    2   31 1
   6    3    4 ar
   7    3   23 1
   8    4    5 ar
   9    4   32 1
  10    5    6 ar
  11    5   13 1
  12    6   15 1
  13    7    8 am
  14    7    9 2
  15    8   10 am
  16    8   33 1
  17   10   11 2
  18   10   12 2
  19   10   29 1
  20   13   14 1
  21   14   16 ar
  22   14   17 ar
  23   16   20 ar
  24   16   34 1
  25   17   18 ar
  26   17   35 1
  27   18   19 ar
  28   19   20 ar
  29   19   22 1
  30   20   21 1
  31   22   24 1
  32   24   25 1
  33   24   30 1
  34   24   36 1
  35   25   26 1
  36   25   27 1
  37   25   28 1
  38   29   37 1
  39   29   38 1
  40   29   39 1
  41   30   40 1
  42   30   41 1
  43   30   42 1

#	End of record

