#	Name: ASD14170023
#	Creating user name:	WinNT
#	Creation time:	15. 06. 2019 21:31

#	Modifying user name:	WinNT
#	Modification time:	15. 06. 2019 21:31

#	Program:	/corina/corina34_cracker 3.40 0067  02.08.2006

@<TRIPOS>MOLECULE
ASD14170023
  39   41    0    0    0
SMALL
NO_CHARGES


@<TRIPOS>ATOM
   1 C1             0.2756     1.8678    -0.0237 C.2     
   2 C2             0.3887     0.4349    -0.3038 C.2     
   3 C3             1.5865     0.0209     0.2447 C.2     
   4 N4             2.1733     1.1012     0.8188 N.pl3   
   5 N5             1.3557     2.2216     0.6439 N.2     
   6 N6             2.0997    -1.2726     0.2144 N.am    
   7 C7             3.3009    -1.5081    -0.3497 C.2     
   8 N8             3.8207    -2.7514    -0.3341 N.am    
   9 O9             3.9156    -0.5987    -0.8728 O.2     
  10 C10            5.1114    -2.9771    -0.8284 C.ar    
  11 C11            6.8625    -2.4494    -2.3794 C.ar    
  12 C12            7.6624    -3.4230    -1.8052 C.ar    
  13 C13            7.1856    -4.1778    -0.7467 C.ar    
  14 C14            5.9129    -3.9568    -0.2578 C.ar    
  15 C15            5.5892    -2.2253    -1.8934 C.ar    
  16 F16            8.9074    -3.6410    -2.2824 F       
  17 C17            3.4627     1.0945     1.5142 C.3     
  18 C18           -0.5905    -0.4060    -1.0320 C.ar    
  19 C19           -1.7577    -0.9577    -3.0565 C.ar    
  20 C20           -2.4211    -1.9769    -2.3928 C.ar    
  21 C21           -2.1757    -2.2094    -1.0492 C.ar    
  22 C22           -1.2646    -1.4295    -0.3670 C.ar    
  23 C23           -0.8448    -0.1724    -2.3830 C.ar    
  24 F24           -3.3141    -2.7432    -3.0566 F       
  25 C25           -0.8041     2.7259    -0.4088 C.1     
  26 N26           -1.6607     3.4067    -0.7143 N.1     
  27 H27            1.5928    -2.0046     0.5992 H       
  28 H28            3.3008    -3.4900     0.0196 H       
  29 H29            7.2363    -1.8615    -3.2047 H       
  30 H30            7.8109    -4.9369    -0.3005 H       
  31 H31            5.5416    -4.5455     0.5681 H       
  32 H32            4.9656    -1.4661    -2.3417 H       
  33 H33            4.2672     1.2169     0.7890 H       
  34 H34            3.4927     1.9142     2.2320 H       
  35 H35            3.5876     0.1473     2.0389 H       
  36 H36           -1.9523    -0.7802    -4.1039 H       
  37 H37           -2.6953    -3.0050    -0.5360 H       
  38 H38           -1.0737    -1.6117     0.6802 H       
  39 H39           -0.3284     0.6220    -2.9012 H       
@<TRIPOS>BOND
   1    1    2 1
   2    1    5 2
   3    1   25 1
   4    2    3 2
   5    2   18 1
   6    3    4 1
   7    3    6 1
   8    4    5 1
   9    4   17 1
  10    6    7 am
  11    6   27 1
  12    7    8 am
  13    7    9 2
  14    8   10 1
  15    8   28 1
  16   10   15 ar
  17   10   14 ar
  18   11   12 ar
  19   11   15 ar
  20   11   29 1
  21   12   13 ar
  22   12   16 1
  23   13   14 ar
  24   13   30 1
  25   14   31 1
  26   15   32 1
  27   17   33 1
  28   17   34 1
  29   17   35 1
  30   18   23 ar
  31   18   22 ar
  32   19   20 ar
  33   19   23 ar
  34   19   36 1
  35   20   21 ar
  36   20   24 1
  37   21   22 ar
  38   21   37 1
  39   22   38 1
  40   23   39 1
  41   25   26 3

#	End of record

