#	Name: ASD10410168
#	Creating user name:	WinNT
#	Creation time:	15. 06. 2019 21:27

#	Modifying user name:	WinNT
#	Modification time:	15. 06. 2019 21:27

#	Program:	/corina/corina34_cracker 3.40 0067  02.08.2006

@<TRIPOS>MOLECULE
ASD10410168
  80   87    0    0    0
SMALL
NO_CHARGES


@<TRIPOS>ATOM
   1 C1            -0.0184     1.3942    -0.0800 C.ar    
   2 C2            -0.0058     0.0095     0.0248 C.ar    
   3 C3             1.2025    -0.6691     0.1148 C.ar    
   4 C4             2.3914     0.0330     0.0997 C.ar    
   5 C5             2.3788     1.4177    -0.0055 C.ar    
   6 C6             1.1705     2.0963    -0.0950 C.ar    
   7 N7             3.5845     2.1298    -0.0204 N.pl3   
   8 C8             3.6712     3.3400    -0.7078 C.2     
   9 N9             4.7096     4.1408    -0.7091 N.2     
  10 N10            2.7100     3.8663    -1.4759 N.2     
  11 C11            3.1186     5.0133    -1.9746 C.2     
  12 N12            4.3808     5.2381    -1.5214 N.pl3   
  13 C13            5.1871     6.3379    -1.8061 C.ar    
  14 N14            2.3954     5.8401    -2.8124 N.pl3   
  15 N15           -1.2109    -0.7022     0.0401 N.3     
  16 C16           -0.9680    -2.1469     0.1567 C.3     
  17 C17           -2.3077    -2.8809     0.2500 C.3     
  18 N18           -3.1125    -2.5796    -0.9422 N.3     
  19 C19           -3.3554    -1.1349    -1.0588 C.3     
  20 C20           -2.0156    -0.4009    -1.1521 C.3     
  21 N21            4.7468     7.3079    -2.5938 N.ar    
  22 C22            5.5104     8.3598    -2.8697 C.ar    
  23 N23            6.7276     8.4929    -2.3824 N.ar    
  24 C24            7.2580     7.5540    -1.5713 C.ar    
  25 C25            6.4765     6.4372    -1.2575 C.ar    
  26 C26           -4.3773    -3.3265    -0.9261 C.3     
  27 C27           -5.2740    -2.9029    -2.1293 C.3     
  28 C28           -4.1156    -4.8342    -1.1455 C.3     
  29 C29           -4.8789    -5.1795    -2.4605 C.3     
  30 C30           -6.6480    -3.5860    -1.8517 C.3     
  31 C31           -6.3863    -5.0936    -2.0710 C.3     
  32 C32           -4.7080    -3.8374    -3.2561 C.3     
  33 C33            8.5571     7.5003    -0.9342 C.2     
  34 C34            8.7685     6.4265    -0.1913 C.2     
  35 S35            7.3740     5.3629    -0.1963 S.3     
  36 C36            9.5896     8.5846    -1.1049 C.3     
  37 C37            4.9745     9.4205    -3.7571 C.ar    
  38 C38            3.6905     9.3063    -4.2875 C.ar    
  39 C39            5.7505    10.5378    -4.0592 C.ar    
  40 C40            5.2465    11.5221    -4.8852 C.ar    
  41 C41            3.9738    11.4010    -5.4129 C.ar    
  42 C42            3.1969    10.2964    -5.1121 C.ar    
  43 C43            1.8110    10.1716    -5.6909 C.3     
  44 H44           -0.9579     1.9216    -0.1541 H       
  45 H45            1.2123    -1.7459     0.1969 H       
  46 H46            3.3311    -0.4947     0.1700 H       
  47 H47            1.1606     3.1731    -0.1772 H       
  48 H48            4.3595     1.7812     0.4474 H       
  49 H49            1.4980     5.5909    -3.0835 H       
  50 H50            2.7850     6.6699    -3.1295 H       
  51 H51           -0.4224    -2.4958    -0.7201 H       
  52 H52           -0.3811    -2.3457     1.0534 H       
  53 H53           -2.1307    -3.9549     0.3073 H       
  54 H54           -2.8414    -2.5518     1.1416 H       
  55 H55           -3.9422    -0.9361    -1.9555 H       
  56 H56           -3.9009    -0.7860    -0.1820 H       
  57 H57           -2.1926     0.6731    -1.2095 H       
  58 H58           -1.4820    -0.7300    -2.0437 H       
  59 H59           -4.9022    -3.1632     0.0151 H       
  60 H60           -5.3078    -1.8352    -2.3457 H       
  61 H61           -3.0485    -5.0211    -1.2652 H       
  62 H62           -4.5127    -5.4139    -0.3122 H       
  63 H63           -4.5686    -6.0943    -2.9654 H       
  64 H64           -6.9639    -3.4006    -0.8251 H       
  65 H65           -7.4004    -3.2249    -2.5528 H       
  66 H66           -7.0101    -5.4738    -2.8800 H       
  67 H67           -6.5736    -5.6494    -1.1522 H       
  68 H68           -5.3243    -3.8136    -4.1549 H       
  69 H69           -3.6623    -3.6237    -3.4774 H       
  70 H70            9.6817     6.2311     0.3512 H       
  71 H71            9.4577     9.3376    -0.3279 H       
  72 H72           10.5871     8.1522    -1.0261 H       
  73 H73            9.4710     9.0484    -2.0842 H       
  74 H74            3.0833     8.4443    -4.0537 H       
  75 H75            6.7444    10.6336    -3.6474 H       
  76 H76            5.8470    12.3886    -5.1197 H       
  77 H77            3.5834    12.1735    -6.0587 H       
  78 H78            1.8619     9.6487    -6.6459 H       
  79 H79            1.1790     9.6104    -5.0026 H       
  80 H80            1.3899    11.1654    -5.8428 H       
@<TRIPOS>BOND
   1    1    2 ar
   2    1    6 ar
   3    1   44 1
   4    2    3 ar
   5    2   15 1
   6    3    4 ar
   7    3   45 1
   8    4    5 ar
   9    4   46 1
  10    5    6 ar
  11    5    7 1
  12    6   47 1
  13    7    8 1
  14    7   48 1
  15    8    9 2
  16    8   10 1
  17    9   12 1
  18   10   11 2
  19   11   12 1
  20   11   14 1
  21   12   13 1
  22   13   21 ar
  23   13   25 ar
  24   14   49 1
  25   14   50 1
  26   15   16 1
  27   15   20 1
  28   16   17 1
  29   16   51 1
  30   16   52 1
  31   17   18 1
  32   17   53 1
  33   17   54 1
  34   18   19 1
  35   18   26 1
  36   19   20 1
  37   19   55 1
  38   19   56 1
  39   20   57 1
  40   20   58 1
  41   21   22 ar
  42   22   23 ar
  43   22   37 1
  44   23   24 ar
  45   24   25 ar
  46   24   33 1
  47   25   35 1
  48   26   27 1
  49   26   28 1
  50   26   59 1
  51   27   30 1
  52   27   32 1
  53   27   60 1
  54   28   29 1
  55   28   61 1
  56   28   62 1
  57   29   31 1
  58   29   32 1
  59   29   63 1
  60   30   31 1
  61   30   64 1
  62   30   65 1
  63   31   66 1
  64   31   67 1
  65   32   68 1
  66   32   69 1
  67   33   34 2
  68   33   36 1
  69   34   35 1
  70   34   70 1
  71   36   71 1
  72   36   72 1
  73   36   73 1
  74   37   38 ar
  75   37   39 ar
  76   38   42 ar
  77   38   74 1
  78   39   40 ar
  79   39   75 1
  80   40   41 ar
  81   40   76 1
  82   41   42 ar
  83   41   77 1
  84   42   43 1
  85   43   78 1
  86   43   79 1
  87   43   80 1

#	End of record

