#	Name: ASD10160121
#	Creating user name:	WinNT
#	Creation time:	15. 06. 2019 21:25

#	Modifying user name:	WinNT
#	Modification time:	15. 06. 2019 21:25

#	Program:	/corina/corina34_cracker 3.40 0067  02.08.2006

@<TRIPOS>MOLECULE
ASD10160121
  43   45    0    0    0
SMALL
NO_CHARGES


@<TRIPOS>ATOM
   1 C1            -0.4008     1.1089    -1.9501 C.2     
   2 C2            -0.2800    -0.2703    -1.4427 C.ar    
   3 C3             0.9040    -0.9905    -1.6416 C.ar    
   4 C4             1.0117    -2.2812    -1.1646 C.ar    
   5 C5            -0.0521    -2.8645    -0.4890 C.ar    
   6 C6            -1.2305    -2.1514    -0.2894 C.ar    
   7 C7            -1.3452    -0.8607    -0.7564 C.ar    
   8 O8             0.5288     1.6224    -2.5425 O.2     
   9 N9            -1.5435     1.7983    -1.7623 N.am    
  10 S10           -1.6793     3.3473    -2.3322 S.o2    
  11 O11           -2.9817     3.7538    -1.9353 O.2     
  12 O12           -0.5227     4.0063    -1.8349 O.2     
  13 C13           -1.5880     3.1756    -4.1357 C.3     
  14 F14            1.9388    -0.4235    -2.2997 F       
  15 O15            0.0574    -4.1342    -0.0222 O.3     
  16 C16            2.2173    -4.6343     0.8553 C.ar    
  17 C17            1.2595    -4.7564    -0.1420 C.ar    
  18 C18            1.5465    -5.5243    -1.2649 C.ar    
  19 C19            2.7898    -6.1418    -1.3417 C.ar    
  20 C20            3.6936    -5.9713    -0.3029 C.ar    
  21 N21            3.3853    -5.2351     0.7465 N.ar    
  22 O22            3.1153    -6.9027    -2.4197 O.3     
  23 C23            2.1293    -7.0289    -3.4463 C.3     
  24 F24            1.8241    -5.7631    -3.9580 F       
  25 F25            2.6258    -7.8395    -4.4727 F       
  26 F26            0.9726    -7.6077    -2.9132 F       
  27 C27            5.0442    -6.6361    -0.3747 C.3     
  28 C28            6.2787    -5.7329    -0.3431 C.3     
  29 C29            5.9236    -6.5861     0.8763 C.3     
  30 Cl30          -2.5561    -2.8878     0.5556 Cl      
  31 H31            1.9243    -2.8383    -1.3171 H       
  32 H32           -2.2587    -0.3072    -0.5967 H       
  33 H33           -2.2865     1.3873    -1.2932 H       
  34 H34           -2.4042     2.5415    -4.4821 H       
  35 H35           -1.6700     4.1588    -4.5989 H       
  36 H36           -0.6350     2.7232    -4.4099 H       
  37 H37            2.0045    -4.0361     1.7289 H       
  38 H38            0.8218    -5.6386    -2.0574 H       
  39 H39            5.0937    -7.5348    -0.9896 H       
  40 H40            7.1406    -6.0376    -0.9368 H       
  41 H41            6.1141    -4.6579    -0.2703 H       
  42 H42            5.5254    -6.0724     1.7513 H       
  43 H43            6.5518    -7.4522     1.0848 H       
@<TRIPOS>BOND
   1    1    2 1
   2    1    8 2
   3    1    9 am
   4    2    3 ar
   5    2    7 ar
   6    3    4 ar
   7    3   14 1
   8    4    5 ar
   9    4   31 1
  10    5    6 ar
  11    5   15 1
  12    6    7 ar
  13    6   30 1
  14    7   32 1
  15    9   10 am
  16    9   33 1
  17   10   11 2
  18   10   12 2
  19   10   13 1
  20   13   34 1
  21   13   35 1
  22   13   36 1
  23   15   17 1
  24   16   17 ar
  25   16   21 ar
  26   16   37 1
  27   17   18 ar
  28   18   19 ar
  29   18   38 1
  30   19   20 ar
  31   19   22 1
  32   20   21 ar
  33   20   27 1
  34   22   23 1
  35   23   24 1
  36   23   25 1
  37   23   26 1
  38   27   28 1
  39   27   29 1
  40   27   39 1
  41   28   29 1
  42   28   40 1
  43   28   41 1
  44   29   42 1
  45   29   43 1

#	End of record

