#	Name: ASD11000097
#	Creating user name:	WinNT
#	Creation time:	15. 06. 2019 21:28

#	Modifying user name:	WinNT
#	Modification time:	15. 06. 2019 21:28

#	Program:	/corina/corina34_cracker 3.40 0067  02.08.2006

@<TRIPOS>MOLECULE
ASD11000097
  59   62    0    0    0
SMALL
NO_CHARGES


@<TRIPOS>ATOM
   1 C1            -0.1866     1.2816     0.0132 C.3     
   2 C2             0.4053    -0.1077    -0.2325 C.3     
   3 N3             1.1403    -0.5429     0.9599 N.am    
   4 C4            -0.7074    -1.0822    -0.5274 C.ar    
   5 C5            -0.8008    -2.3046     0.0981 C.ar    
   6 C6            -1.6626    -0.7103    -1.4719 C.ar    
   7 C7            -1.8415    -3.1650    -0.2288 C.ar    
   8 C8            -2.7900    -2.8005    -1.1690 C.ar    
   9 C9            -2.7020    -1.5652    -1.7926 C.ar    
  10 C10            1.4812    -1.9718     1.0593 C.3     
  11 C11            0.1761    -2.7608     1.1498 C.3     
  12 O12           -3.8036    -3.6507    -1.4801 O.3     
  13 C13           -4.7452    -3.2070    -2.4592 C.3     
  14 C14            1.4898     0.3300     1.9254 C.2     
  15 O15            1.3012     1.5202     1.7660 O.2     
  16 C16            2.1026    -0.1600     3.1785 C.ar    
  17 C17            1.7992    -1.4363     3.6546 C.ar    
  18 C18            2.9916     0.6497     3.8873 C.ar    
  19 C19            3.5602     0.1861     5.0565 C.ar    
  20 C20            3.2504    -1.0793     5.5257 C.ar    
  21 C21            2.3742    -1.8881     4.8247 C.ar    
  22 O22           -1.0892     1.2260     1.1197 O.3     
  23 C23           -1.7057     2.3856     1.4724 C.ar    
  24 C24           -2.5941     2.4026     2.5373 C.ar    
  25 C25           -1.4418     3.5525     0.7707 C.ar    
  26 C26           -2.0681     4.7304     1.1290 C.ar    
  27 C27           -2.9611     4.7462     2.1901 C.ar    
  28 C28           -3.2204     3.5805     2.8956 C.ar    
  29 O29           -3.5770     5.9059     2.5433 O.3     
  30 C30           -4.4845     5.8489     3.6457 C.3     
  31 O31           -1.5725     0.5009    -2.0816 O.3     
  32 C32           -2.5830     0.8215    -3.0399 C.3     
  33 Br33           4.7648     1.2808     6.0189 Br      
  34 H34            0.6164     1.9847     0.2343 H       
  35 H35           -0.7228     1.6107    -0.8769 H       
  36 H36            1.0856    -0.0668    -1.0831 H       
  37 H37           -1.9111    -4.1280     0.2551 H       
  38 H38           -3.4405    -1.2720    -2.5241 H       
  39 H39            2.0381    -2.2804     0.1746 H       
  40 H40            2.0806    -2.1466     1.9528 H       
  41 H41           -0.2642    -2.6134     2.1360 H       
  42 H42            0.3873    -3.8206     1.0073 H       
  43 H43           -5.4998    -3.9782    -2.6133 H       
  44 H44           -5.2260    -2.2923    -2.1125 H       
  45 H45           -4.2278    -3.0119    -3.3986 H       
  46 H46            1.1152    -2.0690     3.1084 H       
  47 H47            3.2343     1.6365     3.5216 H       
  48 H48            3.6981    -1.4379     6.4409 H       
  49 H49            2.1365    -2.8739     5.1962 H       
  50 H50           -2.7965     1.4948     3.0863 H       
  51 H51           -0.7464     3.5403    -0.0555 H       
  52 H52           -1.8620     5.6392     0.5831 H       
  53 H53           -3.9160     3.5926     3.7216 H       
  54 H54           -3.9528     5.5163     4.5372 H       
  55 H55           -4.9051     6.8390     3.8216 H       
  56 H56           -5.2878     5.1480     3.4190 H       
  57 H57           -2.3932     1.8134    -3.4499 H       
  58 H58           -2.5668     0.0865    -3.8446 H       
  59 H59           -3.5596     0.8091    -2.5560 H       
@<TRIPOS>BOND
   1    1    2 1
   2    1   22 1
   3    1   34 1
   4    1   35 1
   5    2    3 1
   6    2    4 1
   7    2   36 1
   8    3   10 1
   9    3   14 am
  10    4    5 ar
  11    4    6 ar
  12    5    7 ar
  13    5   11 1
  14    6   31 1
  15    6    9 ar
  16    7    8 ar
  17    7   37 1
  18    8    9 ar
  19    8   12 1
  20    9   38 1
  21   10   11 1
  22   10   39 1
  23   10   40 1
  24   11   41 1
  25   11   42 1
  26   12   13 1
  27   13   43 1
  28   13   44 1
  29   13   45 1
  30   14   15 2
  31   14   16 1
  32   16   18 ar
  33   16   17 ar
  34   17   21 ar
  35   17   46 1
  36   18   19 ar
  37   18   47 1
  38   19   20 ar
  39   19   33 1
  40   20   21 ar
  41   20   48 1
  42   21   49 1
  43   22   23 1
  44   23   24 ar
  45   23   25 ar
  46   24   28 ar
  47   24   50 1
  48   25   26 ar
  49   25   51 1
  50   26   27 ar
  51   26   52 1
  52   27   28 ar
  53   27   29 1
  54   28   53 1
  55   29   30 1
  56   30   54 1
  57   30   55 1
  58   30   56 1
  59   31   32 1
  60   32   57 1
  61   32   58 1
  62   32   59 1

#	End of record

