#	Name: ASD13410005
#	Creating user name:	WinNT
#	Creation time:	15. 06. 2019 21:30

#	Modifying user name:	WinNT
#	Modification time:	15. 06. 2019 21:30

#	Program:	/corina/corina34_cracker 3.40 0067  02.08.2006

@<TRIPOS>MOLECULE
ASD13410005
  32   33    0    0    0
SMALL
NO_CHARGES


@<TRIPOS>ATOM
   1 C1            -0.0158     1.3797     0.0309 C.ar    
   2 C2             0.0722     0.1416    -0.5787 C.ar    
   3 C3             1.2766    -0.5340    -0.6027 C.ar    
   4 C4             2.4001     0.0315    -0.0136 C.ar    
   5 C5             2.3083     1.2752     0.5978 C.ar    
   6 C6             1.1010     1.9455     0.6183 C.ar    
   7 N7             3.6210    -0.6502    -0.0357 N.am    
   8 C8             4.7749     0.0377    -0.1448 C.2     
   9 C9             6.0664    -0.6687    -0.0498 C.ar    
  10 O10            4.7514     1.2405    -0.3216 O.2     
  11 C11            6.0981    -2.0507     0.1533 C.ar    
  12 C12            7.3078    -2.7046     0.2407 C.ar    
  13 C13            8.4942    -1.9979     0.1285 C.ar    
  14 C14            8.4773    -0.6321    -0.0722 C.ar    
  15 C15            7.2687     0.0417    -0.1685 C.ar    
  16 N16            7.3400    -4.1687     0.4558 N.pl3   
  17 O17            7.2505     1.3828    -0.3714 O.3     
  18 C18           -1.3301     2.1168     0.0496 C.3     
  19 O19            6.2986    -4.7927     0.5552 O.2     
  20 O20            8.4077    -4.7496     0.5335 O.2     
  21 H21           -0.8019    -0.2977    -1.0363 H       
  22 H22            1.3445    -1.5011    -1.0786 H       
  23 H23            3.1800     1.7175     1.0570 H       
  24 H24            1.0290     2.9128     1.0933 H       
  25 H25            3.6374    -1.6180     0.0275 H       
  26 H26            5.1758    -2.6056     0.2420 H       
  27 H27            9.4378    -2.5184     0.1990 H       
  28 H28            9.4063    -0.0881    -0.1583 H       
  29 H29            7.2533     1.9040     0.4432 H       
  30 H30           -1.8894     1.8396     0.9431 H       
  31 H31           -1.1442     3.1908     0.0559 H       
  32 H32           -1.9072     1.8531    -0.8367 H       
@<TRIPOS>BOND
   1    1    2 ar
   2    1    6 ar
   3    1   18 1
   4    2    3 ar
   5    2   21 1
   6    3    4 ar
   7    3   22 1
   8    4    5 ar
   9    4    7 1
  10    5    6 ar
  11    5   23 1
  12    6   24 1
  13    7    8 am
  14    7   25 1
  15    8    9 1
  16    8   10 2
  17    9   11 ar
  18    9   15 ar
  19   11   12 ar
  20   11   26 1
  21   12   13 ar
  22   12   16 1
  23   13   14 ar
  24   13   27 1
  25   14   15 ar
  26   14   28 1
  27   15   17 1
  28   16   19 2
  29   16   20 2
  30   17   29 1
  31   18   30 1
  32   18   31 1
  33   18   32 1

#	End of record

