#	Name: ASD13230001
#	Creating user name:	WinNT
#	Creation time:	15. 06. 2019 21:30

#	Modifying user name:	WinNT
#	Modification time:	15. 06. 2019 21:30

#	Program:	/corina/corina34_cracker 3.40 0067  02.08.2006

@<TRIPOS>MOLECULE
ASD13230001
  26   25    0    0    0
SMALL
NO_CHARGES


@<TRIPOS>ATOM
   1 N1            -0.0404     1.3602    -0.1386 N.pl3   
   2 C2            -0.0082    -0.0131    -0.0834 C.2     
   3 N3             1.1343    -0.6399    -0.1106 N.2     
   4 C4             2.3740     0.1066    -0.3390 C.3     
   5 C5             3.2473     0.0409     0.9156 C.3     
   6 C6             4.5421     0.8205     0.6771 C.3     
   7 C7             5.4154     0.7549     1.9317 C.3     
   8 C8             6.7409     1.4169     1.6562 C.2     
   9 N9            -1.1811    -0.7254     0.0005 N.pl3   
  10 N10            4.7403     1.4509     3.0352 N.3     
  11 O11            6.9406     2.5481     2.0309 O.2     
  12 O12            7.6996     0.7499     0.9947 O.3     
  13 H13            0.7824     1.8681    -0.0617 H       
  14 H14           -0.8854     1.8211    -0.2585 H       
  15 H15            2.9122    -0.3313    -1.1796 H       
  16 H16            2.1361     1.1467    -0.5620 H       
  17 H17            2.7092     0.4788     1.7563 H       
  18 H18            3.4853    -0.9991     1.1386 H       
  19 H19            5.0802     0.3826    -0.1636 H       
  20 H20            4.3041     1.8606     0.4541 H       
  21 H21            5.5797    -0.2872     2.2058 H       
  22 H22           -2.0314    -0.2590     0.0207 H       
  23 H23           -1.1584    -1.6943     0.0395 H       
  24 H24            5.2668     1.3665     3.8918 H       
  25 H25            4.5765     2.4196     2.8053 H       
  26 H26            8.5329     1.2160     0.8416 H       
@<TRIPOS>BOND
   1    1    2 1
   2    1   13 1
   3    1   14 1
   4    2    3 2
   5    2    9 1
   6    3    4 1
   7    4    5 1
   8    4   15 1
   9    4   16 1
  10    5    6 1
  11    5   17 1
  12    5   18 1
  13    6    7 1
  14    6   19 1
  15    6   20 1
  16    7    8 1
  17    7   10 1
  18    7   21 1
  19    8   11 2
  20    8   12 1
  21    9   22 1
  22    9   23 1
  23   10   24 1
  24   10   25 1
  25   12   26 1

#	End of record

