#	Name: ASD10420040
#	Creating user name:	WinNT
#	Creation time:	15. 06. 2019 21:27

#	Modifying user name:	WinNT
#	Modification time:	15. 06. 2019 21:27

#	Program:	/corina/corina34_cracker 3.40 0067  02.08.2006

@<TRIPOS>MOLECULE
ASD10420040
  50   53    0    0    0
SMALL
NO_CHARGES


@<TRIPOS>ATOM
   1 C1             0.1097     1.3674     0.0784 C.2     
   2 C2             0.0337    -0.0195    -0.0068 C.2     
   3 C3             1.3338    -0.5079    -0.0753 C.2     
   4 N4             2.2062     0.5591    -0.0335 N.pl3   
   5 C5             3.5712     0.6042    -0.0700 C.2     
   6 C6             4.2307     1.7783    -0.0148 C.2     
   7 C7             3.5110     2.9931     0.0826 C.2     
   8 C8             2.1239     2.9533     0.1201 C.2     
   9 C9             1.4757     1.7132     0.0604 C.2     
  10 C10            4.2251     4.2838     0.1441 C.2     
  11 O11            3.5985     5.3213     0.2276 O.2     
  12 O12            5.5718     4.3111     0.1074 O.3     
  13 C13           -1.0327     2.3059     0.1653 C.ar    
  14 C14           -1.2220     3.0744     1.3139 C.ar    
  15 C15           -2.2882     3.9469     1.3888 C.ar    
  16 C16           -3.1690     4.0601     0.3279 C.ar    
  17 C17           -2.9869     3.3003    -0.8139 C.ar    
  18 C18           -1.9206     2.4292    -0.9035 C.ar    
  19 C19            1.6984    -1.8651    -0.1714 C.2     
  20 O20            2.8640    -2.1716    -0.3264 O.2     
  21 C21           -1.2285    -0.8427    -0.0219 C.3     
  22 C22           -1.5745    -1.2575     1.3850 C.ar    
  23 C23           -2.7402    -1.9580     1.6317 C.ar    
  24 C24           -3.0576    -2.3394     2.9241 C.ar    
  25 C25           -2.2066    -2.0185     3.9683 C.ar    
  26 C26           -1.0418    -1.3182     3.7193 C.ar    
  27 C27           -0.7232    -0.9424     2.4273 C.ar    
  28 C28           -3.6656    -2.3061     0.4943 C.3     
  29 F29           -4.1970    -3.0237     3.1665 F       
  30 C30            6.2067     5.6154     0.1720 C.3     
  31 H31            4.1311    -0.3164    -0.1439 H       
  32 H32            5.3102     1.7921    -0.0447 H       
  33 H33            1.5522     3.8665     0.1946 H       
  34 H34           -0.5355     2.9863     2.1431 H       
  35 H35           -2.4358     4.5424     2.2776 H       
  36 H36           -4.0023     4.7442     0.3914 H       
  37 H37           -3.6781     3.3926    -1.6385 H       
  38 H38           -1.7765     1.8404    -1.7974 H       
  39 H39            0.9420    -2.6333    -0.1073 H       
  40 H40           -2.0438    -0.2501    -0.4369 H       
  41 H41           -1.0758    -1.7306    -0.6354 H       
  42 H42           -2.4533    -2.3152     4.9770 H       
  43 H43           -0.3779    -1.0678     4.5335 H       
  44 H44            0.1896    -0.3989     2.2330 H       
  45 H45           -3.4334    -3.3069     0.1302 H       
  46 H46           -4.6977    -2.2769     0.8436 H       
  47 H47           -3.5350    -1.5862    -0.3137 H       
  48 H48            5.8784     6.2215    -0.6724 H       
  49 H49            5.9290     6.1090     1.1033 H       
  50 H50            7.2893     5.4948     0.1335 H       
@<TRIPOS>BOND
   1    1    2 1
   2    1    9 2
   3    1   13 1
   4    2    3 2
   5    2   21 1
   6    3    4 1
   7    3   19 1
   8    4    5 1
   9    4    9 1
  10    5    6 2
  11    5   31 1
  12    6    7 1
  13    6   32 1
  14    7    8 2
  15    7   10 1
  16    8    9 1
  17    8   33 1
  18   10   11 2
  19   10   12 1
  20   12   30 1
  21   13   14 ar
  22   13   18 ar
  23   14   15 ar
  24   14   34 1
  25   15   16 ar
  26   15   35 1
  27   16   17 ar
  28   16   36 1
  29   17   18 ar
  30   17   37 1
  31   18   38 1
  32   19   20 2
  33   19   39 1
  34   21   22 1
  35   21   40 1
  36   21   41 1
  37   22   23 ar
  38   22   27 ar
  39   23   24 ar
  40   23   28 1
  41   24   25 ar
  42   24   29 1
  43   25   26 ar
  44   25   42 1
  45   26   27 ar
  46   26   43 1
  47   27   44 1
  48   28   45 1
  49   28   46 1
  50   28   47 1
  51   30   48 1
  52   30   49 1
  53   30   50 1

#	End of record

