#	Name: ASD11920010
#	Creating user name:	WinNT
#	Creation time:	15. 06. 2019 21:29

#	Modifying user name:	WinNT
#	Modification time:	15. 06. 2019 21:29

#	Program:	/corina/corina34_cracker 3.40 0067  02.08.2006

@<TRIPOS>MOLECULE
ASD11920010
  33   35    0    0    0
SMALL
NO_CHARGES


@<TRIPOS>ATOM
   1 C1            -0.0167     1.3790     0.0096 C.ar    
   2 C2             0.0021    -0.0041     0.0020 C.ar    
   3 C3             1.2095    -0.6789    -0.0131 C.ar    
   4 C4             2.3966     0.0290    -0.0207 C.ar    
   5 C5             2.3773     1.4113    -0.0126 C.ar    
   6 C6             1.1709     2.0861     0.0021 C.ar    
   7 C7             3.6719     2.1827    -0.0198 C.3     
   8 C8             4.0907     2.4480    -1.4430 C.ar    
   9 C9             3.6674     3.6017    -2.0832 C.ar    
  10 C10            4.0510     3.8414    -3.3805 C.ar    
  11 C11            4.8653     2.9296    -4.0594 C.ar    
  12 C12            5.2877     1.7706    -3.4081 C.ar    
  13 C13            4.9011     1.5411    -2.1033 C.ar    
  14 C14            3.6127     5.0852    -4.1171 C.3     
  15 C15            4.0905     5.2528    -5.5433 C.2     
  16 N16            4.8726     4.3120    -6.0999 N.am    
  17 C17            5.2640     3.2063    -5.4512 C.2     
  18 O18            5.9719     2.4058    -6.0294 O.2     
  19 O19            5.3034     4.4976    -7.4359 O.3     
  20 O20            3.7687     6.2320    -6.1816 O.2     
  21 Br21          -1.6224    -0.9720     0.0130 Br      
  22 H22           -0.9592     1.9064     0.0169 H       
  23 H23            1.2246    -1.7588    -0.0187 H       
  24 H24            3.3393    -0.4977    -0.0325 H       
  25 H25            1.1564     3.1660     0.0084 H       
  26 H26            3.5331     3.1303     0.5007 H       
  27 H27            4.4441     1.6012     0.4838 H       
  28 H28            3.0380     4.3097    -1.5645 H       
  29 H29            5.9169     1.0583    -3.9210 H       
  30 H30            5.2269     0.6446    -1.5968 H       
  31 H31            2.5229     5.1028    -4.1252 H       
  32 H32            3.9531     5.9493    -3.5466 H       
  33 H33            5.8621     3.7833    -7.7719 H       
@<TRIPOS>BOND
   1    1    2 ar
   2    1    6 ar
   3    1   22 1
   4    2    3 ar
   5    2   21 1
   6    3    4 ar
   7    3   23 1
   8    4    5 ar
   9    4   24 1
  10    5    6 ar
  11    5    7 1
  12    6   25 1
  13    7    8 1
  14    7   26 1
  15    7   27 1
  16    8    9 ar
  17    8   13 ar
  18    9   10 ar
  19    9   28 1
  20   10   11 ar
  21   10   14 1
  22   11   12 ar
  23   11   17 1
  24   12   13 ar
  25   12   29 1
  26   13   30 1
  27   14   15 1
  28   14   31 1
  29   14   32 1
  30   15   16 am
  31   15   20 2
  32   16   17 am
  33   16   19 1
  34   17   18 2
  35   19   33 1

#	End of record

