#	Name: ASD10950066
#	Creating user name:	WinNT
#	Creation time:	15. 06. 2019 21:28

#	Modifying user name:	WinNT
#	Modification time:	15. 06. 2019 21:28

#	Program:	/corina/corina34_cracker 3.40 0067  02.08.2006

@<TRIPOS>MOLECULE
ASD10950066
  58   62    0    0    0
SMALL
NO_CHARGES


@<TRIPOS>ATOM
   1 C1            -2.2852     1.2974     0.5007 C.3     
   2 O2            -1.8774    -0.0925     0.3998 O.3     
   3 C3            -1.0945    -0.4259    -0.6446 C.2     
   4 O4            -0.7617     0.4214    -1.4489 O.2     
   5 C5            -0.6407    -1.8217    -0.8116 C.ar    
   6 C6             0.1708    -2.1707    -1.8930 C.ar    
   7 C7             0.5909    -3.4760    -2.0430 C.ar    
   8 C8             0.2098    -4.4386    -1.1249 C.ar    
   9 C9            -0.5942    -4.0997    -0.0510 C.ar    
  10 C10           -1.0167    -2.7970     0.1142 C.ar    
  11 C11            0.6723    -5.8627    -1.2956 C.3     
  12 N12            1.2038    -6.3760    -0.0276 N.am    
  13 C13            2.3462    -5.8327     0.7112 C.3     
  14 C14            1.8575    -4.7674     1.6947 C.3     
  15 C15            3.0327    -4.2085     2.4547 C.2     
  16 C16            3.4754    -4.6035     3.6561 C.2     
  17 O17            4.5467    -3.8757     4.0173 O.3     
  18 C18            4.8547    -2.9698     3.0676 C.ar    
  19 C19            3.9263    -3.1263     2.0249 C.ar    
  20 C20            4.0001    -2.3140     0.8943 C.ar    
  21 C21            4.9799    -1.3644     0.8047 C.ar    
  22 C22            5.8996    -1.2050     1.8311 C.ar    
  23 C23            5.8449    -2.0017     2.9548 C.ar    
  24 C24            0.4559    -7.4334     0.3367 C.2     
  25 O25            0.6255    -8.0942     1.3420 O.2     
  26 C26           -0.6031    -7.6720    -0.6669 C.2     
  27 C27           -0.4978    -6.7496    -1.6520 C.2     
  28 C28           -1.3542    -6.6334    -2.8360 C.2     
  29 O29           -2.5269    -6.3342    -2.7115 O.2     
  30 C30           -0.7929    -6.8797    -4.1815 C.ar    
  31 C31           -1.5884    -6.7270    -5.3240 C.ar    
  32 C32           -1.0147    -6.9692    -6.5596 C.ar    
  33 C33            0.3133    -7.3508    -6.6266 C.ar    
  34 N34            1.0394    -7.4868    -5.5330 N.ar    
  35 C35            0.5412    -7.2628    -4.3352 C.ar    
  36 O36           -1.5294    -8.6562    -0.6102 O.3     
  37 H37           -1.4016     1.9302     0.5833 H       
  38 H38           -2.8497     1.5759    -0.3891 H       
  39 H39           -2.9105     1.4293     1.3837 H       
  40 H40            0.4686    -1.4204    -2.6105 H       
  41 H41            1.2183    -3.7474    -2.8791 H       
  42 H42           -0.8883    -4.8560     0.6617 H       
  43 H43           -1.6443    -2.5337     0.9528 H       
  44 H44            1.4356    -5.9179    -2.0717 H       
  45 H45            2.8389    -6.6353     1.2601 H       
  46 H46            3.0517    -5.3848     0.0114 H       
  47 H47            1.3649    -3.9649     1.1458 H       
  48 H48            1.1520    -5.2153     2.3945 H       
  49 H49            3.0354    -5.3919     4.2486 H       
  50 H50            3.2866    -2.4344     0.0925 H       
  51 H51            5.0383    -0.7347    -0.0708 H       
  52 H52            6.6686    -0.4514     1.7474 H       
  53 H53            6.5658    -1.8694     3.7480 H       
  54 H54           -2.6231    -6.4283    -5.2426 H       
  55 H55           -1.5978    -6.8619    -7.4623 H       
  56 H56            0.7633    -7.5408    -7.5898 H       
  57 H57            1.1671    -7.3845    -3.4636 H       
  58 H58           -1.4526    -9.2242     0.1686 H       
@<TRIPOS>BOND
   1    1    2 1
   2    1   37 1
   3    1   38 1
   4    1   39 1
   5    2    3 1
   6    3    4 2
   7    3    5 1
   8    5    6 ar
   9    5   10 ar
  10    6    7 ar
  11    6   40 1
  12    7    8 ar
  13    7   41 1
  14    8    9 ar
  15    8   11 1
  16    9   10 ar
  17    9   42 1
  18   10   43 1
  19   11   12 1
  20   11   27 1
  21   11   44 1
  22   12   13 1
  23   12   24 am
  24   13   14 1
  25   13   45 1
  26   13   46 1
  27   14   15 1
  28   14   47 1
  29   14   48 1
  30   15   16 2
  31   15   19 1
  32   16   17 1
  33   16   49 1
  34   17   18 1
  35   18   19 ar
  36   18   23 ar
  37   19   20 ar
  38   20   21 ar
  39   20   50 1
  40   21   22 ar
  41   21   51 1
  42   22   23 ar
  43   22   52 1
  44   23   53 1
  45   24   25 2
  46   24   26 1
  47   26   27 2
  48   26   36 1
  49   27   28 1
  50   28   29 2
  51   28   30 1
  52   30   31 ar
  53   30   35 ar
  54   31   32 ar
  55   31   54 1
  56   32   33 ar
  57   32   55 1
  58   33   34 ar
  59   33   56 1
  60   34   35 ar
  61   35   57 1
  62   36   58 1

#	End of record

