#	Name: ASD10410119
#	Creating user name:	WinNT
#	Creation time:	15. 06. 2019 21:26

#	Modifying user name:	WinNT
#	Modification time:	15. 06. 2019 21:26

#	Program:	/corina/corina34_cracker 3.40 0067  02.08.2006

@<TRIPOS>MOLECULE
ASD10410119
  64   70    0    0    0
SMALL
NO_CHARGES


@<TRIPOS>ATOM
   1 C1            -0.0184     1.3941    -0.0796 C.ar    
   2 C2            -0.0057     0.0094     0.0248 C.ar    
   3 C3             1.2026    -0.6692     0.1140 C.ar    
   4 C4             2.3915     0.0329     0.0989 C.ar    
   5 C5             2.3788     1.4177    -0.0055 C.ar    
   6 C6             1.1704     2.0963    -0.0947 C.ar    
   7 N7             3.5845     2.1298    -0.0209 N.pl3   
   8 C8             3.6708     3.3402    -0.7079 C.2     
   9 N9             4.7092     4.1410    -0.7096 N.2     
  10 N10            2.7091     3.8668    -1.4753 N.2     
  11 C11            3.1174     5.0139    -1.9738 C.2     
  12 N12            4.3799     5.2386    -1.5213 N.pl3   
  13 C13            5.1857     6.3387    -1.8055 C.ar    
  14 N14            2.3939     5.8409    -2.8112 N.pl3   
  15 N15           -1.2109    -0.7023     0.0406 N.3     
  16 C16           -0.9678    -2.1470     0.1567 C.3     
  17 C17           -2.3076    -2.8810     0.2505 C.3     
  18 N18           -3.1129    -2.5794    -0.9411 N.3     
  19 C19           -3.3559    -1.1348    -1.0572 C.3     
  20 C20           -2.0162    -0.4007    -1.1511 C.3     
  21 N21            4.7453     7.3115    -2.5931 N.ar    
  22 C22            5.5057     8.3579    -2.8657 C.ar    
  23 N23            6.7170     8.4938    -2.3837 N.ar    
  24 C24            7.2546     7.5560    -1.5718 C.ar    
  25 C25            6.4735     6.4390    -1.2593 C.ar    
  26 C26            8.5175     7.5158    -0.9603 C.2     
  27 C27            8.7606     6.4526    -0.2103 C.2     
  28 S28            7.3789     5.3694    -0.1987 S.3     
  29 Cl29           4.8759     9.5996    -3.9025 Cl      
  30 C30           -4.1099    -4.8427    -1.0610 C.3     
  31 C31           -4.8349    -5.2540    -2.3789 C.3     
  32 C32           -6.3529    -5.1509    -2.0379 C.3     
  33 C33           -6.6207    -3.6346    -1.9014 C.3     
  34 C34           -4.3777    -3.3264    -0.9246 C.3     
  35 C35           -5.2392    -2.9643    -2.1728 C.3     
  36 C36           -4.6408    -3.9528    -3.2349 C.3     
  37 H37           -0.9580     1.9215    -0.1535 H       
  38 H38            1.2125    -1.7460     0.1956 H       
  39 H39            3.3312    -0.4948     0.1686 H       
  40 H40            1.1606     3.1732    -0.1763 H       
  41 H41            4.3597     1.7810     0.4464 H       
  42 H42            1.4964     5.5917    -3.0820 H       
  43 H43            2.7833     6.6708    -3.1282 H       
  44 H44           -0.4228    -2.4957    -0.7204 H       
  45 H45           -0.3805    -2.3460     1.0531 H       
  46 H46           -2.1305    -3.9550     0.3076 H       
  47 H47           -2.8407    -2.5521     1.1425 H       
  48 H48           -3.9432    -0.9357    -1.9537 H       
  49 H49           -3.9010    -0.7860    -0.1801 H       
  50 H50           -2.1932     0.6733    -1.2081 H       
  51 H51           -1.4831    -0.7296    -2.0431 H       
  52 H52            9.2451     8.3027    -1.0936 H       
  53 H53            9.6826     6.2765     0.3238 H       
  54 H54           -4.5310    -5.3809    -0.2118 H       
  55 H55           -3.0398    -5.0339    -1.1404 H       
  56 H56           -4.5101    -6.1924    -2.8284 H       
  57 H57           -6.9530    -5.5716    -2.8447 H       
  58 H58           -6.5668    -5.6606    -1.0984 H       
  59 H59           -7.3524    -3.3099    -2.6411 H       
  60 H60           -6.9662    -3.3988    -0.8948 H       
  61 H61           -4.9287    -3.1189    -0.0072 H       
  62 H62           -5.2667    -1.9087    -2.4429 H       
  63 H63           -3.5892    -3.7490    -3.4362 H       
  64 H64           -5.2308    -3.9746    -4.1511 H       
@<TRIPOS>BOND
   1    1    2 ar
   2    1    6 ar
   3    1   37 1
   4    2    3 ar
   5    2   15 1
   6    3    4 ar
   7    3   38 1
   8    4    5 ar
   9    4   39 1
  10    5    6 ar
  11    5    7 1
  12    6   40 1
  13    7    8 1
  14    7   41 1
  15    8    9 2
  16    8   10 1
  17    9   12 1
  18   10   11 2
  19   11   12 1
  20   11   14 1
  21   12   13 1
  22   13   21 ar
  23   13   25 ar
  24   14   42 1
  25   14   43 1
  26   15   16 1
  27   15   20 1
  28   16   17 1
  29   16   44 1
  30   16   45 1
  31   17   18 1
  32   17   46 1
  33   17   47 1
  34   18   19 1
  35   18   34 1
  36   19   20 1
  37   19   48 1
  38   19   49 1
  39   20   50 1
  40   20   51 1
  41   21   22 ar
  42   22   23 ar
  43   22   29 1
  44   23   24 ar
  45   24   25 ar
  46   24   26 1
  47   25   28 1
  48   26   27 2
  49   26   52 1
  50   27   28 1
  51   27   53 1
  52   30   34 1
  53   30   31 1
  54   30   54 1
  55   30   55 1
  56   31   32 1
  57   31   36 1
  58   31   56 1
  59   32   33 1
  60   32   57 1
  61   32   58 1
  62   33   35 1
  63   33   59 1
  64   33   60 1
  65   34   35 1
  66   34   61 1
  67   35   36 1
  68   35   62 1
  69   36   63 1
  70   36   64 1

#	End of record

