#	Name: ASD15500007
#	Creating user name:	WinNT
#	Creation time:	15. 06. 2019 21:31

#	Modifying user name:	WinNT
#	Modification time:	15. 06. 2019 21:31

#	Program:	/corina/corina34_cracker 3.40 0067  02.08.2006

@<TRIPOS>MOLECULE
ASD15500007
  50   53    0    0    0
SMALL
NO_CHARGES


@<TRIPOS>ATOM
   1 C1            -0.0169     1.3984     0.0097 C.ar    
   2 C2             0.0021    -0.0041     0.0020 C.ar    
   3 C3             1.2457    -0.6858    -0.0135 C.ar    
   4 C4             2.4438     0.0513    -0.0210 C.ar    
   5 C5             2.4065     1.4083    -0.0129 C.ar    
   6 C6             1.1799     2.0957     0.0020 C.ar    
   7 C7             1.1676     3.5734     0.0096 C.2     
   8 N8             2.3291     4.2570     0.0022 N.am    
   9 C9             2.3169     5.7219     0.0097 C.3     
  10 C10            3.6262     6.2415     0.6100 C.3     
  11 C11            3.6334     7.7710     0.5593 C.3     
  12 N12            3.5021     8.2165    -0.8338 N.3     
  13 C13            2.2305     7.7694    -1.4166 C.3     
  14 C14            2.1814     6.2399    -1.4249 C.3     
  15 C15            3.6440     9.6750    -0.9357 C.3     
  16 C16            3.7499    10.0693    -2.3863 C.ar    
  17 C17            2.6080    10.3620    -3.1082 C.ar    
  18 C18            2.7051    10.7236    -4.4389 C.ar    
  19 C19            3.9443    10.7930    -5.0476 C.ar    
  20 C20            5.0864    10.5012    -4.3254 C.ar    
  21 C21            4.9895    10.1438    -2.9936 C.ar    
  22 O22            0.1099     4.1724     0.0225 O.2     
  23 C23            1.2591    -2.0906    -0.0217 C.ar    
  24 C24            0.0834    -2.7769    -0.0146 C.ar    
  25 C25           -1.1388    -2.1073     0.0002 C.ar    
  26 C26           -1.1920    -0.7475     0.0090 C.ar    
  27 H27           -0.9569     1.9302     0.0171 H       
  28 H28            3.3936    -0.4626    -0.0328 H       
  29 H29            3.3307     1.9670    -0.0180 H       
  30 H30            3.1731     3.7791    -0.0081 H       
  31 H31            1.4766     6.0762     0.6067 H       
  32 H32            3.7080     5.9113     1.6455 H       
  33 H33            4.4684     5.8544     0.0364 H       
  34 H34            2.7991     8.1577     1.1444 H       
  35 H35            4.5705     8.1437     0.9729 H       
  36 H36            1.4027     8.1561    -0.8222 H       
  37 H37            2.1486     8.1410    -2.4380 H       
  38 H38            3.0009     5.8527    -2.0305 H       
  39 H39            1.2310     5.9085    -1.8431 H       
  40 H40            2.7732    10.1567    -0.4909 H       
  41 H41            4.5434     9.9904    -0.4068 H       
  42 H42            1.6398    10.3078    -2.6327 H       
  43 H43            1.8129    10.9516    -5.0031 H       
  44 H44            4.0202    11.0748    -6.0874 H       
  45 H45            6.0545    10.5551    -4.8011 H       
  46 H46            5.8821     9.9194    -2.4284 H       
  47 H47            2.1982    -2.6239    -0.0339 H       
  48 H48            0.0980    -3.8567    -0.0209 H       
  49 H49           -2.0570    -2.6758     0.0049 H       
  50 H50           -2.1462    -0.2417     0.0204 H       
@<TRIPOS>BOND
   1    1    2 ar
   2    1    6 ar
   3    1   27 1
   4    2   26 ar
   5    2    3 ar
   6    3    4 ar
   7    3   23 ar
   8    4    5 ar
   9    4   28 1
  10    5    6 ar
  11    5   29 1
  12    6    7 1
  13    7    8 am
  14    7   22 2
  15    8    9 1
  16    8   30 1
  17    9   10 1
  18    9   14 1
  19    9   31 1
  20   10   11 1
  21   10   32 1
  22   10   33 1
  23   11   12 1
  24   11   34 1
  25   11   35 1
  26   12   13 1
  27   12   15 1
  28   13   14 1
  29   13   36 1
  30   13   37 1
  31   14   38 1
  32   14   39 1
  33   15   16 1
  34   15   40 1
  35   15   41 1
  36   16   17 ar
  37   16   21 ar
  38   17   18 ar
  39   17   42 1
  40   18   19 ar
  41   18   43 1
  42   19   20 ar
  43   19   44 1
  44   20   21 ar
  45   20   45 1
  46   21   46 1
  47   23   24 ar
  48   23   47 1
  49   24   25 ar
  50   24   48 1
  51   25   26 ar
  52   25   49 1
  53   26   50 1

#	End of record

