#	Name: ASD10160175
#	Creating user name:	WinNT
#	Creation time:	15. 06. 2019 21:25

#	Modifying user name:	WinNT
#	Modification time:	15. 06. 2019 21:25

#	Program:	/corina/corina34_cracker 3.40 0067  02.08.2006

@<TRIPOS>MOLECULE
ASD10160175
  34   35    0    0    0
SMALL
NO_CHARGES


@<TRIPOS>ATOM
   1 C1            -0.0325     1.4702     0.0132 C.2     
   2 C2            -0.0087    -0.0042     0.0043 C.ar    
   3 C3             1.2062    -0.6859    -0.1327 C.ar    
   4 C4             1.2232    -2.0663    -0.1405 C.ar    
   5 C5             0.0381    -2.7777    -0.0127 C.ar    
   6 C6            -1.1725    -2.1035     0.1238 C.ar    
   7 C7            -1.1988    -0.7256     0.1385 C.ar    
   8 O8             1.0042     2.0957    -0.0986 O.2     
   9 N9            -1.2040     2.1244     0.1397 N.am    
  10 S10           -1.2309     3.7802     0.1497 S.o2    
  11 O11           -2.6029     4.1074     0.3218 O.2     
  12 O12           -0.2637     4.1404     1.1264 O.2     
  13 C13           -0.6671     4.2520    -1.5087 C.3     
  14 O14            0.0593    -4.1353    -0.0213 O.3     
  15 C15           -0.1515    -4.7672    -1.2009 C.ar    
  16 N16           -0.0407    -6.0848    -1.2563 N.ar    
  17 C17           -0.2403    -6.7334    -2.3917 C.ar    
  18 C18           -0.5688    -6.0155    -3.5312 C.ar    
  19 C19           -0.6764    -4.6372    -3.4369 C.ar    
  20 N20           -0.4684    -4.0525    -2.2684 N.ar    
  21 C21           -0.1115    -8.2339    -2.4460 C.3     
  22 F22           -2.3227    -2.8012     0.2478 F       
  23 F23            2.3599     0.0058    -0.2575 F       
  24 H24            2.1598    -2.5935    -0.2465 H       
  25 H25           -2.1378    -0.2038     0.2493 H       
  26 H26           -2.0315     1.6254     0.2249 H       
  27 H27           -1.3459     3.8386    -2.2545 H       
  28 H28           -0.6536     5.3387    -1.5923 H       
  29 H29            0.3371     3.8623    -1.6756 H       
  30 H30           -0.7369    -6.5193    -4.4716 H       
  31 H31           -0.9305    -4.0479    -4.3055 H       
  32 H32           -1.0779    -8.6895    -2.2301 H       
  33 H33            0.2179    -8.5345    -3.4406 H       
  34 H34            0.6185    -8.5629    -1.7065 H       
@<TRIPOS>BOND
   1    1    2 1
   2    1    8 2
   3    1    9 am
   4    2    3 ar
   5    2    7 ar
   6    3    4 ar
   7    3   23 1
   8    4    5 ar
   9    4   24 1
  10    5    6 ar
  11    5   14 1
  12    6    7 ar
  13    6   22 1
  14    7   25 1
  15    9   10 am
  16    9   26 1
  17   10   11 2
  18   10   12 2
  19   10   13 1
  20   13   27 1
  21   13   28 1
  22   13   29 1
  23   14   15 1
  24   15   16 ar
  25   15   20 ar
  26   16   17 ar
  27   17   18 ar
  28   17   21 1
  29   18   19 ar
  30   18   30 1
  31   19   20 ar
  32   19   31 1
  33   21   32 1
  34   21   33 1
  35   21   34 1

#	End of record

