#	Name: ASD11000151
#	Creating user name:	WinNT
#	Creation time:	15. 06. 2019 21:28

#	Modifying user name:	WinNT
#	Modification time:	15. 06. 2019 21:28

#	Program:	/corina/corina34_cracker 3.40 0067  02.08.2006

@<TRIPOS>MOLECULE
ASD11000151
  48   51    0    0    0
SMALL
NO_CHARGES


@<TRIPOS>ATOM
   1 N1            -0.0086     1.3160     0.0587 N.ar    
   2 C2            -0.0178     0.0091    -0.1600 C.ar    
   3 N3             1.0750    -0.6388    -0.5368 N.ar    
   4 C4             2.2176     0.0051    -0.7079 C.ar    
   5 C5             2.2624     1.3730    -0.4882 C.ar    
   6 C6             1.1010     2.0193    -0.0944 C.ar    
   7 C7             3.5460     2.1407    -0.6724 C.3     
   8 O8             3.6361     2.6012    -2.0222 O.3     
   9 C9             4.7425     3.3167    -2.3577 C.ar    
  10 C10            5.7217     3.5683    -1.4000 C.ar    
  11 C11            6.8494     4.2909    -1.7221 C.ar    
  12 C12            7.0177     4.7767    -3.0143 C.ar    
  13 C13            6.0303     4.5247    -3.9855 C.ar    
  14 C14            4.8923     3.7853    -3.6477 C.ar    
  15 N15            8.1399     5.5037    -3.3565 N.am    
  16 C16            8.3045     5.9752    -4.6047 C.2     
  17 C17            7.3441     5.7503    -5.6141 C.2     
  18 C18            6.2198     5.0429    -5.3417 C.2     
  19 O19            9.3082     6.6133    -4.8713 O.2     
  20 N20           -1.1973    -0.6965     0.0098 N.pl3   
  21 C21           -1.2008    -2.0927    -0.1035 C.ar    
  22 C22           -0.0882    -2.8351     0.2871 C.ar    
  23 C23           -2.3140    -2.7544    -0.6004 C.ar    
  24 N24           -2.3239    -4.0692    -0.7092 N.ar    
  25 C25           -1.2841    -4.8041    -0.3528 C.ar    
  26 C26           -0.1366    -4.2119     0.1578 C.ar    
  27 O27           -1.3410    -6.1544    -0.4827 O.3     
  28 C28           -2.5502    -6.7051    -1.0086 C.3     
  29 C29            1.0435    -5.0579     0.5612 C.3     
  30 H30            3.1050    -0.5284    -1.0148 H       
  31 H31            1.1022     3.0843     0.0850 H       
  32 H32            3.5589     2.9949     0.0045 H       
  33 H33            4.3929     1.4905    -0.4530 H       
  34 H34            5.5956     3.1935    -0.3950 H       
  35 H35            7.6024     4.4804    -0.9714 H       
  36 H36            4.1320     3.5888    -4.3891 H       
  37 H37            8.8197     5.6772    -2.6866 H       
  38 H38            7.5055     6.1427    -6.6073 H       
  39 H39            5.4802     4.8656    -6.1085 H       
  40 H40           -2.0211    -0.2238     0.2070 H       
  41 H41            0.7913    -2.3475     0.6811 H       
  42 H42           -3.1824    -2.1872    -0.9013 H       
  43 H43           -2.4630    -7.7904    -1.0600 H       
  44 H44           -3.3838    -6.4379    -0.3591 H       
  45 H45           -2.7263    -6.3071    -2.0079 H       
  46 H46            1.7100    -5.1824    -0.2922 H       
  47 H47            1.5807    -4.5683     1.3735 H       
  48 H48            0.6932    -6.0349     0.8942 H       
@<TRIPOS>BOND
   1    1    2 ar
   2    1    6 ar
   3    2    3 ar
   4    2   20 1
   5    3    4 ar
   6    4    5 ar
   7    4   30 1
   8    5    6 ar
   9    5    7 1
  10    6   31 1
  11    7    8 1
  12    7   32 1
  13    7   33 1
  14    8    9 1
  15    9   10 ar
  16    9   14 ar
  17   10   11 ar
  18   10   34 1
  19   11   12 ar
  20   11   35 1
  21   12   13 ar
  22   12   15 1
  23   13   14 ar
  24   13   18 1
  25   14   36 1
  26   15   16 am
  27   15   37 1
  28   16   17 1
  29   16   19 2
  30   17   18 2
  31   17   38 1
  32   18   39 1
  33   20   21 1
  34   20   40 1
  35   21   22 ar
  36   21   23 ar
  37   22   26 ar
  38   22   41 1
  39   23   24 ar
  40   23   42 1
  41   24   25 ar
  42   25   26 ar
  43   25   27 1
  44   26   29 1
  45   27   28 1
  46   28   43 1
  47   28   44 1
  48   28   45 1
  49   29   46 1
  50   29   47 1
  51   29   48 1

#	End of record

