#	Name: ASD10160211
#	Creating user name:	WinNT
#	Creation time:	15. 06. 2019 21:25

#	Modifying user name:	WinNT
#	Modification time:	15. 06. 2019 21:25

#	Program:	/corina/corina34_cracker 3.40 0067  02.08.2006

@<TRIPOS>MOLECULE
ASD10160211
  35   36    0    0    0
SMALL
NO_CHARGES


@<TRIPOS>ATOM
   1 C1            -0.0400     1.4700     0.0147 C.2     
   2 C2            -0.0142    -0.0043     0.0054 C.ar    
   3 C3             1.2015    -0.6844    -0.1322 C.ar    
   4 C4             1.2204    -2.0647    -0.1398 C.ar    
   5 C5             0.0362    -2.7778    -0.0118 C.ar    
   6 C6            -1.1752    -2.1051     0.1248 C.ar    
   7 C7            -1.2033    -0.7273     0.1398 C.ar    
   8 O8             0.9959     2.0970    -0.0973 O.2     
   9 N9            -1.2123     2.1227     0.1416 N.am    
  10 S10           -1.2413     3.7784     0.1520 S.o2    
  11 O11           -2.6137     4.1038     0.3246 O.2     
  12 O12           -0.2743     4.1397     1.1286 O.2     
  13 C13           -0.6787     4.2514    -1.5064 C.3     
  14 O14            0.0594    -4.1352    -0.0202 O.3     
  15 C15           -0.6717    -4.6818    -3.4416 C.ar    
  16 N16           -0.4657    -4.0746    -2.2905 N.ar    
  17 C17           -0.1514    -4.7679    -1.2002 C.ar    
  18 C18           -0.0415    -6.1512    -1.2882 C.ar    
  19 C19           -0.2667    -6.7530    -2.5208 C.ar    
  20 N20           -0.5770    -5.9901    -3.5648 N.ar    
  21 O21           -0.1709    -8.0982    -2.6567 O.3     
  22 C22           -0.4173    -8.6381    -3.9566 C.3     
  23 F23           -2.3246    -2.8044     0.2481 F       
  24 F24            2.3542     0.0089    -0.2577 F       
  25 H25            2.1578    -2.5906    -0.2458 H       
  26 H26           -2.1431    -0.2068     0.2502 H       
  27 H27           -2.0391     1.6226     0.2269 H       
  28 H28           -1.3572     3.8372    -2.2521 H       
  29 H29           -0.6667     5.3381    -1.5898 H       
  30 H30            0.3260     3.8631    -1.6737 H       
  31 H31           -0.9300    -4.0906    -4.3077 H       
  32 H32            0.2126    -6.7428    -0.4212 H       
  33 H33           -0.3082    -9.7222    -3.9264 H       
  34 H34           -1.4298    -8.3835    -4.2698 H       
  35 H35            0.2981    -8.2205    -4.6651 H       
@<TRIPOS>BOND
   1    1    2 1
   2    1    8 2
   3    1    9 am
   4    2    3 ar
   5    2    7 ar
   6    3    4 ar
   7    3   24 1
   8    4    5 ar
   9    4   25 1
  10    5    6 ar
  11    5   14 1
  12    6    7 ar
  13    6   23 1
  14    7   26 1
  15    9   10 am
  16    9   27 1
  17   10   11 2
  18   10   12 2
  19   10   13 1
  20   13   28 1
  21   13   29 1
  22   13   30 1
  23   14   17 1
  24   15   16 ar
  25   15   20 ar
  26   15   31 1
  27   16   17 ar
  28   17   18 ar
  29   18   19 ar
  30   18   32 1
  31   19   20 ar
  32   19   21 1
  33   21   22 1
  34   22   33 1
  35   22   34 1
  36   22   35 1

#	End of record

