#	Name: ASD10100019
#	Creating user name:	WinNT
#	Creation time:	15. 06. 2019 21:24

#	Modifying user name:	WinNT
#	Modification time:	15. 06. 2019 21:24

#	Program:	/corina/corina34_cracker 3.40 0067  02.08.2006

@<TRIPOS>MOLECULE
ASD10100019
  28   29    0    0    0
SMALL
NO_CHARGES


@<TRIPOS>ATOM
   1 N1            -0.0178     1.4648     0.0101 N.3     
   2 C2             0.0021    -0.0041     0.0020 C.3     
   3 C3            -0.9993    -1.6367    -1.9956 C.2     
   4 C4            -3.4209    -5.5131     1.0414 C.ar    
   5 C5            -3.6091    -4.3294     1.7301 C.ar    
   6 C6            -3.1618    -5.4893    -0.3162 C.ar    
   7 C7            -3.5401    -3.1219     1.0607 C.ar    
   8 C8            -3.0932    -4.2818    -0.9857 C.ar    
   9 C9            -3.2081    -1.7818    -1.0272 C.3     
  10 C10           -3.2824    -3.0981    -0.2972 C.ar    
  11 C11           -1.4330    -0.4957     0.0131 C.2     
  12 O12           -2.1962    -0.1877     0.9033 O.2     
  13 N13            0.2791    -1.2539    -2.0903 N.am    
  14 N14           -1.8289    -1.2884    -1.0053 N.am    
  15 O15           -1.4389    -2.3536    -2.8724 O.2     
  16 O16            2.0169    -0.1186    -1.2652 O.2     
  17 C17            0.8573    -0.4581    -1.1658 C.2     
  18 H18            0.9191     1.8392     0.0032 H       
  19 H19           -0.5563     1.8234    -0.7642 H       
  20 H20            0.4826    -0.3395     0.9211 H       
  21 H21           -3.4704    -6.4563     1.5652 H       
  22 H22           -3.8118    -4.3480     2.7907 H       
  23 H23           -3.0144    -6.4141    -0.8542 H       
  24 H24           -3.6878    -2.1971     1.5986 H       
  25 H25           -2.8916    -4.2632    -2.0465 H       
  26 H26           -3.5281    -1.9204    -2.0599 H       
  27 H27           -3.8606    -1.0581    -0.5386 H       
  28 H28            0.8061    -1.5563    -2.8465 H       
@<TRIPOS>BOND
   1    1    2 1
   2    1   18 1
   3    1   19 1
   4    2   11 1
   5    2   17 1
   6    2   20 1
   7    3   13 am
   8    3   14 am
   9    3   15 2
  10    4    5 ar
  11    4    6 ar
  12    4   21 1
  13    5    7 ar
  14    5   22 1
  15    6    8 ar
  16    6   23 1
  17    7   10 ar
  18    7   24 1
  19    8   10 ar
  20    8   25 1
  21    9   10 1
  22    9   14 1
  23    9   26 1
  24    9   27 1
  25   11   12 2
  26   11   14 am
  27   13   17 am
  28   13   28 1
  29   16   17 2

#	End of record

