#	Name: ASD10610113
#	Creating user name:	WinNT
#	Creation time:	15. 06. 2019 21:28

#	Modifying user name:	WinNT
#	Modification time:	15. 06. 2019 21:28

#	Program:	/corina/corina34_cracker 3.40 0067  02.08.2006

@<TRIPOS>MOLECULE
ASD10610113
  60   65    0    0    0
SMALL
NO_CHARGES


@<TRIPOS>ATOM
   1 C1             0.0692     1.2590    -0.1703 C.ar    
   2 C2             0.1400    -0.1328    -0.1736 C.ar    
   3 C3             1.3971    -0.7417    -0.1232 C.ar    
   4 C4             2.5204     0.0665    -0.0720 C.ar    
   5 C5             2.3703     1.4418    -0.0717 C.ar    
   6 N6             1.1646     1.9855    -0.1206 N.ar    
   7 C7             3.9886    -0.2920    -0.0123 C.3     
   8 C8             4.7348     0.9979    -0.4146 C.3     
   9 C9             3.7335     2.1003    -0.0100 C.3     
  10 C10           -1.0945    -0.9520    -0.2289 C.ar    
  11 C11           -1.2112    -1.9789    -1.1610 C.ar    
  12 C12           -2.3632    -2.7408    -1.2101 C.ar    
  13 C13           -3.4070    -2.4888    -0.3357 C.ar    
  14 C14           -3.3074    -1.4719     0.5962 C.ar    
  15 C15           -2.1491    -0.6994     0.6623 C.ar    
  16 F16           -4.3297    -1.2313     1.4459 F       
  17 Cl17          -2.5027    -4.0203    -2.3750 Cl      
  18 C18           -2.0370     0.3922     1.6596 C.2     
  19 N19           -2.9476     0.7469     2.5451 N.2     
  20 N20           -2.4730     1.7334     3.2250 N.pl3   
  21 N21           -1.2914     2.0152     2.7991 N.2     
  22 N22           -0.9876     1.2073     1.8406 N.2     
  23 C23           -3.1694     2.4260     4.3121 C.3     
  24 N24            3.8006     3.2189    -0.9537 N.am    
  25 C25            3.4291     4.4539    -0.5624 C.2     
  26 O26            2.9544     4.6233     0.5408 O.2     
  27 C27            3.6034     5.6243    -1.4955 C.3     
  28 N28            4.8018     5.5881    -2.3375 N.am    
  29 C29            2.3394     6.2465    -2.0922 C.3     
  30 C30            3.1226     6.9931    -1.0094 C.3     
  31 C31            6.0237     5.6656    -1.7742 C.2     
  32 C32            7.2254     5.7405    -2.6265 C.2     
  33 O33            6.1356     5.6738    -0.5635 O.2     
  34 C34            8.5258     5.8227    -2.2091 C.2     
  35 C35            9.2648     5.8681    -3.4121 C.2     
  36 N36            8.3992     5.8127    -4.3822 N.2     
  37 O37            7.2645     5.7357    -3.9723 O.3     
  38 C38           10.7628     5.9628    -3.5460 C.3     
  39 H39           -0.8940     1.7457    -0.2135 H       
  40 H40            1.4902    -1.8176    -0.1239 H       
  41 H41            4.2647    -0.5889     0.9995 H       
  42 H42            4.2113    -1.0933    -0.7168 H       
  43 H43            5.6660     1.0967     0.1432 H       
  44 H44            4.9211     1.0189    -1.4884 H       
  45 H45            3.9408     2.4461     1.0027 H       
  46 H46           -0.4012    -2.1803    -1.8464 H       
  47 H47           -4.3034    -3.0893    -0.3820 H       
  48 H48           -2.9407     1.9376     5.2594 H       
  49 H49           -2.8411     3.4647     4.3503 H       
  50 H50           -4.2444     2.3910     4.1354 H       
  51 H51            4.1125     3.0707    -1.8601 H       
  52 H52            4.7158     5.5084    -3.3004 H       
  53 H53            2.3995     6.6292    -3.1110 H       
  54 H54            1.3817     5.8093    -1.8097 H       
  55 H55            2.6799     7.0470    -0.0149 H       
  56 H56            3.6977     7.8667    -1.3163 H       
  57 H57            8.8999     5.8473    -1.1963 H       
  58 H58           11.1889     4.9600    -3.5771 H       
  59 H59           11.0127     6.4924    -4.4653 H       
  60 H60           11.1704     6.5044    -2.6924 H       
@<TRIPOS>BOND
   1    1    2 ar
   2    1    6 ar
   3    1   39 1
   4    2    3 ar
   5    2   10 1
   6    3    4 ar
   7    3   40 1
   8    4    5 ar
   9    4    7 1
  10    5    6 ar
  11    5    9 1
  12    7    8 1
  13    7   41 1
  14    7   42 1
  15    8    9 1
  16    8   43 1
  17    8   44 1
  18    9   24 1
  19    9   45 1
  20   10   11 ar
  21   10   15 ar
  22   11   12 ar
  23   11   46 1
  24   12   13 ar
  25   12   17 1
  26   13   14 ar
  27   13   47 1
  28   14   15 ar
  29   14   16 1
  30   15   18 1
  31   18   19 2
  32   18   22 1
  33   19   20 1
  34   20   21 1
  35   20   23 1
  36   21   22 2
  37   23   48 1
  38   23   49 1
  39   23   50 1
  40   24   25 am
  41   24   51 1
  42   25   26 2
  43   25   27 1
  44   27   28 1
  45   27   29 1
  46   27   30 1
  47   28   31 am
  48   28   52 1
  49   29   30 1
  50   29   53 1
  51   29   54 1
  52   30   55 1
  53   30   56 1
  54   31   32 1
  55   31   33 2
  56   32   34 2
  57   32   37 1
  58   34   35 1
  59   34   57 1
  60   35   36 2
  61   35   38 1
  62   36   37 1
  63   38   58 1
  64   38   59 1
  65   38   60 1

#	End of record

