#	Name: ASD17180001
#	Creating user name:	WinNT
#	Creation time:	15. 06. 2019 21:31

#	Modifying user name:	WinNT
#	Modification time:	15. 06. 2019 21:31

#	Program:	/corina/corina34_cracker 3.40 0067  02.08.2006

@<TRIPOS>MOLECULE
ASD17180001
 100  103    0    0    0
SMALL
NO_CHARGES


@<TRIPOS>ATOM
   1 C1            -0.0947     1.7035     0.2061 C.3     
   2 C2            -0.0637     0.1766     0.1195 C.3     
   3 C3             0.0453     0.0923     2.6161 C.3     
   4 C4             0.7165    -0.5383     3.8478 C.3     
   5 C5             0.6134    -2.0433     3.6968 C.3     
   6 C6             1.4460    -2.4426     2.4484 C.3     
   7 C7             1.5108    -3.9669     2.5943 C.3     
   8 C8             1.7614    -4.1605     4.1149 C.3     
   9 C9             1.2273    -2.8840     4.8114 C.3     
  10 C10           -0.8491    -2.4437     3.4928 C.3     
  11 C11           -1.4956    -0.3625     0.1170 C.3     
  12 C12            1.3357     2.2458     0.2026 C.3     
  13 C13            2.0405     1.8202    -1.0870 C.3     
  14 C14            2.0737     0.2926    -1.1692 C.3     
  15 C15            0.6424    -0.2479    -1.1697 C.3     
  16 C16            0.6726    -1.7746    -1.2596 C.3     
  17 C17            1.4176    -2.3446    -0.0507 C.3     
  18 C18            0.7003    -1.9247     1.2332 C.3     
  19 C19            0.6914    -0.3904     1.3221 C.3     
  20 C20            0.1621    -3.2512     5.8465 C.3     
  21 C21           -0.3781    -1.9760     6.4968 C.3     
  22 C22            0.7818    -4.1480     6.9201 C.3     
  23 C23           -0.3090    -4.6166     7.8852 C.3     
  24 C24            0.3015    -5.4999     8.9426 C.2     
  25 C25            0.1181    -6.8909    10.9348 C.3     
  26 C26           -0.9727    -7.3595    11.8999 C.3     
  27 C27           -0.3529    -8.2563    12.9734 C.3     
  28 C28           -2.0244    -7.5392    14.5375 C.3     
  29 C29           -2.4184    -9.4621    13.1586 C.3     
  30 C30           -0.8052    -9.5673    14.9308 C.3     
  31 C31           -1.8960   -10.0359    15.8960 C.3     
  32 C32           -1.2762   -10.9327    16.9695 C.3     
  33 N33           -0.4753    -6.0322     9.9068 N.am    
  34 N34           -1.4002    -8.7062    13.9001 N.4     
  35 O35            1.4918    -5.7318     8.9259 O.2     
  36 O36            3.3768     2.3266    -1.0890 O.3     
  37 O37            2.7554    -1.8423    -0.0352 O.3     
  38 O38            2.0900    -0.1485     3.9059 O.3     
  39 O39           -3.5691   -12.2343    17.3653 O.co2   
  40 O40           -1.9652   -12.3389    19.1273 O.co2   
  41 O41           -3.1774   -10.3225    18.7363 O.co2   
  42 S42           -2.5695   -11.4883    18.1138 S.o2    
  43 H43           -0.6372     2.1048    -0.6499 H       
  44 H44           -0.5950     2.0048     1.1264 H       
  45 H45           -1.0110    -0.1764     2.6089 H       
  46 H46            0.1357     1.1768     2.6769 H       
  47 H47            0.2012    -0.2205     4.7542 H       
  48 H48            2.4463    -2.0131     2.5039 H       
  49 H49            0.5662    -4.4232     2.2980 H       
  50 H50            2.3369    -4.3753     2.0122 H       
  51 H51            1.2217    -5.0366     4.4745 H       
  52 H52            2.8284    -4.2728     4.3069 H       
  53 H53            2.0454    -2.3424     5.2862 H       
  54 H54           -1.2454    -1.9364     2.6132 H       
  55 H55           -0.9141    -3.5224     3.3503 H       
  56 H56           -1.4298    -2.1574     4.3697 H       
  57 H57           -2.0338     0.0395    -0.7414 H       
  58 H58           -1.4742    -1.4505     0.0553 H       
  59 H59           -1.9991    -0.0605     1.0354 H       
  60 H60            1.3117     3.3340     0.2613 H       
  61 H61            1.8771     1.8478     1.0608 H       
  62 H62            1.4995     2.2186    -1.9453 H       
  63 H63            2.5773    -0.0111    -2.0869 H       
  64 H64            2.6125    -0.1060    -0.3096 H       
  65 H65            0.1033     0.1537    -2.0277 H       
  66 H66           -0.3477    -2.1578    -1.2710 H       
  67 H67            1.1829    -2.0743    -2.1750 H       
  68 H68            1.4384    -3.4324    -0.1164 H       
  69 H69           -0.3171    -2.3158     1.2312 H       
  70 H70            1.7190    -0.0288     1.2843 H       
  71 H71           -0.6535    -3.7824     5.3558 H       
  72 H72           -0.8196    -1.3371     5.7320 H       
  73 H73           -1.1370    -2.2375     7.2342 H       
  74 H74            0.4375    -1.4448     6.9875 H       
  75 H75            1.2450    -5.0140     6.4471 H       
  76 H76            1.5373    -3.5871     7.4703 H       
  77 H77           -0.7721    -3.7506     8.3582 H       
  78 H78           -1.0645    -5.1775     7.3350 H       
  79 H79            0.8736    -6.3300    11.4850 H       
  80 H80            0.5813    -7.7569    10.4618 H       
  81 H81           -1.4359    -6.4935    12.3729 H       
  82 H82            0.1102    -9.1223    12.5005 H       
  83 H83           -2.4660    -6.9002    13.7727 H       
  84 H84           -2.8015    -7.8730    15.2251 H       
  85 H85           -1.2689    -6.9783    15.0877 H       
  86 H86           -1.9553   -10.3281    12.6856 H       
  87 H87           -3.1955    -9.7960    13.8461 H       
  88 H88           -2.8600    -8.8232    12.3937 H       
  89 H89           -0.0497    -9.0064    15.4811 H       
  90 H90           -0.3420   -10.4332    14.4579 H       
  91 H91           -2.3591    -9.1699    16.3689 H       
  92 H92           -2.6515   -10.5968    15.3458 H       
  93 H93           -0.8131   -11.7986    16.4965 H       
  94 H94           -0.5207   -10.3718    17.5197 H       
  95 H95           -1.4273    -5.8467     9.9202 H       
  96 H96            3.4321     3.2906    -1.0385 H       
  97 H97            3.2703    -2.0705    -0.8213 H       
  98 H98            2.2254     0.8069     3.9697 H       
  99 H99            0.4026    -7.6954    13.5237 H       
 100 H100          -1.7282    -7.9204    11.3497 H       
@<TRIPOS>BOND
   1    1    2 1
   2    1   12 1
   3    1   43 1
   4    1   44 1
   5    2   11 1
   6    2   15 1
   7    2   19 1
   8    3    4 1
   9    3   19 1
  10    3   45 1
  11    3   46 1
  12    4    5 1
  13    4   38 1
  14    4   47 1
  15    5    6 1
  16    5   10 1
  17    5    9 1
  18    6    7 1
  19    6   18 1
  20    6   48 1
  21    7    8 1
  22    7   49 1
  23    7   50 1
  24    8    9 1
  25    8   51 1
  26    8   52 1
  27    9   20 1
  28    9   53 1
  29   10   54 1
  30   10   55 1
  31   10   56 1
  32   11   57 1
  33   11   58 1
  34   11   59 1
  35   12   13 1
  36   12   60 1
  37   12   61 1
  38   13   14 1
  39   13   36 1
  40   13   62 1
  41   14   15 1
  42   14   63 1
  43   14   64 1
  44   15   16 1
  45   15   65 1
  46   16   17 1
  47   16   66 1
  48   16   67 1
  49   17   18 1
  50   17   37 1
  51   17   68 1
  52   18   19 1
  53   18   69 1
  54   19   70 1
  55   20   21 1
  56   20   22 1
  57   20   71 1
  58   21   72 1
  59   21   73 1
  60   21   74 1
  61   22   23 1
  62   22   75 1
  63   22   76 1
  64   23   24 1
  65   23   77 1
  66   23   78 1
  67   24   33 am
  68   24   35 2
  69   25   26 1
  70   25   33 1
  71   25   79 1
  72   25   80 1
  73   26   27 1
  74   26   81 1
  75   26  100 1
  76   27   34 1
  77   27   82 1
  78   27   99 1
  79   28   34 1
  80   28   83 1
  81   28   84 1
  82   28   85 1
  83   29   34 1
  84   29   86 1
  85   29   87 1
  86   29   88 1
  87   30   31 1
  88   30   34 1
  89   30   89 1
  90   30   90 1
  91   31   32 1
  92   31   91 1
  93   31   92 1
  94   32   42 1
  95   32   93 1
  96   32   94 1
  97   33   95 1
  98   36   96 1
  99   37   97 1
 100   38   98 1
 101   39   42 ar
 102   40   42 ar
 103   41   42 ar

#	End of record

