#	Name: ASD10410214
#	Creating user name:	WinNT
#	Creation time:	15. 06. 2019 21:27

#	Modifying user name:	WinNT
#	Modification time:	15. 06. 2019 21:27

#	Program:	/corina/corina34_cracker 3.40 0067  02.08.2006

@<TRIPOS>MOLECULE
ASD10410214
  63   67    0    0    0
SMALL
NO_CHARGES


@<TRIPOS>ATOM
   1 C1            -0.0280     1.3383     0.4046 C.ar    
   2 C2            -0.0281     0.0177    -0.0196 C.ar    
   3 C3             1.1620    -0.5948    -0.3835 C.ar    
   4 C4             2.3482     0.1098    -0.3237 C.ar    
   5 C5             2.3491     1.4322     0.1004 C.ar    
   6 C6             1.1571     2.0447     0.4645 C.ar    
   7 O7            -1.1957    -0.6771    -0.0782 O.3     
   8 N8             3.5511     2.1472     0.1617 N.pl3   
   9 C9             3.5518     3.5275    -0.0340 C.2     
  10 N10            4.5935     4.3131     0.0976 N.2     
  11 N11            2.4908     4.2607    -0.3917 N.2     
  12 C12            2.8379     5.5260    -0.4888 C.2     
  13 N13            4.1622     5.6184    -0.1889 N.pl3   
  14 C14            4.9330     6.7732    -0.1699 C.ar    
  15 N15            2.0073     6.5731    -0.8361 N.pl3   
  16 C16            6.1973     6.8115    -0.7993 C.ar    
  17 C17           -1.1221    -2.0328    -0.5240 C.3     
  18 C18           -2.5236    -2.6466    -0.5237 C.3     
  19 N19           -3.3606    -1.9566    -1.5144 N.3     
  20 C20           -4.6371    -2.6669    -1.7143 C.3     
  21 C21           -5.7705    -1.6621    -1.4188 C.3     
  22 C22           -5.0804    -0.2874    -1.6210 C.3     
  23 C23           -3.6542    -0.5718    -1.0876 C.3     
  24 N24            4.4998     7.8705     0.4345 N.ar    
  25 C25            5.2236     8.9781     0.4601 C.ar    
  26 N26            6.4054     9.0710    -0.1022 N.ar    
  27 C27            6.9361     8.0205    -0.7451 C.ar    
  28 C28            8.1949     8.0857    -1.3560 C.ar    
  29 C29            8.6915     6.9867    -1.9993 C.ar    
  30 C30            7.9573     5.7930    -2.0563 C.ar    
  31 C31            6.7294     5.6998    -1.4657 C.ar    
  32 O32            9.9123     7.0516    -2.5916 O.3     
  33 C33           10.6124     8.2940    -2.5005 C.3     
  34 O34            8.4757     4.7152    -2.7030 O.3     
  35 C35            7.6802     3.5284    -2.7267 C.3     
  36 H36           -0.9557     1.8157     0.6839 H       
  37 H37            1.1611    -1.6233    -0.7133 H       
  38 H38            3.2748    -0.3675    -0.6064 H       
  39 H39            1.1569     3.0732     0.7941 H       
  40 H40            4.3834     1.6822     0.3403 H       
  41 H41            1.0729     6.4055    -1.0350 H       
  42 H42            2.3584     7.4763    -0.8811 H       
  43 H43           -0.7132    -2.0615    -1.5340 H       
  44 H44           -0.4765    -2.6010     0.1456 H       
  45 H45           -2.4571    -3.7044    -0.7780 H       
  46 H46           -2.9676    -2.5379     0.4658 H       
  47 H47           -4.7100    -3.0158    -2.7443 H       
  48 H48           -4.7025    -3.5118    -1.0288 H       
  49 H49           -6.5914    -1.7888    -2.1246 H       
  50 H50           -6.1229    -1.7693    -0.3930 H       
  51 H51           -5.0555    -0.0144    -2.6760 H       
  52 H52           -5.5710     0.4863    -1.0305 H       
  53 H53           -3.6339    -0.4975    -0.0003 H       
  54 H54           -2.9385     0.1213    -1.5296 H       
  55 H55            4.8234     9.8443     0.9660 H       
  56 H56            8.7697     8.9993    -1.3193 H       
  57 H57            6.1711     4.7766    -1.5147 H       
  58 H58           11.5704     8.2097    -3.0137 H       
  59 H59           10.0187     9.0806    -2.9663 H       
  60 H60           10.7822     8.5393    -1.4522 H       
  61 H61            6.7308     3.7371    -3.2199 H       
  62 H62            8.2092     2.7472    -3.2726 H       
  63 H63            7.4937     3.1955    -1.7056 H       
@<TRIPOS>BOND
   1    1    2 ar
   2    1    6 ar
   3    1   36 1
   4    2    3 ar
   5    2    7 1
   6    3    4 ar
   7    3   37 1
   8    4    5 ar
   9    4   38 1
  10    5    6 ar
  11    5    8 1
  12    6   39 1
  13    7   17 1
  14    8    9 1
  15    8   40 1
  16    9   10 2
  17    9   11 1
  18   10   13 1
  19   11   12 2
  20   12   13 1
  21   12   15 1
  22   13   14 1
  23   14   16 ar
  24   14   24 ar
  25   15   41 1
  26   15   42 1
  27   16   27 ar
  28   16   31 ar
  29   17   18 1
  30   17   43 1
  31   17   44 1
  32   18   19 1
  33   18   45 1
  34   18   46 1
  35   19   20 1
  36   19   23 1
  37   20   21 1
  38   20   47 1
  39   20   48 1
  40   21   22 1
  41   21   49 1
  42   21   50 1
  43   22   23 1
  44   22   51 1
  45   22   52 1
  46   23   53 1
  47   23   54 1
  48   24   25 ar
  49   25   26 ar
  50   25   55 1
  51   26   27 ar
  52   27   28 ar
  53   28   29 ar
  54   28   56 1
  55   29   30 ar
  56   29   32 1
  57   30   31 ar
  58   30   34 1
  59   31   57 1
  60   32   33 1
  61   33   58 1
  62   33   59 1
  63   33   60 1
  64   34   35 1
  65   35   61 1
  66   35   62 1
  67   35   63 1

#	End of record

