#	Name: ASD16770001
#	Creating user name:	WinNT
#	Creation time:	15. 06. 2019 21:31

#	Modifying user name:	WinNT
#	Modification time:	15. 06. 2019 21:31

#	Program:	/corina/corina34_cracker 3.40 0067  02.08.2006

@<TRIPOS>MOLECULE
ASD16770001
  37   38    0    0    0
SMALL
NO_CHARGES


@<TRIPOS>ATOM
   1 N1            -0.2648     1.3811    -0.1490 N.3     
   2 C2            -0.9633     1.9885    -1.2890 C.3     
   3 C3            -0.2661     1.5848    -2.5901 C.3     
   4 C4            -0.2754     0.0588    -2.7161 C.3     
   5 C5             2.4652    -0.3653    -5.2842 C.ar    
   6 C6             0.4623    -0.3478    -3.9657 C.ar    
   7 C7             1.8073    -1.0897    -6.2700 C.ar    
   8 C8             0.4152    -0.5507    -1.4930 C.3     
   9 C9            -0.1925    -1.0603    -4.9533 C.ar    
  10 C10            0.4810    -1.4353    -6.1016 C.ar    
  11 C11           -0.2334    -2.2217    -7.1704 C.3     
  12 C12            4.6660    -0.8657    -6.1106 C.2     
  13 C13           -0.3017    -0.0850    -0.2236 C.3     
  14 C14            1.7876     0.0052    -4.1301 C.ar    
  15 F15           -1.2254    -3.0136    -6.5821 F       
  16 F16           -0.8213    -1.3399    -8.0837 F       
  17 F17            0.6831    -3.0415    -7.8375 F       
  18 N18            4.2554    -2.0462    -6.4801 N.2     
  19 N19            5.9556    -0.4711    -6.3792 N.pl3   
  20 N20            3.8088    -0.0139    -5.4515 N.pl3   
  21 H21            0.6848     1.7162    -0.0865 H       
  22 H22           -1.9967     1.6424    -1.3081 H       
  23 H23           -0.9458     3.0738    -1.1892 H       
  24 H24           -0.7941     2.0231    -3.4370 H       
  25 H25            0.7634     1.9426    -2.5775 H       
  26 H26           -1.3047    -0.2962    -2.7679 H       
  27 H27            2.3323    -1.3819    -7.1674 H       
  28 H28            0.3740    -1.6381    -1.5560 H       
  29 H29            1.4556    -0.2270    -1.4635 H       
  30 H30           -1.2320    -1.3248    -4.8276 H       
  31 H31            0.1963    -0.5058     0.6499 H       
  32 H32           -1.3382    -0.4215    -0.2478 H       
  33 H33            2.2986     0.5614    -3.3582 H       
  34 H34            4.8594    -2.6465    -6.9445 H       
  35 H35            6.5596    -1.0714    -6.8437 H       
  36 H36            6.2612     0.4074    -6.1043 H       
  37 H37            4.1364     0.8299    -5.1030 H       
@<TRIPOS>BOND
   1    1   13 1
   2    1   21 1
   3    1    2 1
   4    2    3 1
   5    2   22 1
   6    2   23 1
   7    3    4 1
   8    3   24 1
   9    3   25 1
  10    4    8 1
  11    4    6 1
  12    4   26 1
  13    5    7 ar
  14    5   20 1
  15    5   14 ar
  16    6    9 ar
  17    6   14 ar
  18    7   27 1
  19    7   10 ar
  20    8   28 1
  21    8   29 1
  22    8   13 1
  23    9   10 ar
  24    9   30 1
  25   10   11 1
  26   11   16 1
  27   11   15 1
  28   11   17 1
  29   12   19 1
  30   12   18 2
  31   12   20 1
  32   13   31 1
  33   13   32 1
  34   14   33 1
  35   18   34 1
  36   19   35 1
  37   19   36 1
  38   20   37 1

#	End of record

