#	Name: ASD10160141
#	Creating user name:	WinNT
#	Creation time:	15. 06. 2019 21:25

#	Modifying user name:	WinNT
#	Modification time:	15. 06. 2019 21:25

#	Program:	/corina/corina34_cracker 3.40 0067  02.08.2006

@<TRIPOS>MOLECULE
ASD10160141
  41   43    0    0    0
SMALL
NO_CHARGES


@<TRIPOS>ATOM
   1 C1            -0.3981     1.1118    -1.9423 C.2     
   2 C2            -0.2780    -0.2680    -1.4368 C.ar    
   3 C3             0.9060    -0.9879    -1.6356 C.ar    
   4 C4             1.0136    -2.2795    -1.1605 C.ar    
   5 C5            -0.0504    -2.8643    -0.4870 C.ar    
   6 C6            -1.2300    -2.1515    -0.2872 C.ar    
   7 C7            -1.3442    -0.8595    -0.7524 C.ar    
   8 O8             0.5321     1.6262    -2.5329 O.2     
   9 N9            -1.5410     1.8011    -1.7546 N.am    
  10 S10           -1.6760     3.3509    -2.3224 S.o2    
  11 O11           -2.9788     3.7570    -1.9262 O.2     
  12 O12           -0.5199     4.0090    -1.8228 O.2     
  13 C13           -1.5828     3.1819    -4.1261 C.3     
  14 F14           -2.2619    -2.7257     0.3690 F       
  15 F15            1.9414    -0.4198    -2.2917 F       
  16 O16            0.0593    -4.1349    -0.0222 O.3     
  17 C17            1.5479    -5.5212    -1.2617 C.ar    
  18 C18            1.2626    -4.7569    -0.1421 C.ar    
  19 C19            2.2227    -4.6326     0.8589 C.ar    
  20 C20            3.4337    -5.2823     0.6953 C.ar    
  21 C21            3.6497    -6.0330    -0.4565 C.ar    
  22 N22            2.7133    -6.1276    -1.3868 N.ar    
  23 N23            4.8647    -6.6913    -0.6322 N.3     
  24 C24            4.8880    -7.4253    -1.9112 C.3     
  25 C25            6.3334    -6.9429    -2.0977 C.3     
  26 C26            5.8803    -5.7842    -1.1984 C.3     
  27 F27            7.2950    -7.7766    -1.5169 F       
  28 F28            6.6460    -6.5630    -3.4074 F       
  29 Cl29           4.6674    -5.1620     1.9107 Cl      
  30 H30            1.9265    -2.8360    -1.3133 H       
  31 H31           -2.2578    -0.3060    -0.5926 H       
  32 H32           -2.2845     1.3894    -1.2870 H       
  33 H33           -2.3987     2.5485    -4.4743 H       
  34 H34           -1.6642     4.1659    -4.5879 H       
  35 H35           -0.6295     2.7298    -4.3999 H       
  36 H36            0.8060    -5.6254    -2.0397 H       
  37 H37            2.0270    -4.0427     1.7422 H       
  38 H38            4.8026    -8.5055    -1.7936 H       
  39 H39            4.1976    -7.0255    -2.6538 H       
  40 H40            5.4547    -4.9465    -1.7508 H       
  41 H41            6.6358    -5.4737    -0.4767 H       
@<TRIPOS>BOND
   1    1    2 1
   2    1    8 2
   3    1    9 am
   4    2    3 ar
   5    2    7 ar
   6    3    4 ar
   7    3   15 1
   8    4    5 ar
   9    4   30 1
  10    5    6 ar
  11    5   16 1
  12    6    7 ar
  13    6   14 1
  14    7   31 1
  15    9   10 am
  16    9   32 1
  17   10   11 2
  18   10   12 2
  19   10   13 1
  20   13   33 1
  21   13   34 1
  22   13   35 1
  23   16   18 1
  24   17   18 ar
  25   17   22 ar
  26   17   36 1
  27   18   19 ar
  28   19   20 ar
  29   19   37 1
  30   20   21 ar
  31   20   29 1
  32   21   22 ar
  33   21   23 1
  34   23   24 1
  35   23   26 1
  36   24   25 1
  37   24   38 1
  38   24   39 1
  39   25   26 1
  40   25   27 1
  41   25   28 1
  42   26   40 1
  43   26   41 1

#	End of record

