#	Name: ASD13680021
#	Creating user name:	WinNT
#	Creation time:	15. 06. 2019 21:30

#	Modifying user name:	WinNT
#	Modification time:	15. 06. 2019 21:30

#	Program:	/corina/corina34_cracker 3.40 0067  02.08.2006

@<TRIPOS>MOLECULE
ASD13680021
  39   41    0    0    0
SMALL
NO_CHARGES


@<TRIPOS>ATOM
   1 C1            -0.0185     1.5104     0.0103 C.3     
   2 C2             0.0021    -0.0041     0.0020 C.2     
   3 C3             0.7575    -0.7668     0.7974 C.2     
   4 C4             1.7348    -0.2334     1.8306 C.3     
   5 C5             1.8926     2.2240     1.4372 C.3     
   6 C6             1.4096     2.0534    -0.0004 C.3     
   7 C7             1.2831     1.1386     2.3215 C.3     
   8 C8             0.5460    -2.1875     0.5647 C.2     
   9 C9            -0.3656    -2.4467    -0.4199 C.2     
  10 S10           -0.9768    -0.9976    -1.0693 S.3     
  11 N11           -0.7404    -3.7145    -0.8324 N.am    
  12 C12            1.2421    -3.2367     1.3120 C.2     
  13 O13            0.7588    -3.6748     2.3387 O.2     
  14 O14            2.4193    -3.7173     0.8619 O.3     
  15 C15           -1.6509    -3.8617    -1.8151 C.2     
  16 C16           -2.0507    -5.2141    -2.2551 C.ar    
  17 C17           -2.9939    -5.3699    -3.2731 C.ar    
  18 C18           -3.3630    -6.6348    -3.6794 C.ar    
  19 C19           -2.8003    -7.7496    -3.0800 C.ar    
  20 C20           -1.8646    -7.6015    -2.0694 C.ar    
  21 C21           -1.4828    -6.3418    -1.6587 C.ar    
  22 O22           -2.1432    -2.8816    -2.3394 O.2     
  23 Cl23          -3.2702    -9.3388    -3.5970 Cl      
  24 H24           -0.5486     1.8697    -0.8717 H       
  25 H25           -0.5316     1.8602     0.9061 H       
  26 H26            1.7804    -0.9220     2.6743 H       
  27 H27            2.7246    -0.1487     1.3819 H       
  28 H28            2.9795     2.1462     1.4657 H       
  29 H29            1.5910     3.2041     1.8066 H       
  30 H30            2.0615     1.3532    -0.5229 H       
  31 H31            1.4286     3.0179    -0.5078 H       
  32 H32            0.1958     1.2008     2.2755 H       
  33 H33            1.6114     1.2822     3.3509 H       
  34 H34           -0.3476    -4.4966    -0.4140 H       
  35 H35            2.8413    -4.4094     1.3892 H       
  36 H36           -3.4335    -4.5014    -3.7409 H       
  37 H37           -4.0926    -6.7565    -4.4663 H       
  38 H38           -1.4297    -8.4745    -1.6056 H       
  39 H39           -0.7493    -6.2276    -0.8743 H       
@<TRIPOS>BOND
   1    1    2 1
   2    1    6 1
   3    1   24 1
   4    1   25 1
   5    2   10 1
   6    2    3 2
   7    3    4 1
   8    3    8 1
   9    4    7 1
  10    4   26 1
  11    4   27 1
  12    5    6 1
  13    5    7 1
  14    5   28 1
  15    5   29 1
  16    6   30 1
  17    6   31 1
  18    7   32 1
  19    7   33 1
  20    8    9 2
  21    8   12 1
  22    9   10 1
  23    9   11 1
  24   11   15 am
  25   11   34 1
  26   12   13 2
  27   12   14 1
  28   14   35 1
  29   15   16 1
  30   15   22 2
  31   16   17 ar
  32   16   21 ar
  33   17   18 ar
  34   17   36 1
  35   18   19 ar
  36   18   37 1
  37   19   20 ar
  38   19   23 1
  39   20   21 ar
  40   20   38 1
  41   21   39 1

#	End of record

