#	Name: ASD10410145
#	Creating user name:	WinNT
#	Creation time:	15. 06. 2019 21:27

#	Modifying user name:	WinNT
#	Modification time:	15. 06. 2019 21:27

#	Program:	/corina/corina34_cracker 3.40 0067  02.08.2006

@<TRIPOS>MOLECULE
ASD10410145
  67   73    0    0    0
SMALL
NO_CHARGES


@<TRIPOS>ATOM
   1 C1            -0.1934     1.1687     0.2297 C.ar    
   2 C2            -0.0262    -0.2069     0.1601 C.ar    
   3 C3             1.2460    -0.7452    -0.0025 C.ar    
   4 C4             2.3426     0.0907    -0.0946 C.ar    
   5 C5             2.1735     1.4678    -0.0248 C.ar    
   6 C6             0.9033     2.0041     0.1375 C.ar    
   7 F7             1.4095    -2.0846    -0.0699 F       
   8 N8             3.2845     2.3151    -0.1176 N.pl3   
   9 C9             3.1502     3.5811    -0.6868 C.2     
  10 N10            4.0895     4.4946    -0.7388 N.2     
  11 N11            2.0440     4.0550    -1.2721 N.2     
  12 C12            2.2591     5.2800    -1.7013 C.2     
  13 N13            3.5407     5.6112    -1.3899 N.pl3   
  14 C14            4.1813     6.8178    -1.6621 C.ar    
  15 N15            1.3464     6.0852    -2.3551 N.pl3   
  16 N16           -1.1388    -1.0538     0.2541 N.3     
  17 C17           -1.8341    -0.8696     1.5356 C.3     
  18 C18           -3.0844    -1.7518     1.5659 C.3     
  19 N19           -2.6945    -3.1562     1.3786 N.3     
  20 C20           -1.9992    -3.3404     0.0971 C.3     
  21 C21           -0.7489    -2.4582     0.0668 C.3     
  22 N22            3.5398     7.7958    -2.2880 N.ar    
  23 C23            4.1425     8.9422    -2.5482 C.ar    
  24 N24            5.3855     9.1776    -2.2108 N.ar    
  25 C25            6.1238     8.2442    -1.5693 C.ar    
  26 C26            5.5139     7.0213    -1.2737 C.ar    
  27 C27           -3.8608    -4.0440     1.4771 C.3     
  28 C28           -4.4961    -3.9511     2.8981 C.3     
  29 C29           -3.4268    -5.5212     1.3389 C.3     
  30 C30           -3.8408    -6.1817     2.6893 C.3     
  31 C31           -5.8328    -4.7453     2.7806 C.3     
  32 C32           -5.3988    -6.2225     2.6424 C.3     
  33 C33           -3.6116    -4.9857     3.6795 C.3     
  34 C34            7.4551     8.3007    -1.1276 C.2     
  35 C35            7.9077     7.2138    -0.5228 C.2     
  36 S36            6.6617     5.9792    -0.4458 S.3     
  37 C37            8.3149     9.5217    -1.3295 C.3     
  38 H38           -1.1817     1.5869     0.3515 H       
  39 H39            3.3308    -0.3265    -0.2206 H       
  40 H40            0.7724     3.0747     0.1918 H       
  41 H41            4.1474     2.0215     0.2141 H       
  42 H42            0.4515     5.7570    -2.5348 H       
  43 H43            1.6006     6.9787    -2.6342 H       
  44 H44           -1.1704    -1.1512     2.3531 H       
  45 H45           -2.1236     0.1755     1.6453 H       
  46 H46           -3.5860    -1.6387     2.5270 H       
  47 H47           -3.7604    -1.4521     0.7651 H       
  48 H48           -1.7097    -4.3855    -0.0126 H       
  49 H49           -2.6629    -3.0588    -0.7204 H       
  50 H50           -0.2473    -2.5713    -0.8943 H       
  51 H51           -0.0729    -2.7579     0.8676 H       
  52 H52            3.5883     9.7154    -3.0595 H       
  53 H53           -4.5967    -3.7893     0.7145 H       
  54 H54           -4.5725    -2.9496     3.3213 H       
  55 H55           -3.9499    -5.9947     0.5081 H       
  56 H56           -2.3481    -5.5887     1.1978 H       
  57 H57           -3.3466    -7.1227     2.9307 H       
  58 H58           -6.4360    -4.6089     3.6783 H       
  59 H59           -6.3871    -4.4279     1.8974 H       
  60 H60           -5.7398    -6.6313     1.6912 H       
  61 H61           -5.7886    -6.8123     3.4720 H       
  62 H62           -2.5655    -4.6821     3.7185 H       
  63 H63           -4.0089    -5.1954     4.6726 H       
  64 H64            8.9069     7.1024    -0.1284 H       
  65 H65            8.2063    10.1882    -0.4739 H       
  66 H66            9.3580     9.2199    -1.4249 H       
  67 H67            8.0024    10.0403    -2.2359 H       
@<TRIPOS>BOND
   1    1    2 ar
   2    1    6 ar
   3    1   38 1
   4    2    3 ar
   5    2   16 1
   6    3    4 ar
   7    3    7 1
   8    4    5 ar
   9    4   39 1
  10    5    6 ar
  11    5    8 1
  12    6   40 1
  13    8    9 1
  14    8   41 1
  15    9   10 2
  16    9   11 1
  17   10   13 1
  18   11   12 2
  19   12   13 1
  20   12   15 1
  21   13   14 1
  22   14   22 ar
  23   14   26 ar
  24   15   42 1
  25   15   43 1
  26   16   17 1
  27   16   21 1
  28   17   18 1
  29   17   44 1
  30   17   45 1
  31   18   19 1
  32   18   46 1
  33   18   47 1
  34   19   20 1
  35   19   27 1
  36   20   21 1
  37   20   48 1
  38   20   49 1
  39   21   50 1
  40   21   51 1
  41   22   23 ar
  42   23   24 ar
  43   23   52 1
  44   24   25 ar
  45   25   26 ar
  46   25   34 1
  47   26   36 1
  48   27   28 1
  49   27   29 1
  50   27   53 1
  51   28   31 1
  52   28   33 1
  53   28   54 1
  54   29   30 1
  55   29   55 1
  56   29   56 1
  57   30   32 1
  58   30   33 1
  59   30   57 1
  60   31   32 1
  61   31   58 1
  62   31   59 1
  63   32   60 1
  64   32   61 1
  65   33   62 1
  66   33   63 1
  67   34   35 2
  68   34   37 1
  69   35   36 1
  70   35   64 1
  71   37   65 1
  72   37   66 1
  73   37   67 1

#	End of record

