#	Name: ASD14640008
#	Creating user name:	WinNT
#	Creation time:	15. 06. 2019 21:31

#	Modifying user name:	WinNT
#	Modification time:	15. 06. 2019 21:31

#	Program:	/corina/corina34_cracker 3.40 0067  02.08.2006

@<TRIPOS>MOLECULE
ASD14640008
  34   35    0    0    0
SMALL
NO_CHARGES


@<TRIPOS>ATOM
   1 C1            -0.0178     1.4642     0.0101 C.3     
   2 N2             0.0021    -0.0041     0.0020 N.3     
   3 C3             0.6689    -0.5327     1.1988 C.3     
   4 C4             2.1246    -0.0613     1.2235 C.3     
   5 C5             2.1603     1.4695     1.2306 C.3     
   6 C6             1.4174     1.9953    -0.0008 C.3     
   7 C7             2.8129    -0.5941     2.4818 C.3     
   8 C8             2.8823    -2.0981     2.4177 C.ar    
   9 C9             3.9298    -2.7171     1.7506 C.ar    
  10 C10            1.9063    -2.8617     3.0278 C.ar    
  11 C11            1.9700    -4.2419     2.9701 C.ar    
  12 C12            3.0100    -4.8610     2.3021 C.ar    
  13 C13            3.9911    -4.1017     1.6939 C.ar    
  14 O14            4.8938    -1.9680     1.1536 O.3     
  15 C15            5.9419    -2.6728     0.4851 C.3     
  16 H16           -0.5453     1.8252    -0.8729 H       
  17 H17           -0.5283     1.8156     0.9068 H       
  18 H18           -0.9309    -0.3779    -0.0869 H       
  19 H19            0.1552    -0.1719     2.0900 H       
  20 H20            0.6402    -1.6221     1.1793 H       
  21 H21            2.6426    -0.4332     0.3395 H       
  22 H22            1.6765     1.8409     2.1340 H       
  23 H23            3.1954     1.8099     1.2044 H       
  24 H24            1.9242     1.6557    -0.9040 H       
  25 H25            1.4024     3.0849     0.0210 H       
  26 H26            3.8217    -0.1862     2.5445 H       
  27 H27            2.2442    -0.2938     3.3618 H       
  28 H28            1.0930    -2.3805     3.5506 H       
  29 H29            1.2061    -4.8372     3.4481 H       
  30 H30            3.0576    -5.9391     2.2588 H       
  31 H31            4.8052    -4.5858     1.1750 H       
  32 H32            6.6425    -1.9580     0.0533 H       
  33 H33            6.4653    -3.3085     1.1992 H       
  34 H34            5.5174    -3.2893    -0.3072 H       
@<TRIPOS>BOND
   1    1    2 1
   2    1    6 1
   3    1   16 1
   4    1   17 1
   5    2    3 1
   6    2   18 1
   7    3    4 1
   8    3   19 1
   9    3   20 1
  10    4    5 1
  11    4    7 1
  12    4   21 1
  13    5    6 1
  14    5   22 1
  15    5   23 1
  16    6   24 1
  17    6   25 1
  18    7    8 1
  19    7   26 1
  20    7   27 1
  21    8   10 ar
  22    8    9 ar
  23    9   13 ar
  24    9   14 1
  25   10   11 ar
  26   10   28 1
  27   11   12 ar
  28   11   29 1
  29   12   13 ar
  30   12   30 1
  31   13   31 1
  32   14   15 1
  33   15   32 1
  34   15   33 1
  35   15   34 1

#	End of record

