#	Name: ASD10410255
#	Creating user name:	WinNT
#	Creation time:	15. 06. 2019 21:27

#	Modifying user name:	WinNT
#	Modification time:	15. 06. 2019 21:27

#	Program:	/corina/corina34_cracker 3.40 0067  02.08.2006

@<TRIPOS>MOLECULE
ASD10410255
  54   58    0    0    0
SMALL
NO_CHARGES


@<TRIPOS>ATOM
   1 C1            -0.0311     1.3887    -0.1232 C.ar    
   2 C2            -0.0094     0.0058     0.0021 C.ar    
   3 C3             1.2017    -0.6604     0.1351 C.ar    
   4 C4             2.3845     0.0520     0.1429 C.ar    
   5 C5             2.3629     1.4349     0.0172 C.ar    
   6 C6             1.1516     2.1012    -0.1159 C.ar    
   7 N7             3.5623     2.1576     0.0255 N.pl3   
   8 C8             3.6612     3.3528    -0.6860 C.2     
   9 N9             4.6931     4.1619    -0.6731 N.2     
  10 N10            2.7204     3.8538    -1.4952 N.2     
  11 C11            3.1355     4.9929    -2.0064 C.2     
  12 N12            4.3814     5.2383    -1.5194 N.pl3   
  13 C13            5.1867     6.3376    -1.8028 C.ar    
  14 N14            2.4325     5.7949    -2.8845 N.pl3   
  15 C15            5.8191     7.0413    -0.7557 C.ar    
  16 N16            5.3663     6.7223    -3.0513 N.ar    
  17 C17            6.1221     7.7612    -3.3783 C.ar    
  18 C18            6.7689     8.5060    -2.4399 C.ar    
  19 C19            6.6320     8.1562    -1.0830 C.ar    
  20 C20            7.2663     8.8738    -0.0591 C.ar    
  21 C21            7.0955     8.4865     1.2362 C.ar    
  22 C22            6.3009     7.3884     1.5576 C.ar    
  23 C23            5.6665     6.6718     0.5875 C.ar    
  24 N24           -1.2084    -0.7164    -0.0053 N.3     
  25 C25           -0.9563    -2.1570     0.1389 C.3     
  26 C26           -2.2917    -2.9016     0.2061 C.3     
  27 N27           -3.0658    -2.6248    -1.0120 N.3     
  28 C28           -3.3179    -1.1842    -1.1563 C.3     
  29 C29           -1.9824    -0.4395    -1.2234 C.3     
  30 C30           -4.3241    -3.3828    -1.0198 C.3     
  31 H31           -0.9727     1.9065    -0.2308 H       
  32 H32            1.2185    -1.7359     0.2329 H       
  33 H33            3.3263    -0.4661     0.2471 H       
  34 H34            1.1348     3.1766    -0.2140 H       
  35 H35            4.3244     1.8268     0.5263 H       
  36 H36            1.5460     5.5322    -3.1778 H       
  37 H37            2.8253     6.6208    -3.2078 H       
  38 H38            6.2283     8.0245    -4.4203 H       
  39 H39            7.3797     9.3476    -2.7316 H       
  40 H40            7.8855     9.7266    -0.2951 H       
  41 H41            7.5839     9.0389     2.0253 H       
  42 H42            6.1827     7.1027     2.5924 H       
  43 H43            5.0532     5.8229     0.8517 H       
  44 H44           -0.3838    -2.5135    -0.7173 H       
  45 H45           -0.3927    -2.3377     1.0543 H       
  46 H46           -2.1071    -3.9731     0.2840 H       
  47 H47           -2.8526    -2.5646     1.0779 H       
  48 H48           -3.8814    -1.0035    -2.0716 H       
  49 H49           -3.8904    -0.8276    -0.3000 H       
  50 H50           -2.1670     0.6319    -1.3013 H       
  51 H51           -1.4216    -0.7766    -2.0952 H       
  52 H52           -4.9231    -3.1015    -0.1536 H       
  53 H53           -4.8773    -3.1593    -1.9320 H       
  54 H54           -4.1057    -4.4499    -0.9795 H       
@<TRIPOS>BOND
   1    1    2 ar
   2    1    6 ar
   3    1   31 1
   4    2    3 ar
   5    2   24 1
   6    3    4 ar
   7    3   32 1
   8    4    5 ar
   9    4   33 1
  10    5    6 ar
  11    5    7 1
  12    6   34 1
  13    7    8 1
  14    7   35 1
  15    8    9 2
  16    8   10 1
  17    9   12 1
  18   10   11 2
  19   11   12 1
  20   11   14 1
  21   12   13 1
  22   13   15 ar
  23   13   16 ar
  24   14   36 1
  25   14   37 1
  26   15   19 ar
  27   15   23 ar
  28   16   17 ar
  29   17   18 ar
  30   17   38 1
  31   18   19 ar
  32   18   39 1
  33   19   20 ar
  34   20   21 ar
  35   20   40 1
  36   21   22 ar
  37   21   41 1
  38   22   23 ar
  39   22   42 1
  40   23   43 1
  41   24   25 1
  42   24   29 1
  43   25   26 1
  44   25   44 1
  45   25   45 1
  46   26   27 1
  47   26   46 1
  48   26   47 1
  49   27   28 1
  50   27   30 1
  51   28   29 1
  52   28   48 1
  53   28   49 1
  54   29   50 1
  55   29   51 1
  56   30   52 1
  57   30   53 1
  58   30   54 1

#	End of record

