#	Name: ASD14630002
#	Creating user name:	WinNT
#	Creation time:	15. 06. 2019 21:31

#	Modifying user name:	WinNT
#	Modification time:	15. 06. 2019 21:31

#	Program:	/corina/corina34_cracker 3.40 0067  02.08.2006

@<TRIPOS>MOLECULE
ASD14630002
  13   12    0    0    0
SMALL
NO_CHARGES


@<TRIPOS>ATOM
   1 O1             0.1466    -2.6400    -0.0135 O.2     
   2 O2            -0.0161     1.3381     0.0094 O.3     
   3 O3             1.0565    -0.5939    -0.0112 O.2     
   4 C4            -1.2926    -0.7753     0.0102 C.3     
   5 C5            -0.9972    -2.2530    -0.0005 C.2     
   6 C6            -2.1292    -3.2478     0.0049 C.3     
   7 C7             0.0021    -0.0041     0.0020 C.2     
   8 H8            -1.8762    -0.5150    -0.8728 H       
   9 H9            -1.8592    -0.5245     0.9070 H       
  10 H10           -2.3923    -3.4931     1.0339 H       
  11 H11           -2.9945    -2.8163    -0.4983 H       
  12 H12           -1.8196    -4.1533    -0.5167 H       
  13 H13            0.8394     1.7888     0.0037 H       
@<TRIPOS>BOND
   1    1    5 2
   2    2    7 1
   3    2   13 1
   4    3    7 2
   5    4    5 1
   6    4    7 1
   7    4    8 1
   8    4    9 1
   9    5    6 1
  10    6   10 1
  11    6   11 1
  12    6   12 1

#	End of record

