#	Name: ASD14580004
#	Creating user name:	WinNT
#	Creation time:	15. 06. 2019 21:31

#	Modifying user name:	WinNT
#	Modification time:	15. 06. 2019 21:31

#	Program:	/corina/corina34_cracker 3.40 0067  02.08.2006

@<TRIPOS>MOLECULE
ASD14580004
  39   43    0    0    0
SMALL
NO_CHARGES


@<TRIPOS>ATOM
   1 C1            -0.0178     1.4603     0.0101 C.2     
   2 C2             0.0021    -0.0041     0.0020 C.ar    
   3 C3             1.2674    -0.6113    -0.0133 C.ar    
   4 Se4            2.5156     0.9155    -0.0163 Du      
   5 N5             1.0964     2.2059     0.0034 N.am    
   6 C6            -1.1083    -0.8792     0.0074 C.ar    
   7 C7            -0.9345    -2.2406    -0.0019 C.ar    
   8 C8             0.3306    -2.8012    -0.0165 C.ar    
   9 C9             1.4376    -1.9656    -0.0222 C.ar    
  10 O10           -1.0938     2.0256     0.0181 O.2     
  11 C11            1.2049     3.6668     0.0098 C.3     
  12 C12            2.6811     4.0687    -0.0019 C.3     
  13 C13            2.7944     5.5945     0.0047 C.3     
  14 C14            2.1013     6.1628    -1.2353 C.3     
  15 C15            0.5117     4.2351    -1.2302 C.3     
  16 C16            0.6250     5.7609    -1.2235 C.3     
  17 C17            2.1246     6.1501     1.2631 C.3     
  18 C18            0.6483     5.7483     1.2748 C.3     
  19 C19            0.5351     4.2225     1.2682 C.3     
  20 C20           -0.0448     6.3166     0.0349 C.3     
  21 H21           -2.1079    -0.4704     0.0195 H       
  22 H22           -1.8006    -2.8858     0.0025 H       
  23 H23            0.4541    -3.8741    -0.0231 H       
  24 H24            2.4325    -2.3857    -0.0338 H       
  25 H25            3.1749     3.6638     0.8814 H       
  26 H26            3.1583     3.6728    -0.8984 H       
  27 H27            3.8461     5.8808    -0.0037 H       
  28 H28            2.1820     7.2498    -1.2305 H       
  29 H29            2.5784     5.7669    -2.1318 H       
  30 H30            0.9889     3.8393    -2.1267 H       
  31 H31           -0.5400     3.9488    -1.2218 H       
  32 H32            0.1312     6.1658    -2.1069 H       
  33 H33            2.6184     5.7453     2.1465 H       
  34 H34            2.2053     7.2371     1.2678 H       
  35 H35            0.1711     6.1441     2.1713 H       
  36 H36           -0.5166     3.9362     1.2765 H       
  37 H37            1.0289     3.8176     2.1516 H       
  38 H38            0.0359     7.4036     0.0396 H       
  39 H39           -1.0965     6.0303     0.0432 H       
@<TRIPOS>BOND
   1    1    2 1
   2    1    5 am
   3    1   10 2
   4    2    3 ar
   5    2    6 ar
   6    3    4 1
   7    3    9 ar
   8    4    5 1
   9    5   11 1
  10    6    7 ar
  11    6   21 1
  12    7    8 ar
  13    7   22 1
  14    8    9 ar
  15    8   23 1
  16    9   24 1
  17   11   12 1
  18   11   15 1
  19   11   19 1
  20   12   13 1
  21   12   25 1
  22   12   26 1
  23   13   14 1
  24   13   17 1
  25   13   27 1
  26   14   16 1
  27   14   28 1
  28   14   29 1
  29   15   16 1
  30   15   30 1
  31   15   31 1
  32   16   20 1
  33   16   32 1
  34   17   18 1
  35   17   33 1
  36   17   34 1
  37   18   20 1
  38   18   19 1
  39   18   35 1
  40   19   36 1
  41   19   37 1
  42   20   38 1
  43   20   39 1

#	End of record

