#	Name: ASD10410193
#	Creating user name:	WinNT
#	Creation time:	15. 06. 2019 21:27

#	Modifying user name:	WinNT
#	Modification time:	15. 06. 2019 21:27

#	Program:	/corina/corina34_cracker 3.40 0067  02.08.2006

@<TRIPOS>MOLECULE
ASD10410193
  70   74    0    0    0
SMALL
NO_CHARGES


@<TRIPOS>ATOM
   1 C1            -3.0553     2.4155     1.1835 C.ar    
   2 C2            -2.4605     1.1746     1.0320 C.ar    
   3 C3            -1.1041     1.0712     0.8568 C.ar    
   4 C4            -0.3139     2.2047     0.8287 C.ar    
   5 C5            -0.9024     3.4551     0.9798 C.ar    
   6 C6            -2.2763     3.5565     1.1575 C.ar    
   7 N7            -0.1131     4.6079     0.9536 N.pl3   
   8 C8            -0.6552     5.8143     0.5104 C.2     
   9 N9            -0.0451     6.9748     0.5312 N.2     
  10 N10           -1.8785     5.9706    -0.0089 N.2     
  11 C11           -2.0696     7.2342    -0.3221 C.2     
  12 N12           -0.9389     7.9181    -0.0009 N.pl3   
  13 N13           -3.2137     7.7700    -0.8810 N.pl3   
  14 C14           -0.7127     9.2826    -0.1664 C.ar    
  15 C15           -3.3210    -0.0717     1.0601 C.3     
  16 C16           -3.0382    -0.8268     2.3611 C.3     
  17 C17           -1.8391    -1.7413     2.2070 C.3     
  18 C18           -0.5173    -1.0188     2.0375 C.3     
  19 C19           -0.4605    -0.2901     0.6919 C.3     
  20 O20           -2.7794     0.1151     3.4040 O.3     
  21 C21           -1.7482    -2.6352     3.4454 C.3     
  22 N22           -1.6513    10.0636    -0.6855 N.ar    
  23 C23            0.5088     9.8543     0.2184 C.ar    
  24 C24           -1.4420    11.3591    -0.8443 C.ar    
  25 N25           -0.3162    11.9381    -0.5048 N.ar    
  26 C26            0.6985    11.2278     0.0370 C.ar    
  27 C27           -0.6204    -3.6522     3.2587 C.3     
  28 Cl28          -2.7069    12.3310    -1.5293 Cl      
  29 C29            1.9662    11.6552     0.4623 C.2     
  30 C30            2.7548    10.7147     0.9577 C.2     
  31 S31            1.9537     9.1526     0.9314 S.3     
  32 C32            2.4020    13.0942     0.3606 C.3     
  33 N33           -0.5332    -4.5104     4.4477 N.3     
  34 C34           -1.7355    -5.3432     4.5853 C.3     
  35 C35            0.6795    -5.3386     4.4113 C.3     
  36 C36           -1.8025    -5.9116     6.0042 C.3     
  37 C37            1.8958    -4.4777     4.7582 C.3     
  38 H38           -4.1243     2.4917     1.3170 H       
  39 H39            0.7539     2.1197     0.6905 H       
  40 H40           -2.7355     4.5268     1.2756 H       
  41 H41            0.8117     4.5692     1.2435 H       
  42 H42           -3.9717     7.1974    -1.0770 H       
  43 H43           -3.2591     8.7189    -1.0772 H       
  44 H44           -4.3736     0.2089     1.0208 H       
  45 H45           -3.0758    -0.7054     0.2079 H       
  46 H46           -3.9115    -1.4228     2.6264 H       
  47 H47           -1.9993    -2.3778     1.3367 H       
  48 H48           -0.3995    -0.2938     2.8428 H       
  49 H49            0.2957    -1.7431     2.0870 H       
  50 H50           -1.0039    -0.8641    -0.0587 H       
  51 H51            0.5781    -0.1695     0.3841 H       
  52 H52           -3.5123     0.7219     3.5768 H       
  53 H53           -1.5423    -2.0213     4.3222 H       
  54 H54           -2.6927    -3.1614     3.5838 H       
  55 H55           -0.8263    -4.2661     2.3818 H       
  56 H56            0.3241    -3.1260     3.1202 H       
  57 H57            3.7561    10.8845     1.3251 H       
  58 H58            2.1312    13.6213     1.2755 H       
  59 H59            3.4823    13.1378     0.2224 H       
  60 H60            1.9077    13.5644    -0.4895 H       
  61 H61           -2.6211    -4.7370     4.3945 H       
  62 H62           -1.6942    -6.1623     3.8673 H       
  63 H63            0.5887    -6.1479     5.1358 H       
  64 H64            0.8037    -5.7573     3.4126 H       
  65 H65           -0.9073    -6.5011     6.2021 H       
  66 H66           -1.8642    -5.0928     6.7211 H       
  67 H67           -2.6838    -6.5458     6.1003 H       
  68 H68            2.0439    -3.7280     3.9810 H       
  69 H69            1.7289    -3.9816     5.7144 H       
  70 H70            2.7810    -5.1100     4.8265 H       
@<TRIPOS>BOND
   1    1    2 ar
   2    1    6 ar
   3    1   38 1
   4    2    3 ar
   5    2   15 1
   6    3    4 ar
   7    3   19 1
   8    4    5 ar
   9    4   39 1
  10    5    6 ar
  11    5    7 1
  12    6   40 1
  13    7    8 1
  14    7   41 1
  15    8    9 2
  16    8   10 1
  17    9   12 1
  18   10   11 2
  19   11   12 1
  20   11   13 1
  21   12   14 1
  22   13   42 1
  23   13   43 1
  24   14   22 ar
  25   14   23 ar
  26   15   16 1
  27   15   44 1
  28   15   45 1
  29   16   17 1
  30   16   20 1
  31   16   46 1
  32   17   18 1
  33   17   21 1
  34   17   47 1
  35   18   19 1
  36   18   48 1
  37   18   49 1
  38   19   50 1
  39   19   51 1
  40   20   52 1
  41   21   27 1
  42   21   53 1
  43   21   54 1
  44   22   24 ar
  45   23   26 ar
  46   23   31 1
  47   24   25 ar
  48   24   28 1
  49   25   26 ar
  50   26   29 1
  51   27   33 1
  52   27   55 1
  53   27   56 1
  54   29   30 2
  55   29   32 1
  56   30   31 1
  57   30   57 1
  58   32   58 1
  59   32   59 1
  60   32   60 1
  61   33   34 1
  62   33   35 1
  63   34   36 1
  64   34   61 1
  65   34   62 1
  66   35   37 1
  67   35   63 1
  68   35   64 1
  69   36   65 1
  70   36   66 1
  71   36   67 1
  72   37   68 1
  73   37   69 1
  74   37   70 1

#	End of record

