#	Name: ASD10160096
#	Creating user name:	WinNT
#	Creation time:	15. 06. 2019 21:25

#	Modifying user name:	WinNT
#	Modification time:	15. 06. 2019 21:25

#	Program:	/corina/corina34_cracker 3.40 0067  02.08.2006

@<TRIPOS>MOLECULE
ASD10160096
  42   43    0    0    0
SMALL
NO_CHARGES


@<TRIPOS>ATOM
   1 C1             0.1052     1.3991     0.8798 C.2     
   2 C2             0.0925    -0.0575     0.6424 C.ar    
   3 C3             0.2757    -0.9426     1.7082 C.ar    
   4 C4             0.2633    -2.3009     1.4827 C.ar    
   5 C5             0.0692    -2.7921     0.1966 C.ar    
   6 C6            -0.1129    -1.9147    -0.8664 C.ar    
   7 C7            -0.1085    -0.5553    -0.6478 C.ar    
   8 O8             0.2752     1.8304     2.0038 O.2     
   9 N9            -0.0662     2.2513    -0.1502 N.am    
  10 S10           -0.0519     3.8857     0.1162 S.o2    
  11 O11           -0.2833     4.4518    -1.1665 O.2     
  12 O12           -0.9765     4.0757     1.1784 O.2     
  13 C13            1.6382     4.2389     0.6724 C.3     
  14 O14            0.0580    -4.1312    -0.0217 O.3     
  15 C15           -1.1795    -6.1671    -0.0157 C.ar    
  16 C16           -1.1281    -4.7864     0.0902 C.ar    
  17 C17           -2.3059    -4.0783     0.3132 C.ar    
  18 C18           -3.4907    -4.7869     0.4210 C.ar    
  19 C19           -3.4645    -6.1714     0.3039 C.ar    
  20 N20           -2.3265    -6.8103     0.0926 N.ar    
  21 O21           -4.6205    -6.8759     0.4080 O.3     
  22 C22           -4.5287    -8.2960     0.2788 C.3     
  23 C23           -5.6309    -8.9561     1.1097 C.3     
  24 C24           -4.6953    -8.6862    -1.1912 C.3     
  25 Cl25          -4.9895    -3.9565     0.6995 Cl      
  26 H26            0.4272    -0.5618     2.7074 H       
  27 H27            0.4048    -2.9856     2.3058 H       
  28 H28           -0.2630    -2.3001    -1.8641 H       
  29 H29           -0.2549     0.1256    -1.4733 H       
  30 H30           -0.1978     1.9073    -1.0475 H       
  31 H31            2.3448     3.9471    -0.1044 H       
  32 H32            1.7391     5.3055     0.8734 H       
  33 H33            1.8461     3.6765     1.5827 H       
  34 H34           -0.2707    -6.7229    -0.1931 H       
  35 H35           -2.2957    -3.0019     0.4003 H       
  36 H36           -3.5547    -8.6311     0.6355 H       
  37 H37           -6.6048    -8.6210     0.7530 H       
  38 H38           -5.5608   -10.0394     1.0112 H       
  39 H39           -5.5122    -8.6781     2.1570 H       
  40 H40           -4.6253    -9.7695    -1.2898 H       
  41 H41           -5.6693    -8.3511    -1.5479 H       
  42 H42           -3.9101    -8.2160    -1.7832 H       
@<TRIPOS>BOND
   1    1    2 1
   2    1    8 2
   3    1    9 am
   4    2    3 ar
   5    2    7 ar
   6    3    4 ar
   7    3   26 1
   8    4    5 ar
   9    4   27 1
  10    5    6 ar
  11    5   14 1
  12    6    7 ar
  13    6   28 1
  14    7   29 1
  15    9   10 am
  16    9   30 1
  17   10   11 2
  18   10   12 2
  19   10   13 1
  20   13   31 1
  21   13   32 1
  22   13   33 1
  23   14   16 1
  24   15   16 ar
  25   15   20 ar
  26   15   34 1
  27   16   17 ar
  28   17   18 ar
  29   17   35 1
  30   18   19 ar
  31   18   25 1
  32   19   20 ar
  33   19   21 1
  34   21   22 1
  35   22   23 1
  36   22   24 1
  37   22   36 1
  38   23   37 1
  39   23   38 1
  40   23   39 1
  41   24   40 1
  42   24   41 1
  43   24   42 1

#	End of record

