#	Name: ASD10160084
#	Creating user name:	WinNT
#	Creation time:	15. 06. 2019 21:25

#	Modifying user name:	WinNT
#	Modification time:	15. 06. 2019 21:25

#	Program:	/corina/corina34_cracker 3.40 0067  02.08.2006

@<TRIPOS>MOLECULE
ASD10160084
  46   47    0    0    0
SMALL
NO_CHARGES


@<TRIPOS>ATOM
   1 C1            -1.9697     1.0717     0.3915 C.2     
   2 C2            -1.4369    -0.2957     0.2832 C.ar    
   3 C3            -0.7440    -0.8698     1.3606 C.ar    
   4 C4            -0.2464    -2.1571     1.2505 C.ar    
   5 C5            -0.4325    -2.8774     0.0769 C.ar    
   6 C6            -1.1182    -2.3118    -0.9919 C.ar    
   7 C7            -1.6241    -1.0325    -0.8934 C.ar    
   8 O8            -1.2844     2.0196     0.0578 O.2     
   9 N9            -3.2190     1.2734     0.8552 N.am    
  10 S10           -3.8185     2.8123     0.9771 S.o2    
  11 O11           -5.1222     2.6389     1.5154 O.2     
  12 O12           -2.8182     3.5223     1.6944 O.2     
  13 C13           -3.9105     3.3993    -0.7368 C.3     
  14 O14           -0.5620    -0.1651     2.5062 O.3     
  15 C15           -1.5696    -0.2900     3.5118 C.3     
  16 F16           -2.2948    -0.4887    -1.9324 F       
  17 F17            0.4211    -2.7133     2.2850 F       
  18 O18            0.0580    -4.1389    -0.0266 O.3     
  19 C19           -1.1531    -5.5572    -1.5091 C.ar    
  20 C20           -0.0490    -4.7689    -1.2268 C.ar    
  21 C21            0.9491    -4.6296    -2.1873 C.ar    
  22 C22            0.7980    -5.2891    -3.3955 C.ar    
  23 C23           -0.3370    -6.0624    -3.6072 C.ar    
  24 N24           -1.2646    -6.1716    -2.6715 N.ar    
  25 O25           -0.4953    -6.7129    -4.7885 O.3     
  26 C26           -1.6829    -7.4919    -4.9461 C.3     
  27 C27           -2.7891    -6.6202    -5.5439 C.3     
  28 C28           -1.4001    -8.6694    -5.8811 C.3     
  29 Cl29           2.0106    -5.1510    -4.6300 Cl      
  30 H30           -1.2587    -2.8775    -1.9011 H       
  31 H31           -3.7669     0.5173     1.1176 H       
  32 H32           -4.5723     2.7489    -1.3086 H       
  33 H33           -4.2997     4.4174    -0.7518 H       
  34 H34           -2.9147     3.3845    -1.1799 H       
  35 H35           -2.5264     0.0446     3.1109 H       
  36 H36           -1.6491    -1.3329     3.8189 H       
  37 H37           -1.3019     0.3228     4.3725 H       
  38 H38           -1.9294    -5.6737    -0.7673 H       
  39 H39            1.8205    -4.0213    -1.9947 H       
  40 H40           -2.0022    -7.8682    -3.9742 H       
  41 H41           -3.6949    -7.2144    -5.6641 H       
  42 H42           -2.9906    -5.7813    -4.8778 H       
  43 H43           -2.4698    -6.2439    -6.5158 H       
  44 H44           -0.6120    -9.2904    -5.4552 H       
  45 H45           -2.3059    -9.2636    -6.0013 H       
  46 H46           -1.0808    -8.2931    -6.8530 H       
@<TRIPOS>BOND
   1    1    2 1
   2    1    8 2
   3    1    9 am
   4    2    3 ar
   5    2    7 ar
   6    3    4 ar
   7    3   14 1
   8    4    5 ar
   9    4   17 1
  10    5    6 ar
  11    5   18 1
  12    6    7 ar
  13    6   30 1
  14    7   16 1
  15    9   10 am
  16    9   31 1
  17   10   11 2
  18   10   12 2
  19   10   13 1
  20   13   32 1
  21   13   33 1
  22   13   34 1
  23   14   15 1
  24   15   35 1
  25   15   36 1
  26   15   37 1
  27   18   20 1
  28   19   20 ar
  29   19   24 ar
  30   19   38 1
  31   20   21 ar
  32   21   22 ar
  33   21   39 1
  34   22   23 ar
  35   22   29 1
  36   23   24 ar
  37   23   25 1
  38   25   26 1
  39   26   27 1
  40   26   28 1
  41   26   40 1
  42   27   41 1
  43   27   42 1
  44   27   43 1
  45   28   44 1
  46   28   45 1
  47   28   46 1

#	End of record

