#	Name: ASD13130001
#	Creating user name:	WinNT
#	Creation time:	15. 06. 2019 21:30

#	Modifying user name:	WinNT
#	Modification time:	15. 06. 2019 21:30

#	Program:	/corina/corina34_cracker 3.40 0067  02.08.2006

@<TRIPOS>MOLECULE
ASD13130001
  60   63    0    0    0
SMALL
NO_CHARGES


@<TRIPOS>ATOM
   1 C1            -0.0158     1.3145     0.0093 C.ar    
   2 N2             0.0021    -0.0041     0.0020 N.ar    
   3 C3             1.1312    -0.6834    -0.0124 C.ar    
   4 C4             2.3547    -0.0251    -0.0201 C.ar    
   5 C5             2.3729     1.3672    -0.0128 C.ar    
   6 C6             1.1615     2.0413     0.0019 C.ar    
   7 Cl7            1.1222     3.7769     0.0110 Cl      
   8 C8             1.0950    -2.1900    -0.0201 C.3     
   9 N9             3.5493    -0.7494    -0.0344 N.pl3   
  10 C10            4.8334    -0.0444    -0.0424 C.3     
  11 C11            5.9575    -1.0480    -0.0575 C.2     
  12 C12            6.5132    -1.5475    -1.1676 C.2     
  13 C13            7.5274    -2.4513    -0.9562 C.2     
  14 C14            7.7841    -2.6757     0.3671 C.2     
  15 S15            6.6962    -1.6935     1.3384 S.3     
  16 C16            8.8060    -3.5858     0.8926 C.2     
  17 N17            8.9655    -3.7235     2.2237 N.am    
  18 O18            9.5103    -4.2172     0.1268 O.2     
  19 C19            9.9868    -4.6331     2.7489 C.3     
  20 C20            9.4274    -6.0308     2.8172 C.2     
  21 C21           10.4008    -4.1804     4.1506 C.3     
  22 C22           11.0821    -2.8132     4.0645 C.3     
  23 C23           11.3918    -2.2887     5.4775 C.3     
  24 C24           12.9228    -2.1174     5.5583 C.3     
  25 C25           13.3651    -1.9538     4.0830 C.3     
  26 C26           12.4358    -2.9424     3.3359 C.3     
  27 N27           10.1934    -7.0417     3.2728 N.am    
  28 O28            8.2878    -6.2459     2.4621 O.2     
  29 C29            9.6496    -8.4004     3.3392 C.3     
  30 C30           10.6434    -9.5625     3.2857 C.3     
  31 C31            9.9405    -9.2170     4.6000 C.3     
  32 H32           -0.9625     1.8343     0.0165 H       
  33 H33            3.3074     1.9086    -0.0181 H       
  34 H34            1.0765    -2.5477    -1.0496 H       
  35 H35            1.9809    -2.5773     0.4832 H       
  36 H36            0.2015    -2.5346     0.5004 H       
  37 H37            3.5284    -1.7192    -0.0391 H       
  38 H38            4.8966     0.5854    -0.9298 H       
  39 H39            4.9126     0.5764     0.8501 H       
  40 H40            6.1886    -1.2619    -2.1572 H       
  41 H41            8.0671    -2.9359    -1.7563 H       
  42 H42            8.4041    -3.2202     2.8341 H       
  43 H43           10.8563    -4.6215     2.0917 H       
  44 H44            9.5170    -4.1067     4.7844 H       
  45 H45           11.0940    -4.9057     4.5767 H       
  46 H46           10.4392    -2.1085     3.5372 H       
  47 H47           10.8999    -1.3290     5.6357 H       
  48 H48           11.0567    -3.0082     6.2246 H       
  49 H49           13.1772    -1.2274     6.1338 H       
  50 H50           13.3829    -3.0020     5.9986 H       
  51 H51           13.1978    -0.9326     3.7406 H       
  52 H52           14.4102    -2.2375     3.9593 H       
  53 H53           12.8172    -3.9602     3.4173 H       
  54 H54           12.3348    -2.6544     2.2895 H       
  55 H55           11.1048    -6.8697     3.5568 H       
  56 H56            8.6817    -8.5434     2.8588 H       
  57 H57           10.3292   -10.4701     2.7703 H       
  58 H58           11.7018    -9.3161     3.2011 H       
  59 H59           10.5365    -8.7432     5.3800 H       
  60 H60            9.1638    -9.8973     4.9493 H       
@<TRIPOS>BOND
   1    1    2 ar
   2    1    6 ar
   3    1   32 1
   4    2    3 ar
   5    3    4 ar
   6    3    8 1
   7    4    5 ar
   8    4    9 1
   9    5    6 ar
  10    5   33 1
  11    6    7 1
  12    8   34 1
  13    8   35 1
  14    8   36 1
  15    9   10 1
  16    9   37 1
  17   10   11 1
  18   10   38 1
  19   10   39 1
  20   11   12 2
  21   11   15 1
  22   12   13 1
  23   12   40 1
  24   13   14 2
  25   13   41 1
  26   14   15 1
  27   14   16 1
  28   16   17 am
  29   16   18 2
  30   17   19 1
  31   17   42 1
  32   19   20 1
  33   19   21 1
  34   19   43 1
  35   20   27 am
  36   20   28 2
  37   21   22 1
  38   21   44 1
  39   21   45 1
  40   22   23 1
  41   22   26 1
  42   22   46 1
  43   23   24 1
  44   23   47 1
  45   23   48 1
  46   24   25 1
  47   24   49 1
  48   24   50 1
  49   25   26 1
  50   25   51 1
  51   25   52 1
  52   26   53 1
  53   26   54 1
  54   27   29 1
  55   27   55 1
  56   29   30 1
  57   29   31 1
  58   29   56 1
  59   30   31 1
  60   30   57 1
  61   30   58 1
  62   31   59 1
  63   31   60 1

#	End of record

