#	Name: ASD11940024
#	Creating user name:	WinNT
#	Creation time:	15. 06. 2019 21:29

#	Modifying user name:	WinNT
#	Modification time:	15. 06. 2019 21:29

#	Program:	/corina/corina34_cracker 3.40 0067  02.08.2006

@<TRIPOS>MOLECULE
ASD11940024
  22   23    0    0    0
SMALL
NO_CHARGES


@<TRIPOS>ATOM
   1 Cl1            2.4153     0.7205    -2.0731 Cl      
   2 C2            -0.0184     1.5028     0.0103 C.3     
   3 C3             0.0021    -0.0041     0.0020 C.2     
   4 N4             0.0221    -0.7768     1.0556 N.2     
   5 N5             0.0356    -2.1103     0.6290 N.pl3   
   6 C6             0.0230    -2.1215    -0.7193 C.2     
   7 C7            -0.0033    -0.8248    -1.1426 C.2     
   8 C8            -0.0300    -0.3627    -2.5534 C.ar    
   9 C9            -1.1296    -0.6438    -3.3601 C.ar    
  10 C10           -1.1497    -0.2115    -4.6712 C.ar    
  11 C11           -0.0804     0.4997    -5.1843 C.ar    
  12 C12            1.0149     0.7822    -4.3881 C.ar    
  13 C13            1.0434     0.3592    -3.0736 C.ar    
  14 H14            1.0042     1.8801     0.0026 H       
  15 H15           -0.5455     1.8639    -0.8728 H       
  16 H16           -0.5286     1.8543     0.9071 H       
  17 H17            0.0515    -2.8913     1.2041 H       
  18 H18            0.0289    -2.9983    -1.3499 H       
  19 H19           -1.9653    -1.1995    -2.9610 H       
  20 H20           -2.0021    -0.4295    -5.2975 H       
  21 H21           -0.1005     0.8355    -6.2105 H       
  22 H22            1.8473     1.3380    -4.7938 H       
@<TRIPOS>BOND
   1    1   13 1
   2    2    3 1
   3    2   14 1
   4    2   15 1
   5    2   16 1
   6    3    4 2
   7    3    7 1
   8    4    5 1
   9    5    6 1
  10    5   17 1
  11    6    7 2
  12    6   18 1
  13    7    8 1
  14    8    9 ar
  15    8   13 ar
  16    9   10 ar
  17    9   19 1
  18   10   11 ar
  19   10   20 1
  20   11   12 ar
  21   11   21 1
  22   12   13 ar
  23   12   22 1

#	End of record

