#	Name: ASD10950026
#	Creating user name:	WinNT
#	Creation time:	15. 06. 2019 21:28

#	Modifying user name:	WinNT
#	Modification time:	15. 06. 2019 21:28

#	Program:	/corina/corina34_cracker 3.40 0067  02.08.2006

@<TRIPOS>MOLECULE
ASD10950026
  57   61    0    0    0
SMALL
NO_CHARGES


@<TRIPOS>ATOM
   1 N1            -0.0243     1.3971     0.3937 N.am    
   2 C2            -0.0022     0.0780     0.1179 C.2     
   3 O3             1.0542    -0.4768    -0.1141 O.2     
   4 C4            -1.2628    -0.6942     0.0974 C.ar    
   5 C5            -1.2434    -2.0603    -0.1878 C.ar    
   6 C6            -2.4233    -2.7751    -0.2048 C.ar    
   7 C7            -3.6240    -2.1406     0.0597 C.ar    
   8 C8            -3.6502    -0.7866     0.3432 C.ar    
   9 C9            -2.4769    -0.0613     0.3690 C.ar    
  10 C10           -4.9090    -2.9276     0.0384 C.3     
  11 C11           -5.4457    -3.0838     1.4420 C.2     
  12 C12           -6.6625    -2.4911     1.4632 C.2     
  13 C13           -6.9591    -1.9434     0.1224 C.2     
  14 O14           -7.9764    -1.3521    -0.1798 O.2     
  15 N15           -5.9358    -2.1968    -0.7136 N.am    
  16 C16           -5.8598    -1.8109    -2.1248 C.3     
  17 C17           -5.2184    -0.4268    -2.2412 C.3     
  18 C18           -5.1402    -0.0298    -3.6929 C.2     
  19 C19           -4.0881    -0.1944    -4.5102 C.2     
  20 N20           -4.3859     0.2858    -5.7564 N.pl3   
  21 C21           -5.6695     0.7838    -5.7717 C.ar    
  22 C22           -6.2002     0.6030    -4.4815 C.ar    
  23 C23           -7.5029     1.0189    -4.1996 C.ar    
  24 C24           -8.2565     1.6002    -5.1798 C.ar    
  25 C25           -7.7375     1.7805    -6.4548 C.ar    
  26 C26           -6.4560     1.3745    -6.7556 C.ar    
  27 O27           -7.4774    -2.4120     2.5401 O.3     
  28 C28           -4.7779    -3.7496     2.5643 C.2     
  29 O29           -4.4261    -3.1031     3.5331 O.2     
  30 C30           -4.5320    -5.2069     2.5191 C.ar    
  31 C31           -3.7939    -5.8363     3.5293 C.ar    
  32 C32           -3.5927    -7.2023     3.4401 C.ar    
  33 C33           -4.1216    -7.8962     2.3665 C.ar    
  34 N34           -4.8130    -7.2767     1.4285 N.ar    
  35 C35           -5.0366    -5.9800     1.4713 C.ar    
  36 H36            0.8028     1.9037     0.4071 H       
  37 H37           -0.8677     1.8406     0.5748 H       
  38 H38           -0.3069    -2.5567    -0.3951 H       
  39 H39           -2.4096    -3.8323    -0.4254 H       
  40 H40           -4.5907    -0.2972     0.5487 H       
  41 H41           -2.4986     0.9954     0.5908 H       
  42 H42           -4.7409    -3.9069    -0.4097 H       
  43 H43           -5.2564    -2.5379    -2.6683 H       
  44 H44           -6.8638    -1.7829    -2.5484 H       
  45 H45           -5.8219     0.3003    -1.6978 H       
  46 H46           -4.2144    -0.4548    -1.8177 H       
  47 H47           -3.1460    -0.6394    -4.2261 H       
  48 H48           -3.7825     0.2771    -6.5158 H       
  49 H49           -7.9136     0.8812    -3.2102 H       
  50 H50           -9.2641     1.9217    -4.9612 H       
  51 H51           -8.3456     2.2413    -7.2192 H       
  52 H52           -6.0613     1.5192    -7.7504 H       
  53 H53           -8.3103    -1.9511     2.3700 H       
  54 H54           -3.3919    -5.2700     4.3564 H       
  55 H55           -3.0281    -7.7215     4.2005 H       
  56 H56           -3.9659    -8.9625     2.2946 H       
  57 H57           -5.6072    -5.5088     0.6847 H       
@<TRIPOS>BOND
   1    1    2 am
   2    1   36 1
   3    1   37 1
   4    2    3 2
   5    2    4 1
   6    4    5 ar
   7    4    9 ar
   8    5    6 ar
   9    5   38 1
  10    6    7 ar
  11    6   39 1
  12    7    8 ar
  13    7   10 1
  14    8    9 ar
  15    8   40 1
  16    9   41 1
  17   10   11 1
  18   10   15 1
  19   10   42 1
  20   11   12 2
  21   11   28 1
  22   12   13 1
  23   12   27 1
  24   13   14 2
  25   13   15 am
  26   15   16 1
  27   16   17 1
  28   16   43 1
  29   16   44 1
  30   17   18 1
  31   17   45 1
  32   17   46 1
  33   18   19 2
  34   18   22 1
  35   19   20 1
  36   19   47 1
  37   20   21 1
  38   20   48 1
  39   21   22 ar
  40   21   26 ar
  41   22   23 ar
  42   23   24 ar
  43   23   49 1
  44   24   25 ar
  45   24   50 1
  46   25   26 ar
  47   25   51 1
  48   26   52 1
  49   27   53 1
  50   28   29 2
  51   28   30 1
  52   30   31 ar
  53   30   35 ar
  54   31   32 ar
  55   31   54 1
  56   32   33 ar
  57   32   55 1
  58   33   34 ar
  59   33   56 1
  60   34   35 ar
  61   35   57 1

#	End of record

