#	Name: ASD11780001
#	Creating user name:	WinNT
#	Creation time:	15. 06. 2019 21:29

#	Modifying user name:	WinNT
#	Modification time:	15. 06. 2019 21:29

#	Program:	/corina/corina34_cracker 3.40 0067  02.08.2006

@<TRIPOS>MOLECULE
ASD11780001
  55   55    0    0    0
SMALL
NO_CHARGES


@<TRIPOS>ATOM
   1 C1            -0.0167     1.3831     0.0096 C.ar    
   2 C2             0.0021    -0.0041     0.0020 C.ar    
   3 C3             1.2141    -0.6789    -0.0132 C.ar    
   4 C4             2.3989     0.0314    -0.0207 C.ar    
   5 C5             2.3774     1.4139    -0.0126 C.ar    
   6 C6             1.1708     2.0889     0.0021 C.ar    
   7 O7            -1.1648    -0.7006     0.0099 O.3     
   8 S8            -1.7101    -1.0105    -1.3769 S.o2    
   9 C9            -0.6479    -2.3457    -1.9931 C.3     
  10 O10           -3.0259    -1.4906    -1.1368 O.2     
  11 O11           -1.4892     0.1834    -2.1151 O.2     
  12 F12           -0.7408    -3.4482    -1.1370 F       
  13 F13           -1.0619    -2.7160    -3.2771 F       
  14 F14            0.6781    -1.9024    -2.0404 F       
  15 C15            3.6714     2.1863    -0.0198 C.3     
  16 N16            3.5564     3.3401     0.8757 N.am    
  17 C17            3.9682     2.6709    -1.4404 C.3     
  18 C18            4.6621     3.8769     1.4285 C.2     
  19 C19            4.5438     5.0637     2.3497 C.3     
  20 O20            5.7524     3.4049     1.1846 O.2     
  21 C21            5.9357     5.4730     2.8355 C.3     
  22 C22            5.8156     6.6779     3.7707 C.3     
  23 N23            7.1520     7.0708     4.2372 N.4     
  24 C24            7.0485     8.2972     5.0370 C.3     
  25 C25            8.4257     8.6661     5.5927 C.3     
  26 C26            9.3952     8.8938     4.4294 C.3     
  27 C27            9.4387     7.6339     3.5599 C.3     
  28 C28            8.0240     7.3033     3.0795 C.3     
  29 H29           -0.9590     1.9108     0.0170 H       
  30 H30            1.2314    -1.7588    -0.0188 H       
  31 H31            3.3426    -0.4935    -0.0325 H       
  32 H32            1.1567     3.1688     0.0084 H       
  33 H33            4.4814     1.5414     0.3207 H       
  34 H34            2.6844     3.7176     1.0708 H       
  35 H35            4.9041     3.2296    -1.4456 H       
  36 H36            4.0537     1.8125    -2.1066 H       
  37 H37            3.1581     3.3159    -1.7809 H       
  38 H38            4.0870     5.8956     1.8136 H       
  39 H39            3.9235     4.7987     3.2059 H       
  40 H40            6.3926     4.6411     3.3715 H       
  41 H41            6.5560     5.7380     1.9793 H       
  42 H42            5.3588     7.5098     3.2347 H       
  43 H43            5.1953     6.4129     4.6269 H       
  44 H44            7.5397     6.3321     4.8047 H       
  45 H45            6.6808     9.1094     4.4100 H       
  46 H46            6.3557     8.1346     5.8626 H       
  47 H47            8.3470     9.5779     6.1848 H       
  48 H48            8.7942     7.8545     6.2202 H       
  49 H49            9.0541     9.7383     3.8307 H       
  50 H50           10.3913     9.1014     4.8204 H       
  51 H51           10.0840     7.8080     2.6989 H       
  52 H52            9.8283     6.8010     4.1452 H       
  53 H53            8.0513     6.4069     2.4600 H       
  54 H54            7.6354     8.1367     2.4942 H       
  55 Cl55          15.3913    14.7383    11.2202 Cl      
@<TRIPOS>BOND
   1    1    2 ar
   2    1    6 ar
   3    1   29 1
   4    2    3 ar
   5    2    7 1
   6    3    4 ar
   7    3   30 1
   8    4    5 ar
   9    4   31 1
  10    5    6 ar
  11    5   15 1
  12    6   32 1
  13    7    8 1
  14    8    9 1
  15    8   10 2
  16    8   11 2
  17    9   12 1
  18    9   13 1
  19    9   14 1
  20   15   16 1
  21   15   17 1
  22   15   33 1
  23   16   18 am
  24   16   34 1
  25   17   35 1
  26   17   36 1
  27   17   37 1
  28   18   19 1
  29   18   20 2
  30   19   21 1
  31   19   38 1
  32   19   39 1
  33   21   22 1
  34   21   40 1
  35   21   41 1
  36   22   23 1
  37   22   42 1
  38   22   43 1
  39   23   24 1
  40   23   28 1
  41   23   44 1
  42   24   25 1
  43   24   45 1
  44   24   46 1
  45   25   26 1
  46   25   47 1
  47   25   48 1
  48   26   27 1
  49   26   49 1
  50   26   50 1
  51   27   28 1
  52   27   51 1
  53   27   52 1
  54   28   53 1
  55   28   54 1

#	End of record

