#	Name: ASD10800036
#	Creating user name:	WinNT
#	Creation time:	15. 06. 2019 21:28

#	Modifying user name:	WinNT
#	Modification time:	15. 06. 2019 21:28

#	Program:	/corina/corina34_cracker 3.40 0067  02.08.2006

@<TRIPOS>MOLECULE
ASD10800036
  47   50    0    0    0
SMALL
NO_CHARGES


@<TRIPOS>ATOM
   1 C1            -0.0171     1.4071     0.0098 C.ar    
   2 C2             0.0021    -0.0041     0.0020 C.ar    
   3 C3             1.1847    -0.6780    -0.0129 C.ar    
   4 C4             2.3900     0.0104    -0.0203 C.ar    
   5 C5             2.4011     1.3854    -0.0130 C.ar    
   6 C6             1.1981     2.0978     0.0019 C.ar    
   7 C7             3.7132     2.1265    -0.0206 C.3     
   8 C8             4.1082     2.4790     1.4149 C.3     
   9 N9             4.7488     1.2798    -0.6180 N.pl3   
  10 C10            5.3551     3.3251     1.3995 C.ar    
  11 C11            5.2551     4.7023     1.3343 C.ar    
  12 C12            6.5988     2.7244     1.4562 C.ar    
  13 C13            7.7426     3.5005     1.4420 C.ar    
  14 C14            7.6427     4.8774     1.3707 C.ar    
  15 C15            6.3989     5.4785     1.3201 C.ar    
  16 C16            9.0984     2.8457     1.5048 C.3     
  17 C17            6.2900     6.9795     1.2425 C.3     
  18 C18            4.9090     1.2494    -1.9840 C.2     
  19 N19            5.7827     0.5445    -2.6081 N.2     
  20 S20            3.9378     2.1688    -3.1397 S.3     
  21 C21            4.7945     1.5529    -4.6252 C.3     
  22 C22            5.8529     0.5978    -4.0513 C.3     
  23 S23            0.8948     3.8304     0.0140 S.3     
  24 C24           -0.8422     3.5943     0.0287 C.2     
  25 C25           -1.1538     2.3135     0.0196 C.2     
  26 H26           -0.9280    -0.5531     0.0083 H       
  27 H27            1.1852    -1.7580    -0.0187 H       
  28 H28            3.3219    -0.5355    -0.0315 H       
  29 H29            3.6105     3.0413    -0.6042 H       
  30 H30            3.2984     3.0339     1.8887 H       
  31 H31            4.2974     1.5632     1.9750 H       
  32 H32            5.3215     0.7406    -0.0504 H       
  33 H33            4.2833     5.1719     1.2942 H       
  34 H34            6.6768     1.6487     1.5118 H       
  35 H35            8.5363     5.4839     1.3600 H       
  36 H36            9.4478     2.6359     0.4938 H       
  37 H37            9.8021     3.5140     2.0010 H       
  38 H38            9.0260     1.9134     2.0649 H       
  39 H39            6.2803     7.2896     0.1975 H       
  40 H40            5.3678     7.3024     1.7257 H       
  41 H41            7.1429     7.4324     1.7480 H       
  42 H42            4.1031     1.0124    -5.2716 H       
  43 H43            5.2658     2.3739    -5.1655 H       
  44 H44            6.8436     0.9431    -4.3471 H       
  45 H45            5.6893    -0.4012    -4.4554 H       
  46 H46           -1.5653     4.3965     0.0396 H       
  47 H47           -2.1757     1.9640     0.0262 H       
@<TRIPOS>BOND
   1    1    2 ar
   2    1    6 ar
   3    1   25 1
   4    2    3 ar
   5    2   26 1
   6    3    4 ar
   7    3   27 1
   8    4    5 ar
   9    4   28 1
  10    5    6 ar
  11    5    7 1
  12    6   23 1
  13    7    8 1
  14    7    9 1
  15    7   29 1
  16    8   10 1
  17    8   30 1
  18    8   31 1
  19    9   18 1
  20    9   32 1
  21   10   11 ar
  22   10   12 ar
  23   11   15 ar
  24   11   33 1
  25   12   13 ar
  26   12   34 1
  27   13   14 ar
  28   13   16 1
  29   14   15 ar
  30   14   35 1
  31   15   17 1
  32   16   36 1
  33   16   37 1
  34   16   38 1
  35   17   39 1
  36   17   40 1
  37   17   41 1
  38   18   19 2
  39   18   20 1
  40   19   22 1
  41   20   21 1
  42   21   22 1
  43   21   42 1
  44   21   43 1
  45   22   44 1
  46   22   45 1
  47   23   24 1
  48   24   25 2
  49   24   46 1
  50   25   47 1

#	End of record

