#	Name: ASD11530006
#	Creating user name:	WinNT
#	Creation time:	15. 06. 2019 21:29

#	Modifying user name:	WinNT
#	Modification time:	15. 06. 2019 21:29

#	Program:	/corina/corina34_cracker 3.40 0067  02.08.2006

@<TRIPOS>MOLECULE
ASD11530006
  27   29    0    0    0
SMALL
NO_CHARGES


@<TRIPOS>ATOM
   1 C1            -0.1068     1.7422    -0.8917 C.ar    
   2 C2            -0.0826     0.3180    -1.3136 C.ar    
   3 C3            -1.3171    -0.4454    -1.2423 C.ar    
   4 C4            -2.4403     0.1676    -0.7954 C.ar    
   5 C5            -2.4403     1.5184    -0.4013 C.ar    
   6 C6            -1.3184     2.2897    -0.4381 C.ar    
   7 N7             1.1355     2.1182    -1.0777 N.2     
   8 O8             1.7750     1.1777    -1.5047 O.3     
   9 N9             1.1649     0.1390    -1.6629 N.2     
  10 N10           -1.3779     3.7059    -0.0105 N.pl3   
  11 O11           -1.1715     3.9999     1.1534 O.2     
  12 O12           -1.6332     4.5771    -0.8226 O.2     
  13 N13           -3.6311     2.0866     0.0477 N.pl3   
  14 C14           -4.8268     1.3712    -0.0503 C.ar    
  15 C15           -5.7204     1.3608     1.0132 C.ar    
  16 C16           -6.9035     0.6525     0.9139 C.ar    
  17 C17           -7.1984    -0.0460    -0.2434 C.ar    
  18 C18           -6.3093    -0.0381    -1.3056 C.ar    
  19 C19           -5.1270     0.6736    -1.2135 C.ar    
  20 Cl20          -8.0201     0.6390     2.2431 Cl      
  21 F21           -6.5998    -0.7215    -2.4342 F       
  22 H22           -1.3392    -1.4832    -1.5406 H       
  23 H23           -3.3601    -0.3958    -0.7407 H       
  24 H24           -3.6295     2.9789     0.4282 H       
  25 H25           -5.4910     1.9054     1.9171 H       
  26 H26           -8.1233    -0.5986    -0.3186 H       
  27 H27           -4.4338     0.6797    -2.0417 H       
@<TRIPOS>BOND
   1    1    2 ar
   2    1    7 2
   3    1    6 ar
   4    2    3 ar
   5    2    9 2
   6    3    4 ar
   7    3   22 1
   8    4    5 ar
   9    4   23 1
  10    5    6 ar
  11    5   13 1
  12    6   10 1
  13    7    8 1
  14    8    9 1
  15   10   11 2
  16   10   12 2
  17   13   14 1
  18   13   24 1
  19   14   15 ar
  20   14   19 ar
  21   15   16 ar
  22   15   25 1
  23   16   17 ar
  24   16   20 1
  25   17   18 ar
  26   17   26 1
  27   18   19 ar
  28   18   21 1
  29   19   27 1

#	End of record

