#	Name: ASD10160317
#	Creating user name:	WinNT
#	Creation time:	15. 06. 2019 21:25

#	Modifying user name:	WinNT
#	Modification time:	15. 06. 2019 21:25

#	Program:	/corina/corina34_cracker 3.40 0067  02.08.2006

@<TRIPOS>MOLECULE
ASD10160317
  35   35    0    0    0
SMALL
NO_CHARGES


@<TRIPOS>ATOM
   1 C1             3.5566     0.9848    -1.8033 C.2     
   2 C2             2.7869    -0.2010    -1.3845 C.ar    
   3 C3             3.4344    -1.4275    -1.1951 C.ar    
   4 C4             2.7092    -2.5348    -0.8030 C.ar    
   5 C5             1.3404    -2.4329    -0.5967 C.ar    
   6 C6             0.6924    -1.2148    -0.7840 C.ar    
   7 C7             1.4088    -0.1026    -1.1698 C.ar    
   8 O8             4.7559     0.8983    -1.9847 O.2     
   9 N9             2.9301     2.1634    -1.9904 N.am    
  10 S10            3.7946     3.4952    -2.4608 S.o2    
  11 O11            2.8275     4.5340    -2.5306 O.2     
  12 O12            4.8719     3.5581    -1.5363 O.2     
  13 C13            4.4018     3.0784    -4.1185 C.3     
  14 F14           -0.6402    -1.1219    -0.5822 F       
  15 F15            4.7667    -1.5274    -1.3961 F       
  16 O16            0.6310    -3.5245    -0.2116 O.3     
  17 C17            1.3349    -4.7665    -0.1483 C.3     
  18 C18            2.4369    -4.6748     0.9092 C.3     
  19 C19            0.3614    -5.8860     0.2253 C.3     
  20 C20            1.9603    -5.0683    -1.5117 C.3     
  21 H21            3.2076    -3.4817    -0.6568 H       
  22 H22            0.9057     0.8427    -1.3104 H       
  23 H23            1.9728     2.2314    -1.8496 H       
  24 H24            3.5553     2.8888    -4.7785 H       
  25 H25            4.9888     3.9092    -4.5100 H       
  26 H26            5.0262     2.1866    -4.0631 H       
  27 H27            2.0072    -4.8412     1.8970 H       
  28 H28            3.1950    -5.4323     0.7105 H       
  29 H29            2.8934    -3.6857     0.8734 H       
  30 H30           -0.4236    -5.9513    -0.5281 H       
  31 H31            0.8983    -6.8334     0.2736 H       
  32 H32           -0.0841    -5.6710     1.1966 H       
  33 H33            2.4822    -4.1834    -1.8759 H       
  34 H34            2.6673    -5.8920    -1.4128 H       
  35 H35            1.1770    -5.3445    -2.2175 H       
@<TRIPOS>BOND
   1    1    2 1
   2    1    8 2
   3    1    9 am
   4    2    3 ar
   5    2    7 ar
   6    3    4 ar
   7    3   15 1
   8    4    5 ar
   9    4   21 1
  10    5    6 ar
  11    5   16 1
  12    6    7 ar
  13    6   14 1
  14    7   22 1
  15    9   10 am
  16    9   23 1
  17   10   11 2
  18   10   12 2
  19   10   13 1
  20   13   24 1
  21   13   25 1
  22   13   26 1
  23   16   17 1
  24   17   18 1
  25   17   20 1
  26   17   19 1
  27   18   27 1
  28   18   28 1
  29   18   29 1
  30   19   30 1
  31   19   31 1
  32   19   32 1
  33   20   33 1
  34   20   34 1
  35   20   35 1

#	End of record

