#	Name: ASD10160456
#	Creating user name:	WinNT
#	Creation time:	15. 06. 2019 21:26

#	Modifying user name:	WinNT
#	Modification time:	15. 06. 2019 21:26

#	Program:	/corina/corina34_cracker 3.40 0067  02.08.2006

@<TRIPOS>MOLECULE
ASD10160456
  30   32    0    0    0
SMALL
NO_CHARGES


@<TRIPOS>ATOM
   1 C1            -0.0838     1.4462    -0.5246 C.2     
   2 C2            -0.0465    -0.0218    -0.3920 C.ar    
   3 C3             1.1452    -0.7178    -0.6263 C.ar    
   4 C4             1.1752    -2.0921    -0.5004 C.ar    
   5 C5             0.0256    -2.7835    -0.1420 C.ar    
   6 C6            -1.1620    -2.0947     0.0920 C.ar    
   7 C7            -1.2000    -0.7224    -0.0261 C.ar    
   8 O8             0.9217     2.0541    -0.8379 O.2     
   9 N9            -1.2336     2.1138    -0.3040 N.am    
  10 O10            0.0593    -4.1348    -0.0197 O.3     
  11 C11            2.2747    -4.5460     0.8241 C.2     
  12 C12            1.2616    -4.7564    -0.1396 C.2     
  13 C13            1.5052    -5.5915    -1.1914 C.2     
  14 C14            2.7532    -6.2262    -1.2997 C.2     
  15 C15            3.7089    -6.0143    -0.3711 C.2     
  16 N16            3.4806    -5.1811     0.6879 N.pl3   
  17 N17            2.3189    -3.8120     1.9267 N.2     
  18 C18            3.5171    -3.9518     2.4980 C.2     
  19 C19            4.2564    -4.7982     1.7474 C.2     
  20 F20           -2.2775    -2.7728     0.4399 F       
  21 F21            2.2640    -0.0458    -0.9754 F       
  22 H22            2.0939    -2.6303    -0.6812 H       
  23 H23           -2.1206    -0.1890     0.1595 H       
  24 H24           -2.0367     1.6285    -0.0579 H       
  25 H25           -1.2582     3.0795    -0.3912 H       
  26 H26            0.7422    -5.7634    -1.9361 H       
  27 H27            2.9490    -6.8878    -2.1306 H       
  28 H28            4.6644    -6.5086    -0.4655 H       
  29 H29            3.8406    -3.4712     3.4095 H       
  30 H30            5.2693    -5.1148     1.9478 H       
@<TRIPOS>BOND
   1    1    2 1
   2    1    8 2
   3    1    9 am
   4    2    3 ar
   5    2    7 ar
   6    3    4 ar
   7    3   21 1
   8    4    5 ar
   9    4   22 1
  10    5    6 ar
  11    5   10 1
  12    6    7 ar
  13    6   20 1
  14    7   23 1
  15    9   24 1
  16    9   25 1
  17   10   12 1
  18   11   12 1
  19   11   16 1
  20   11   17 2
  21   12   13 2
  22   13   14 1
  23   13   26 1
  24   14   15 2
  25   14   27 1
  26   15   16 1
  27   15   28 1
  28   16   19 1
  29   17   18 1
  30   18   19 2
  31   18   29 1
  32   19   30 1

#	End of record

