#	Name: ASD10950018
#	Creating user name:	WinNT
#	Creation time:	15. 06. 2019 21:28

#	Modifying user name:	WinNT
#	Modification time:	15. 06. 2019 21:28

#	Program:	/corina/corina34_cracker 3.40 0067  02.08.2006

@<TRIPOS>MOLECULE
ASD10950018
  57   61    0    0    0
SMALL
NO_CHARGES


@<TRIPOS>ATOM
   1 C1            -1.2119     1.2639     0.7125 C.3     
   2 O2            -1.0001    -0.1665     0.5797 O.3     
   3 C3            -0.2663    -0.5810    -0.4712 C.2     
   4 O4             0.1843     0.2301    -1.2551 O.2     
   5 C5            -0.0097    -2.0222    -0.6703 C.ar    
   6 C6             0.7505    -2.4553    -1.7584 C.ar    
   7 C7             0.9863    -3.8025    -1.9384 C.ar    
   8 C8             0.4714    -4.7238    -1.0435 C.ar    
   9 C9            -0.2828    -4.3014     0.0369 C.ar    
  10 C10           -0.5214    -2.9568     0.2320 C.ar    
  11 C11            0.7328    -6.1939    -1.2469 C.3     
  12 N12            1.1648    -6.8090     0.0137 N.am    
  13 C13            2.3590    -6.4511     0.7830 C.3     
  14 C14            2.0077    -5.3529     1.7887 C.3     
  15 C15            3.2362    -4.9847     2.5801 C.2     
  16 C16            3.5907    -5.4750     3.7785 C.2     
  17 N17            4.7674    -4.9074     4.1851 N.pl3   
  18 C18            5.2100    -4.0154     3.2341 C.ar    
  19 C19            4.2733    -4.0288     2.1847 C.ar    
  20 C20            4.4657    -3.2119     1.0688 C.ar    
  21 C21            5.5645    -2.4026     1.0019 C.ar    
  22 C22            6.4921    -2.3862     2.0347 C.ar    
  23 C23            6.3236    -3.1864     3.1432 C.ar    
  24 C24            0.2693    -7.7594     0.3378 C.2     
  25 O25            0.3264    -8.4629     1.3269 O.2     
  26 C26           -0.7936    -7.8209    -0.6854 C.2     
  27 C27           -0.5437    -6.8987    -1.6429 C.2     
  28 C28           -1.3562    -6.6334    -2.8360 C.2     
  29 O29           -2.4925    -6.2099    -2.7173 O.2     
  30 C30           -0.8007    -6.8778    -4.1703 C.2     
  31 C31           -1.4779    -6.7626    -5.3652 C.2     
  32 C32           -0.5621    -7.0880    -6.3761 C.2     
  33 C33            0.6118    -7.3824    -5.7724 C.2     
  34 O34            0.4661    -7.2499    -4.4477 O.3     
  35 O35           -1.8506    -8.6666    -0.6681 O.3     
  36 H36           -0.2495     1.7660     0.8110 H       
  37 H37           -1.7283     1.6384    -0.1713 H       
  38 H38           -1.8168     1.4609     1.5976 H       
  39 H39            1.1527    -1.7373    -2.4578 H       
  40 H40            1.5738    -4.1390    -2.7798 H       
  41 H41           -0.6820    -5.0258     0.7314 H       
  42 H42           -1.1102    -2.6285     1.0758 H       
  43 H43            1.4942    -6.3364    -2.0138 H       
  44 H44            2.7242    -7.3288     1.3163 H       
  45 H45            3.1327    -6.0895     0.1057 H       
  46 H46            1.6425    -4.4752     1.2555 H       
  47 H47            1.2340    -5.7145     2.4661 H       
  48 H48            3.0298    -6.2083     4.3389 H       
  49 H49            5.2220    -5.1038     5.0192 H       
  50 H50            3.7487    -3.2200     0.2612 H       
  51 H51            5.7129    -1.7710     0.1385 H       
  52 H52            7.3559    -1.7414     1.9672 H       
  53 H53            7.0508    -3.1664     3.9415 H       
  54 H54           -2.5113    -6.4779    -5.4970 H       
  55 H55           -0.7578    -7.1015    -7.4382 H       
  56 H56            1.5211    -7.6733    -6.2773 H       
  57 H57           -1.8678    -9.2590     0.0960 H       
@<TRIPOS>BOND
   1    1    2 1
   2    1   36 1
   3    1   37 1
   4    1   38 1
   5    2    3 1
   6    3    4 2
   7    3    5 1
   8    5    6 ar
   9    5   10 ar
  10    6    7 ar
  11    6   39 1
  12    7    8 ar
  13    7   40 1
  14    8    9 ar
  15    8   11 1
  16    9   10 ar
  17    9   41 1
  18   10   42 1
  19   11   12 1
  20   11   27 1
  21   11   43 1
  22   12   13 1
  23   12   24 am
  24   13   14 1
  25   13   44 1
  26   13   45 1
  27   14   15 1
  28   14   46 1
  29   14   47 1
  30   15   16 2
  31   15   19 1
  32   16   17 1
  33   16   48 1
  34   17   18 1
  35   17   49 1
  36   18   19 ar
  37   18   23 ar
  38   19   20 ar
  39   20   21 ar
  40   20   50 1
  41   21   22 ar
  42   21   51 1
  43   22   23 ar
  44   22   52 1
  45   23   53 1
  46   24   25 2
  47   24   26 1
  48   26   27 2
  49   26   35 1
  50   27   28 1
  51   28   29 2
  52   28   30 1
  53   30   31 2
  54   30   34 1
  55   31   32 1
  56   31   54 1
  57   32   33 2
  58   32   55 1
  59   33   34 1
  60   33   56 1
  61   35   57 1

#	End of record

