#	Name: ASD10410269
#	Creating user name:	WinNT
#	Creation time:	15. 06. 2019 21:27

#	Modifying user name:	WinNT
#	Modification time:	15. 06. 2019 21:27

#	Program:	/corina/corina34_cracker 3.40 0067  02.08.2006

@<TRIPOS>MOLECULE
ASD10410269
  67   73    0    0    0
SMALL
NO_CHARGES


@<TRIPOS>ATOM
   1 C1            -0.0184     1.3942    -0.0800 C.ar    
   2 C2            -0.0058     0.0095     0.0248 C.ar    
   3 C3             1.2025    -0.6691     0.1148 C.ar    
   4 C4             2.3914     0.0330     0.1002 C.ar    
   5 C5             2.3788     1.4177    -0.0049 C.ar    
   6 C6             1.1705     2.0963    -0.0950 C.ar    
   7 N7             3.5845     2.1297    -0.0193 N.pl3   
   8 C8             3.6715     3.3400    -0.7066 C.2     
   9 N9             4.7099     4.1408    -0.7075 N.2     
  10 N10            2.7106     3.8663    -1.4751 N.2     
  11 C11            3.1193     5.0135    -1.9732 C.2     
  12 N12            4.3813     5.2384    -1.5195 N.pl3   
  13 C13            5.1880     6.3391    -1.8037 C.ar    
  14 N14            2.3966     5.8404    -2.8114 N.pl3   
  15 N15           -1.2110    -0.7021     0.0400 N.3     
  16 C16           -0.9681    -2.1468     0.1566 C.3     
  17 C17           -2.3079    -2.8808     0.2498 C.3     
  18 N18           -3.1125    -2.5794    -0.9424 N.3     
  19 C19           -3.3554    -1.1348    -1.0590 C.3     
  20 C20           -2.0156    -0.4008    -1.1522 C.3     
  21 C21           -4.3774    -3.3263    -0.9264 C.3     
  22 C22           -5.2741    -2.9027    -2.1296 C.3     
  23 C23           -4.3239    -2.9623    -3.3646 C.3     
  24 C24           -4.0623    -4.4700    -3.5839 C.3     
  25 C25           -4.1157    -4.8340    -1.1458 C.3     
  26 C26           -4.8790    -5.1793    -2.4609 C.3     
  27 C27           -6.1105    -4.2134    -2.3437 C.3     
  28 N28            4.9927     7.0240    -2.9136 N.ar    
  29 C29            5.7677     8.0807    -3.1848 C.ar    
  30 C30            6.7897     8.4522    -2.2762 C.ar    
  31 N31            6.9708     7.7429    -1.1551 N.ar    
  32 C32            6.1986     6.7134    -0.9027 C.ar    
  33 C33            5.5850     8.8305    -4.3595 C.ar    
  34 C34            6.3886     9.9002    -4.6093 C.ar    
  35 C35            7.3938    10.2653    -3.7159 C.ar    
  36 C36            7.5995     9.5629    -2.5683 C.ar    
  37 H37           -0.9579     1.9216    -0.1541 H       
  38 H38            1.2122    -1.7459     0.1966 H       
  39 H39            3.3310    -0.4948     0.1710 H       
  40 H40            1.1607     3.1731    -0.1772 H       
  41 H41            4.3593     1.7812     0.4489 H       
  42 H42            1.4995     5.5910    -3.0833 H       
  43 H43            2.7862     6.6704    -3.1281 H       
  44 H44           -0.4225    -2.4957    -0.7202 H       
  45 H45           -0.3813    -2.3457     1.0534 H       
  46 H46           -2.1309    -3.9548     0.3072 H       
  47 H47           -2.8415    -2.5517     1.1414 H       
  48 H48           -3.9422    -0.9359    -1.9558 H       
  49 H49           -3.9010    -0.7859    -0.1822 H       
  50 H50           -2.1926     0.6732    -1.2096 H       
  51 H51           -1.4819    -0.7299    -2.0438 H       
  52 H52           -4.9023    -3.1630     0.0148 H       
  53 H53           -5.8340    -1.9761    -2.0036 H       
  54 H54           -4.8099    -2.5298    -4.2391 H       
  55 H55           -3.3903    -2.4418    -3.1512 H       
  56 H56           -4.4197    -4.7786    -4.5663 H       
  57 H57           -3.0001    -4.6906    -3.4784 H       
  58 H58           -3.0486    -5.0210    -1.2655 H       
  59 H59           -4.5129    -5.4137    -0.3125 H       
  60 H60           -5.0949    -6.2352    -2.6233 H       
  61 H61           -6.7325    -4.4470    -1.4796 H       
  62 H62           -6.6934    -4.1806    -3.2641 H       
  63 H63            6.3466     6.1429     0.0023 H       
  64 H64            4.8103     8.5587    -5.0612 H       
  65 H65            6.2453    10.4741    -5.5129 H       
  66 H66            8.0187    11.1179    -3.9373 H       
  67 H67            8.3823     9.8577    -1.8851 H       
@<TRIPOS>BOND
   1    1    2 ar
   2    1    6 ar
   3    1   37 1
   4    2    3 ar
   5    2   15 1
   6    3    4 ar
   7    3   38 1
   8    4    5 ar
   9    4   39 1
  10    5    6 ar
  11    5    7 1
  12    6   40 1
  13    7    8 1
  14    7   41 1
  15    8    9 2
  16    8   10 1
  17    9   12 1
  18   10   11 2
  19   11   12 1
  20   11   14 1
  21   12   13 1
  22   13   28 ar
  23   13   32 ar
  24   14   42 1
  25   14   43 1
  26   15   16 1
  27   15   20 1
  28   16   17 1
  29   16   44 1
  30   16   45 1
  31   17   18 1
  32   17   46 1
  33   17   47 1
  34   18   19 1
  35   18   21 1
  36   19   20 1
  37   19   48 1
  38   19   49 1
  39   20   50 1
  40   20   51 1
  41   21   22 1
  42   21   25 1
  43   21   52 1
  44   22   23 1
  45   22   27 1
  46   22   53 1
  47   23   24 1
  48   23   54 1
  49   23   55 1
  50   24   26 1
  51   24   56 1
  52   24   57 1
  53   25   26 1
  54   25   58 1
  55   25   59 1
  56   26   27 1
  57   26   60 1
  58   27   61 1
  59   27   62 1
  60   28   29 ar
  61   29   30 ar
  62   29   33 ar
  63   30   31 ar
  64   30   36 ar
  65   31   32 ar
  66   32   63 1
  67   33   34 ar
  68   33   64 1
  69   34   35 ar
  70   34   65 1
  71   35   36 ar
  72   35   66 1
  73   36   67 1

#	End of record

