#	Name: ASD10420009
#	Creating user name:	WinNT
#	Creation time:	15. 06. 2019 21:27

#	Modifying user name:	WinNT
#	Modification time:	15. 06. 2019 21:27

#	Program:	/corina/corina34_cracker 3.40 0067  02.08.2006

@<TRIPOS>MOLECULE
ASD10420009
  64   68    0    0    0
SMALL
NO_CHARGES


@<TRIPOS>ATOM
   1 N1            -0.1316     0.1868    -0.6390 N.pl3   
   2 C2            -0.5752    -1.0149    -1.1300 C.2     
   3 C3            -1.9807    -0.9749    -1.1769 C.2     
   4 C4            -2.3707     0.2768    -0.7034 C.2     
   5 C5            -1.2202     0.9769    -0.3721 C.2     
   6 N6             1.2421     0.4166    -0.4872 N.2     
   7 C7             2.1173    -0.4958    -0.8055 C.2     
   8 C8             1.7051    -1.7467    -1.3144 C.2     
   9 C9             0.3502    -2.0060    -1.4770 C.2     
  10 C10           -1.1750     2.3378     0.1663 C.2     
  11 N11           -1.1147     3.3922    -0.6711 N.am    
  12 C12           -1.1757     4.7689    -0.1571 C.3     
  13 C13            0.0019     5.5583    -0.7387 C.3     
  14 N14           -0.0096     5.4408    -2.2030 N.3     
  15 C15            0.1838     4.0479    -2.6274 C.3     
  16 C16           -0.9802     3.1967    -2.1226 C.3     
  17 O17           -1.1918     2.5170     1.3703 O.2     
  18 C18           -3.7861     0.7768    -0.5704 C.3     
  19 C19           -4.2850     0.5070     0.8258 C.ar    
  20 C20           -4.4399     1.5514     1.7179 C.ar    
  21 C21           -4.5928    -0.7839     1.2121 C.ar    
  22 C22           -5.0506    -1.0329     2.4928 C.ar    
  23 C23           -5.2014     0.0088     3.3879 C.ar    
  24 C24           -4.8982     1.3033     3.0004 C.ar    
  25 F25           -5.0448     2.3226     3.8749 F       
  26 C26           -4.1095     2.9595     1.2946 C.3     
  27 C27           -2.8770    -2.0583    -1.6418 C.ar    
  28 C28           -2.9412    -3.2630    -0.9414 C.ar    
  29 C29           -3.7781    -4.2686    -1.3795 C.ar    
  30 C30           -4.5527    -4.0840    -2.5110 C.ar    
  31 C31           -4.4931    -2.8917    -3.2102 C.ar    
  32 C32           -3.6647    -1.8762    -2.7786 C.ar    
  33 C33            2.7066    -2.7712    -1.6716 C.2     
  34 O34            2.3465    -3.8468    -2.1094 O.2     
  35 N35            4.0200    -2.5140    -1.5122 N.am    
  36 C36            5.0137    -3.5304    -1.8665 C.3     
  37 H37            3.1704    -0.2921    -0.6788 H       
  38 H38            0.0162    -2.9571    -1.8645 H       
  39 H39           -2.1138     5.2325    -0.4624 H       
  40 H40           -1.1069     4.7570     0.9307 H       
  41 H41           -0.0890     6.6074    -0.4572 H       
  42 H42            0.9371     5.1564    -0.3489 H       
  43 H43           -0.8601     5.8219    -2.5896 H       
  44 H44            0.2249     4.0016    -3.7156 H       
  45 H45            1.1165     3.6670    -2.2113 H       
  46 H46           -0.7846     2.1457    -2.3355 H       
  47 H47           -1.9016     3.5076    -2.6149 H       
  48 H48           -3.8125     1.8490    -0.7649 H       
  49 H49           -4.4226     0.2613    -1.2896 H       
  50 H50           -4.4760    -1.5987     0.5129 H       
  51 H51           -5.2909    -2.0420     2.7935 H       
  52 H52           -5.5596    -0.1858     4.3880 H       
  53 H53           -4.9689     3.3974     0.7869 H       
  54 H54           -3.8648     3.5553     2.1740 H       
  55 H55           -3.2560     2.9444     0.6169 H       
  56 H56           -2.3368    -3.4083    -0.0582 H       
  57 H57           -3.8285    -5.2018    -0.8383 H       
  58 H58           -5.2062    -4.8742    -2.8500 H       
  59 H59           -5.0998    -2.7537    -4.0929 H       
  60 H60           -3.6190    -0.9459    -3.3252 H       
  61 H61            4.3073    -1.6559    -1.1629 H       
  62 H62            6.0141    -3.1444    -1.6706 H       
  63 H63            4.8463    -4.4262    -1.2685 H       
  64 H64            4.9201    -3.7769    -2.9242 H       
@<TRIPOS>BOND
   1    1    2 1
   2    1    6 1
   3    1    5 1
   4    2    3 2
   5    2    9 1
   6    3    4 1
   7    3   27 1
   8    4    5 2
   9    4   18 1
  10    5   10 1
  11    6    7 2
  12    7    8 1
  13    7   37 1
  14    8    9 2
  15    8   33 1
  16    9   38 1
  17   10   11 am
  18   10   17 2
  19   11   12 1
  20   11   16 1
  21   12   13 1
  22   12   39 1
  23   12   40 1
  24   13   14 1
  25   13   41 1
  26   13   42 1
  27   14   15 1
  28   14   43 1
  29   15   16 1
  30   15   44 1
  31   15   45 1
  32   16   46 1
  33   16   47 1
  34   18   19 1
  35   18   48 1
  36   18   49 1
  37   19   20 ar
  38   19   21 ar
  39   20   26 1
  40   20   24 ar
  41   21   22 ar
  42   21   50 1
  43   22   23 ar
  44   22   51 1
  45   23   24 ar
  46   23   52 1
  47   24   25 1
  48   26   53 1
  49   26   54 1
  50   26   55 1
  51   27   28 ar
  52   27   32 ar
  53   28   29 ar
  54   28   56 1
  55   29   30 ar
  56   29   57 1
  57   30   31 ar
  58   30   58 1
  59   31   32 ar
  60   31   59 1
  61   32   60 1
  62   33   34 2
  63   33   35 am
  64   35   36 1
  65   35   61 1
  66   36   62 1
  67   36   63 1
  68   36   64 1

#	End of record

