#	Name: ASD13680032
#	Creating user name:	WinNT
#	Creation time:	15. 06. 2019 21:30

#	Modifying user name:	WinNT
#	Modification time:	15. 06. 2019 21:30

#	Program:	/corina/corina34_cracker 3.40 0067  02.08.2006

@<TRIPOS>MOLECULE
ASD13680032
  51   54    0    0    0
SMALL
NO_CHARGES


@<TRIPOS>ATOM
   1 C1            -0.0193     1.5123     0.0250 C.3     
   2 C2             0.0023    -0.0020     0.0103 C.2     
   3 C3             0.7558    -0.7679     0.8049 C.2     
   4 C4             1.7295    -0.2383     1.8435 C.3     
   5 C5             1.8869     2.2209     1.4608 C.3     
   6 C6             1.4085     2.0562     0.0211 C.3     
   7 C7             1.2753     1.1314     2.3387 C.3     
   8 C8             0.5459    -2.1873     0.5654 C.2     
   9 C9            -0.3619    -2.4431    -0.4226 C.2     
  10 S10           -0.9724    -0.9919    -1.0682 S.3     
  11 N11           -0.7344    -3.7099    -0.8415 N.am    
  12 C12            1.2407    -3.2402     1.3114 C.2     
  13 O13            0.7538    -3.6832     2.3352 O.2     
  14 N14            2.4188    -3.7179     0.8638 N.am    
  15 C15           -1.6417    -3.8540    -1.8277 C.2     
  16 C16           -2.0385    -5.2033    -2.2739 C.ar    
  17 C17           -1.4746    -6.3328    -1.6751 C.ar    
  18 C18           -1.8462    -7.5921    -2.0929 C.ar    
  19 C19           -2.7807    -7.7424    -3.1086 C.ar    
  20 C20           -3.3473    -6.6198    -3.7104 C.ar    
  21 C21           -2.9835    -5.3545    -3.2924 C.ar    
  22 O22           -2.1333    -2.8720    -2.3497 O.2     
  23 C23            3.1317    -4.6399     1.6270 C.ar    
  24 C24            4.2910    -5.2102     1.1126 C.ar    
  25 C25            4.9895    -6.1241     1.8812 C.ar    
  26 C26            4.5027    -6.4377     3.1432 C.ar    
  27 C27            3.3449    -5.8330     3.5906 C.ar    
  28 N28            2.7024    -4.9610     2.8372 N.ar    
  29 O29           -3.1433    -8.9857    -3.5171 O.3     
  30 O30           -4.2618    -6.7705    -4.7057 O.3     
  31 H31           -0.5469     1.8751    -0.8571 H       
  32 H32           -0.5355     1.8579     0.9206 H       
  33 H33            1.7728    -0.9305     2.6843 H       
  34 H34            2.7206    -0.1511     1.3983 H       
  35 H35            2.9737     2.1437     1.4924 H       
  36 H36            1.5836     3.1993     1.8336 H       
  37 H37            2.0624     1.3588    -0.5024 H       
  38 H38            1.4285     3.0229    -0.4821 H       
  39 H39            0.1881     1.1931     2.2895 H       
  40 H40            1.6003     1.2708     3.3697 H       
  41 H41           -0.3423    -4.4933    -0.4251 H       
  42 H42            2.7703    -3.4197     0.0104 H       
  43 H43           -0.7471    -6.2188    -0.8850 H       
  44 H44           -1.4092    -8.4643    -1.6294 H       
  45 H45           -3.4250    -4.4840    -3.7547 H       
  46 H46            4.6411    -4.9436     0.1263 H       
  47 H47            5.8929    -6.5835     1.5080 H       
  48 H48            5.0241    -7.1474     3.7683 H       
  49 H49            2.9625    -6.0738     4.5715 H       
  50 H50           -3.8978    -9.3531    -3.0367 H       
  51 H51           -5.1762    -6.8213    -4.3952 H       
@<TRIPOS>BOND
   1    1    2 1
   2    1    6 1
   3    1   31 1
   4    1   32 1
   5    2   10 1
   6    2    3 2
   7    3    4 1
   8    3    8 1
   9    4    7 1
  10    4   33 1
  11    4   34 1
  12    5    6 1
  13    5    7 1
  14    5   35 1
  15    5   36 1
  16    6   37 1
  17    6   38 1
  18    7   39 1
  19    7   40 1
  20    8    9 2
  21    8   12 1
  22    9   10 1
  23    9   11 1
  24   11   15 am
  25   11   41 1
  26   12   13 2
  27   12   14 am
  28   14   23 1
  29   14   42 1
  30   15   16 1
  31   15   22 2
  32   16   17 ar
  33   16   21 ar
  34   17   18 ar
  35   17   43 1
  36   18   19 ar
  37   18   44 1
  38   19   20 ar
  39   19   29 1
  40   20   21 ar
  41   20   30 1
  42   21   45 1
  43   23   24 ar
  44   23   28 ar
  45   24   25 ar
  46   24   46 1
  47   25   26 ar
  48   25   47 1
  49   26   27 ar
  50   26   48 1
  51   27   28 ar
  52   27   49 1
  53   29   50 1
  54   30   51 1

#	End of record

