#	Name: ASD10410228
#	Creating user name:	WinNT
#	Creation time:	15. 06. 2019 21:27

#	Modifying user name:	WinNT
#	Modification time:	15. 06. 2019 21:27

#	Program:	/corina/corina34_cracker 3.40 0067  02.08.2006

@<TRIPOS>MOLECULE
ASD10410228
  56   60    0    0    0
SMALL
NO_CHARGES


@<TRIPOS>ATOM
   1 C1            -0.0311     1.3860    -0.1229 C.ar    
   2 C2            -0.0094     0.0058     0.0019 C.ar    
   3 C3             1.2021    -0.6613     0.1348 C.ar    
   4 C4             2.3863     0.0519     0.1422 C.ar    
   5 C5             2.3636     1.4351     0.0167 C.ar    
   6 C6             1.1519     2.0999    -0.1156 C.ar    
   7 O7            -1.1748    -0.6960    -0.0054 O.3     
   8 F8             1.2229    -2.0066     0.2573 F       
   9 N9             3.5619     2.1585     0.0245 N.pl3   
  10 C10            3.6594     3.3538    -0.6872 C.2     
  11 N11            4.6906     4.1639    -0.6747 N.2     
  12 N12            2.7179     3.8540    -1.4959 N.2     
  13 C13            3.1317     4.9935    -2.0074 C.2     
  14 N14            4.3776     5.2400    -1.5209 N.pl3   
  15 C15            5.1820     6.3397    -1.8050 C.ar    
  16 N16            2.4277     5.7947    -2.8854 N.pl3   
  17 C17            5.8142     7.0443    -0.7583 C.ar    
  18 C18           -2.3830     0.0542    -0.1451 C.3     
  19 C19           -3.5797    -0.8991    -0.1318 C.3     
  20 N20           -3.6746    -1.5475     1.1830 N.3     
  21 C21           -4.9427    -2.2876     1.3167 C.3     
  22 C22           -4.5848    -3.7520     1.6467 C.3     
  23 C23           -3.1563    -3.6372     2.2409 C.3     
  24 C24           -2.5550    -2.4903     1.3908 C.3     
  25 N25            5.3607     6.7242    -3.0536 N.ar    
  26 C26            6.1157     7.7636    -3.3813 C.ar    
  27 C27            6.7623     8.5092    -2.4434 C.ar    
  28 C28            6.6262     8.1598    -1.0863 C.ar    
  29 C29            7.2599     8.8784    -0.0629 C.ar    
  30 C30            7.0896     8.4917     1.2326 C.ar    
  31 C31            6.2955     7.3934     1.5548 C.ar    
  32 C32            5.6623     6.6751     0.5850 C.ar    
  33 H33           -0.9730     1.9034    -0.2303 H       
  34 H34            3.3283    -0.4659     0.2459 H       
  35 H35            1.1341     3.1754    -0.2132 H       
  36 H36            4.3245     1.8284     0.5249 H       
  37 H37            1.5414     5.5310    -3.1785 H       
  38 H38            2.8197     6.6209    -3.2089 H       
  39 H39           -2.4707     0.7590     0.6817 H       
  40 H40           -2.3643     0.6007    -1.0880 H       
  41 H41           -4.4935    -0.3379    -0.3270 H       
  42 H42           -3.4479    -1.6584    -0.9027 H       
  43 H43           -5.5380    -1.8606     2.1238 H       
  44 H44           -5.4983    -2.2438     0.3800 H       
  45 H45           -5.2766    -4.1615     2.3827 H       
  46 H46           -4.5782    -4.3603     0.7422 H       
  47 H47           -3.1929    -3.3638     3.2955 H       
  48 H48           -2.5985    -4.5628     2.0983 H       
  49 H49           -2.1989    -2.8734     0.4345 H       
  50 H50           -1.7436    -2.0027     1.9312 H       
  51 H51            6.2212     8.0266    -4.4234 H       
  52 H52            7.3723     9.3512    -2.7356 H       
  53 H53            7.8784     9.7316    -0.2994 H       
  54 H54            7.5778     9.0447     2.0214 H       
  55 H55            6.1777     7.1081     2.5897 H       
  56 H56            5.0498     5.8259     0.8497 H       
@<TRIPOS>BOND
   1    1    2 ar
   2    1    6 ar
   3    1   33 1
   4    2    3 ar
   5    2    7 1
   6    3    4 ar
   7    3    8 1
   8    4    5 ar
   9    4   34 1
  10    5    6 ar
  11    5    9 1
  12    6   35 1
  13    7   18 1
  14    9   10 1
  15    9   36 1
  16   10   11 2
  17   10   12 1
  18   11   14 1
  19   12   13 2
  20   13   14 1
  21   13   16 1
  22   14   15 1
  23   15   17 ar
  24   15   25 ar
  25   16   37 1
  26   16   38 1
  27   17   28 ar
  28   17   32 ar
  29   18   19 1
  30   18   39 1
  31   18   40 1
  32   19   20 1
  33   19   41 1
  34   19   42 1
  35   20   21 1
  36   20   24 1
  37   21   22 1
  38   21   43 1
  39   21   44 1
  40   22   23 1
  41   22   45 1
  42   22   46 1
  43   23   24 1
  44   23   47 1
  45   23   48 1
  46   24   49 1
  47   24   50 1
  48   25   26 ar
  49   26   27 ar
  50   26   51 1
  51   27   28 ar
  52   27   52 1
  53   28   29 ar
  54   29   30 ar
  55   29   53 1
  56   30   31 ar
  57   30   54 1
  58   31   32 ar
  59   31   55 1
  60   32   56 1

#	End of record

