#	Name: ASD11000116
#	Creating user name:	WinNT
#	Creation time:	15. 06. 2019 21:28

#	Modifying user name:	WinNT
#	Modification time:	15. 06. 2019 21:28

#	Program:	/corina/corina34_cracker 3.40 0067  02.08.2006

@<TRIPOS>MOLECULE
ASD11000116
  59   62    0    0    0
SMALL
NO_CHARGES


@<TRIPOS>ATOM
   1 C1             0.0965     1.2854     0.1372 C.3     
   2 C2            -0.4345    -0.1191    -0.1564 C.3     
   3 N3             0.0186    -0.5444    -1.4849 N.am    
   4 C4             0.0803    -1.0786     0.8874 C.ar    
   5 C5             0.6524    -2.2876     0.5583 C.ar    
   6 C6            -0.0395    -0.7080     2.2201 C.ar    
   7 C7             1.0940    -3.1362     1.5665 C.ar    
   8 C8             0.9732    -2.7737     2.8951 C.ar    
   9 C9             0.4045    -1.5473     3.2256 C.ar    
  10 C10           -0.0864    -1.9769    -1.8082 C.3     
  11 C11            0.8424    -2.7405    -0.8657 C.3     
  12 O12            0.2851    -1.1771     4.5288 O.3     
  13 C13           -0.3089     0.0961     4.7897 C.3     
  14 O14            1.4083    -3.6112     3.8743 O.3     
  15 C15            1.9813    -4.8526     3.4588 C.3     
  16 C16            0.5110     0.3406    -2.3742 C.2     
  17 O17            0.4791     1.5307    -2.1286 O.2     
  18 C18            1.0899    -0.1360    -3.6484 C.ar    
  19 C19            1.6827    -1.3975    -3.7205 C.ar    
  20 C20            1.0408     0.6714    -4.7859 C.ar    
  21 C21            1.5828     0.2207    -5.9718 C.ar    
  22 C22            2.1742    -1.0286    -6.0350 C.ar    
  23 C23            2.2211    -1.8362    -4.9125 C.ar    
  24 O24            1.5250     1.2718     0.1012 O.3     
  25 C25            2.1595     2.4490     0.3428 C.ar    
  26 C26            1.4217     3.5935     0.6091 C.ar    
  27 C27            3.5448     2.5061     0.3291 C.ar    
  28 C28            4.1891     3.7082     0.5764 C.ar    
  29 C29            3.4465     4.8514     0.8371 C.ar    
  30 C30            2.0664     4.7909     0.8550 C.ar    
  31 O31            5.5467     3.7673     0.5641 O.3     
  32 C32            6.1432     5.0389     0.8273 C.3     
  33 H33           -0.2793     1.9802    -0.6139 H       
  34 H34           -0.2390     1.6016     1.1249 H       
  35 H35           -1.5242    -0.1075    -0.1314 H       
  36 H36           -0.4829     0.2436     2.4736 H       
  37 H37            1.5353    -4.0879     1.3097 H       
  38 H38           -1.1136    -2.3127    -1.6657 H       
  39 H39            0.2173    -2.1451    -2.8414 H       
  40 H40            1.8766    -2.5657    -1.1624 H       
  41 H41            0.6258    -3.8065    -0.9347 H       
  42 H42           -0.3435     0.2673     5.8656 H       
  43 H43            0.2851     0.8780     4.3164 H       
  44 H44           -1.3212     0.1144     4.3861 H       
  45 H45            2.2861    -5.4236     4.3358 H       
  46 H46            1.2439    -5.4218     2.8929 H       
  47 H47            2.8511    -4.6592     2.8309 H       
  48 H48            1.7203    -2.0287    -2.8449 H       
  49 H49            0.5791     1.6465    -4.7380 H       
  50 H50            1.5452     0.8442    -6.8528 H       
  51 H51            2.5967    -1.3769    -6.9659 H       
  52 H52            2.6844    -2.8101    -4.9684 H       
  53 H53            0.3427     3.5487     0.6240 H       
  54 H54            4.1209     1.6154     0.1264 H       
  55 H55            3.9480     5.7882     1.0302 H       
  56 H56            1.4903     5.6816     1.0580 H       
  57 H57            7.2285     4.9464     0.7873 H       
  58 H58            5.8119     5.7577     0.0778 H       
  59 H59            5.8440     5.3825     1.8175 H       
@<TRIPOS>BOND
   1    1    2 1
   2    1   24 1
   3    1   33 1
   4    1   34 1
   5    2    3 1
   6    2    4 1
   7    2   35 1
   8    3   10 1
   9    3   16 am
  10    4    5 ar
  11    4    6 ar
  12    5    7 ar
  13    5   11 1
  14    6    9 ar
  15    6   36 1
  16    7    8 ar
  17    7   37 1
  18    8    9 ar
  19    8   14 1
  20    9   12 1
  21   10   11 1
  22   10   38 1
  23   10   39 1
  24   11   40 1
  25   11   41 1
  26   12   13 1
  27   13   42 1
  28   13   43 1
  29   13   44 1
  30   14   15 1
  31   15   45 1
  32   15   46 1
  33   15   47 1
  34   16   17 2
  35   16   18 1
  36   18   20 ar
  37   18   19 ar
  38   19   23 ar
  39   19   48 1
  40   20   21 ar
  41   20   49 1
  42   21   22 ar
  43   21   50 1
  44   22   23 ar
  45   22   51 1
  46   23   52 1
  47   24   25 1
  48   25   26 ar
  49   25   27 ar
  50   26   30 ar
  51   26   53 1
  52   27   28 ar
  53   27   54 1
  54   28   29 ar
  55   28   31 1
  56   29   30 ar
  57   29   55 1
  58   30   56 1
  59   31   32 1
  60   32   57 1
  61   32   58 1
  62   32   59 1

#	End of record

