#	Name: ASD11000091
#	Creating user name:	WinNT
#	Creation time:	15. 06. 2019 21:28

#	Modifying user name:	WinNT
#	Modification time:	15. 06. 2019 21:28

#	Program:	/corina/corina34_cracker 3.40 0067  02.08.2006

@<TRIPOS>MOLECULE
ASD11000091
  39   40    0    0    0
SMALL
NO_CHARGES


@<TRIPOS>ATOM
   1 C1            -0.0167     1.3781     0.0096 C.ar    
   2 C2             0.0021    -0.0041     0.0020 C.ar    
   3 C3            -1.1855    -0.7115     0.0095 C.ar    
   4 C4            -2.3919    -0.0367     0.0251 C.ar    
   5 C5            -2.4106     1.3455     0.0336 C.ar    
   6 C6            -1.2230     2.0529     0.0305 C.ar    
   7 C7            -3.6866    -0.8078     0.0322 C.3     
   8 S8            -4.1890    -1.1274     1.7415 S.3     
   9 C9            -5.6849    -2.0150     1.4598 C.ar    
  10 C10            1.2780     2.1493     0.0014 C.3     
  11 C11            2.0733     1.7974    -1.2574 C.3     
  12 C12            0.9781     3.6496     0.0123 C.3     
  13 C13            2.0972     1.7840     1.2409 C.3     
  14 N14           -6.3858    -2.4448     2.4988 N.ar    
  15 C15           -7.5201    -3.1178     2.3228 C.ar    
  16 C16           -7.9658    -3.3672     1.0271 C.ar    
  17 C17           -7.2033    -2.9004    -0.0366 C.ar    
  18 N18           -6.0828    -2.2308     0.2142 N.ar    
  19 N19           -8.2480    -3.5648     3.4143 N.pl3   
  20 O20           -7.5995    -3.1212    -1.3139 O.3     
  21 H21            0.9446    -0.5313    -0.0101 H       
  22 H22           -1.1709    -1.7913     0.0029 H       
  23 H23           -3.3531     1.8728     0.0454 H       
  24 H24           -1.2376     3.1328     0.0372 H       
  25 H25           -4.4589    -0.2259    -0.4707 H       
  26 H26           -3.5482    -1.7551    -0.4890 H       
  27 H27            1.4897     2.0577    -2.1405 H       
  28 H28            3.0098     2.3552    -1.2633 H       
  29 H29            2.2870     0.7285    -1.2652 H       
  30 H30            0.4115     3.9003     0.9091 H       
  31 H31            1.9145     4.2074     0.0064 H       
  32 H32            0.3945     3.9099    -0.8707 H       
  33 H33            2.3108     0.7151     1.2331 H       
  34 H34            3.0336     2.3417     1.2350 H       
  35 H35            1.5306     2.0347     2.1377 H       
  36 H36           -8.8825    -3.9111     0.8532 H       
  37 H37           -7.9314    -3.3878     4.3139 H       
  38 H38           -9.0741    -4.0548     3.2785 H       
  39 H39           -8.1665    -2.4263    -1.6755 H       
@<TRIPOS>BOND
   1    1    2 ar
   2    1   10 1
   3    1    6 ar
   4    2    3 ar
   5    2   21 1
   6    3    4 ar
   7    3   22 1
   8    4    5 ar
   9    4    7 1
  10    5    6 ar
  11    5   23 1
  12    6   24 1
  13    7    8 1
  14    7   25 1
  15    7   26 1
  16    8    9 1
  17    9   14 ar
  18    9   18 ar
  19   10   11 1
  20   10   12 1
  21   10   13 1
  22   11   27 1
  23   11   28 1
  24   11   29 1
  25   12   30 1
  26   12   31 1
  27   12   32 1
  28   13   33 1
  29   13   34 1
  30   13   35 1
  31   14   15 ar
  32   15   16 ar
  33   15   19 1
  34   16   17 ar
  35   16   36 1
  36   17   18 ar
  37   17   20 1
  38   19   37 1
  39   19   38 1
  40   20   39 1

#	End of record

