#	Name: ASD13010026
#	Creating user name:	WinNT
#	Creation time:	15. 06. 2019 21:30

#	Modifying user name:	WinNT
#	Modification time:	15. 06. 2019 21:30

#	Program:	/corina/corina34_cracker 3.40 0067  02.08.2006

@<TRIPOS>MOLECULE
ASD13010026
  53   57    0    0    0
SMALL
NO_CHARGES


@<TRIPOS>ATOM
   1 C1             0.0124     1.3683     0.0219 C.ar    
   2 C2             0.0208     0.0057     0.0358 C.ar    
   3 C3             1.2295    -0.7024    -0.0371 C.ar    
   4 C4             2.4363    -0.0163    -0.1252 C.ar    
   5 C5             1.2106     2.0759    -0.0659 C.ar    
   6 N6             1.5168     3.4123    -0.1011 N.pl3   
   7 C7             2.4322     1.3764    -0.1403 C.ar    
   8 C8             3.4841     2.3946    -0.2217 C.2     
   9 N9             2.9033     3.5659    -0.1959 N.2     
  10 C10            0.5915     4.4535    -0.0508 C.ar    
  11 S11            5.2167     2.0943    -0.3338 S.3     
  12 C12            5.8972     3.7183    -0.3972 C.ar    
  13 C13            6.0811     4.3496    -1.6222 C.ar    
  14 C14            6.2464     4.3740     0.7779 C.ar    
  15 C15            6.7798     5.6478     0.7240 C.ar    
  16 C16            6.9665     6.2701    -0.4969 C.ar    
  17 C17            6.6152     5.6234    -1.6677 C.ar    
  18 C18           -1.2482     6.5236     0.0492 C.ar    
  19 C19           -1.5698     5.3315    -0.6071 C.ar    
  20 C20           -0.6538     4.3055    -0.6549 C.ar    
  21 C21            0.9128     5.6367     0.6082 C.ar    
  22 C22            0.0015     6.6668     0.6598 C.ar    
  23 C23           -2.2271     7.6250     0.1024 C.2     
  24 O24           -3.3145     7.4974    -0.4244 O.2     
  25 O25           -1.9156     8.7733     0.7353 O.3     
  26 C26            1.2207    -2.1786    -0.0198 C.2     
  27 O27            0.2541    -2.7858    -0.4386 O.2     
  28 N28            2.2842    -2.8533     0.4602 N.am    
  29 Cl29           5.6410     3.5385    -3.0926 Cl      
  30 Cl30           6.0120     3.5941     2.3110 Cl      
  31 C31            2.3769    -4.3130     0.6089 C.3     
  32 C32            3.7601    -4.6245     1.2184 C.3     
  33 C33            4.1468    -3.2873     1.9039 C.3     
  34 C34            3.5494    -2.2502     0.9171 C.3     
  35 H35           -0.9252     1.9016     0.0745 H       
  36 H36           -0.9121    -0.5342     0.1041 H       
  37 H37            3.3685    -0.5589    -0.1812 H       
  38 H38            7.0510     6.1579     1.6365 H       
  39 H39            7.3837     7.2656    -0.5357 H       
  40 H40            6.7586     6.1143    -2.6190 H       
  41 H41           -2.5342     5.2177    -1.0798 H       
  42 H42           -0.9013     3.3846    -1.1619 H       
  43 H43            1.8781     5.7465     1.0799 H       
  44 H44            0.2531     7.5862     1.1675 H       
  45 H45           -2.5896     9.4666     0.7437 H       
  46 H46            1.5901    -4.6686     1.2741 H       
  47 H47            2.2853    -4.7915    -0.3661 H       
  48 H48            3.6862    -5.4269     1.9524 H       
  49 H49            4.4770    -4.8791     0.4379 H       
  50 H50            3.6860    -3.2054     2.8884 H       
  51 H51            5.2296    -3.1816     1.9711 H       
  52 H52            4.2219    -2.0947     0.0735 H       
  53 H53            3.3571    -1.3072     1.4288 H       
@<TRIPOS>BOND
   1    1    2 ar
   2    1    5 ar
   3    1   35 1
   4    2    3 ar
   5    2   36 1
   6    3    4 ar
   7    3   26 1
   8    4    7 ar
   9    4   37 1
  10    5    7 ar
  11    5    6 1
  12    6    9 1
  13    6   10 1
  14    7    8 1
  15    8    9 2
  16    8   11 1
  17   10   21 ar
  18   10   20 ar
  19   11   12 1
  20   12   14 ar
  21   12   13 ar
  22   13   17 ar
  23   13   29 1
  24   14   15 ar
  25   14   30 1
  26   15   16 ar
  27   15   38 1
  28   16   17 ar
  29   16   39 1
  30   17   40 1
  31   18   19 ar
  32   18   22 ar
  33   18   23 1
  34   19   20 ar
  35   19   41 1
  36   20   42 1
  37   21   22 ar
  38   21   43 1
  39   22   44 1
  40   23   24 2
  41   23   25 1
  42   25   45 1
  43   26   27 2
  44   26   28 am
  45   28   31 1
  46   28   34 1
  47   31   32 1
  48   31   46 1
  49   31   47 1
  50   32   33 1
  51   32   48 1
  52   32   49 1
  53   33   34 1
  54   33   50 1
  55   33   51 1
  56   34   52 1
  57   34   53 1

#	End of record

