#	Name: ASD13010044
#	Creating user name:	WinNT
#	Creation time:	15. 06. 2019 21:30

#	Modifying user name:	WinNT
#	Modification time:	15. 06. 2019 21:30

#	Program:	/corina/corina34_cracker 3.40 0067  02.08.2006

@<TRIPOS>MOLECULE
ASD13010044
  38   41    0    0    0
SMALL
NO_CHARGES


@<TRIPOS>ATOM
   1 C1            -0.0166     1.3728     0.0096 C.ar    
   2 C2             0.0021    -0.0041     0.0020 C.ar    
   3 C3             1.2064    -0.6954    -0.0132 C.ar    
   4 C4             2.3946    -0.0222    -0.0205 C.ar    
   5 C5             1.1821     2.0794     0.0019 C.ar    
   6 N6             1.4974     3.4176     0.0057 N.pl3   
   7 C7             2.4007     1.3749    -0.0130 C.ar    
   8 C8             3.4597     2.3863    -0.0178 C.2     
   9 N9             2.8886     3.5604    -0.0071 N.2     
  10 C10            0.5802     4.4617     0.0195 C.ar    
  11 O11            4.7966     2.1461    -0.0307 O.3     
  12 C12            5.6369     3.2144    -0.0332 C.ar    
  13 C13            6.0517     3.7701    -1.2358 C.ar    
  14 C14            6.0776     3.7555     1.1668 C.ar    
  15 C15            6.9319     4.8425     1.1610 C.ar    
  16 C16            7.3471     5.3908    -0.0384 C.ar    
  17 C17            6.9062     4.8570    -1.2352 C.ar    
  18 C18           -1.2341     6.4909     0.0345 C.ar    
  19 C19            0.0532     6.7282     0.5410 C.ar    
  20 C20            0.9589     5.7015     0.5292 C.ar    
  21 N21           -0.6410     4.2649    -0.4577 N.ar    
  22 C22           -1.5425     5.2240    -0.4655 C.ar    
  23 C23           -2.2445     7.5649     0.0261 C.2     
  24 O24           -1.9653     8.6651     0.4598 O.2     
  25 O25           -3.4774     7.3262    -0.4624 O.3     
  26 Cl26           5.4986     3.1006    -2.7390 Cl      
  27 Cl27           5.5559     3.0685     2.6733 Cl      
  28 H28           -0.9579     1.9022     0.0169 H       
  29 H29           -0.9288    -0.5516     0.0083 H       
  30 H30            1.2033    -1.7754    -0.0190 H       
  31 H31            3.3264    -0.5679    -0.0316 H       
  32 H32            7.2751     5.2639     2.0943 H       
  33 H33            8.0140     6.2403    -0.0404 H       
  34 H34            7.2295     5.2896    -2.1705 H       
  35 H35            0.3221     7.6975     0.9341 H       
  36 H36            1.9577     5.8514     0.9118 H       
  37 H37           -2.5295     5.0286    -0.8580 H       
  38 H38           -4.1056     8.0612    -0.4469 H       
@<TRIPOS>BOND
   1    1    2 ar
   2    1    5 ar
   3    1   28 1
   4    2    3 ar
   5    2   29 1
   6    3    4 ar
   7    3   30 1
   8    4    7 ar
   9    4   31 1
  10    5    7 ar
  11    5    6 1
  12    6    9 1
  13    6   10 1
  14    7    8 1
  15    8    9 2
  16    8   11 1
  17   10   21 ar
  18   10   20 ar
  19   11   12 1
  20   12   14 ar
  21   12   13 ar
  22   13   17 ar
  23   13   26 1
  24   14   15 ar
  25   14   27 1
  26   15   16 ar
  27   15   32 1
  28   16   17 ar
  29   16   33 1
  30   17   34 1
  31   18   19 ar
  32   18   22 ar
  33   18   23 1
  34   19   20 ar
  35   19   35 1
  36   20   36 1
  37   21   22 ar
  38   22   37 1
  39   23   24 2
  40   23   25 1
  41   25   38 1

#	End of record

