#	Name: ASD13930001
#	Creating user name:	WinNT
#	Creation time:	15. 06. 2019 21:30

#	Modifying user name:	WinNT
#	Modification time:	15. 06. 2019 21:30

#	Program:	/corina/corina34_cracker 3.40 0067  02.08.2006

@<TRIPOS>MOLECULE
ASD13930001
 103  104    0    0    0
SMALL
NO_CHARGES


@<TRIPOS>ATOM
   1 S1            -0.0186     1.5178     0.0104 S.o2    
   2 S2            -3.7123    -1.5632    -7.0504 S.o2    
   3 O3             0.2712    -3.9496     2.3780 O.2     
   4 O4             1.1778    -5.1858     6.7399 O.2     
   5 O5            -4.2941    -4.5288     1.9325 O.2     
   6 O6             5.3499    -6.0180     6.6875 O.3     
   7 O7             5.0201    -2.8574     7.8314 O.2     
   8 O8             0.0021    -0.0041     0.0020 O.3     
   9 O9             8.7632    -3.0668     9.8922 O.3     
  10 O10            7.7256    -4.5930     8.6767 O.2     
  11 O11           -3.9648    -2.9345    -6.4402 O.3     
  12 O12            6.1425    -3.8467    14.2729 O.2     
  13 O13            1.4289     1.9880    -0.0009 O.3     
  14 O14           -0.5803     1.9183    -1.2319 O.2     
  15 O15           -0.5564     1.9049     1.2674 O.2     
  16 O16           -2.2074    -1.3358    -7.0404 O.3     
  17 O17           -4.0952    -1.6549    -8.4157 O.2     
  18 O18           -4.2674    -0.6148    -6.1495 O.2     
  19 N19           -2.1104    -4.7093     1.5848 N.am    
  20 N20            0.0341    -4.2856     4.5581 N.am    
  21 N21            3.1359    -4.1596     6.5536 N.am    
  22 N22            5.2828    -4.2300     9.5544 N.am    
  23 N23           -5.0586    -4.8563    -0.5917 N.3     
  24 N24            4.1027    -3.0206    14.5537 N.am    
  25 C25           -1.9971    -6.2242     3.5015 C.3     
  26 C26           -1.8419    -4.7792     3.0233 C.3     
  27 C27           -1.0059    -7.1182     2.7537 C.3     
  28 C28           -0.4364    -4.3082     3.2954 C.2     
  29 C29            1.4004    -3.8278     4.8226 C.3     
  30 C30           -3.4240    -6.7023     3.2253 C.3     
  31 C31            1.4122    -2.3029     4.9468 C.3     
  32 C32           -1.0734    -8.5384     3.3187 C.3     
  33 C33            3.6173    -4.7550     7.8026 C.3     
  34 C34            1.8955    -4.4403     6.1074 C.2     
  35 C35           -3.3768    -4.5839     1.1410 C.2     
  36 C36           -3.6531    -4.5121    -0.3387 C.3     
  37 C37            4.1930    -6.1435     7.5170 C.3     
  38 C38            1.0349    -1.6881     3.6237 C.ar    
  39 C39           -3.3771    -3.0934    -0.8408 C.3     
  40 C40            4.6901    -3.8787     8.3961 C.2     
  41 C41            6.3257    -3.3781    10.1314 C.3     
  42 C42            3.1419    -6.9940     6.8010 C.3     
  43 C43           -3.5344    -3.0512    -2.3389 C.ar    
  44 C44           -0.2921    -1.4238     3.3388 C.ar    
  45 C45            2.0167    -1.3842     2.6989 C.ar    
  46 C46            6.3913    -3.6052    11.6431 C.3     
  47 C47           -0.6405    -0.8599     2.1268 C.ar    
  48 C48            1.6735    -0.8202     1.4854 C.ar    
  49 C49            5.0844    -3.1370    12.2863 C.3     
  50 C50           -4.7662    -2.7605    -2.8956 C.ar    
  51 C51           -2.4454    -3.2977    -3.1544 C.ar    
  52 C52            0.3423    -0.5588     1.1951 C.ar    
  53 C53            7.6559    -3.7241     9.5133 C.2     
  54 C54           -4.9129    -2.7208    -4.2687 C.ar    
  55 C55           -2.5869    -3.2592    -4.5281 C.ar    
  56 C56           -3.8230    -2.9729    -5.0891 C.ar    
  57 C57            5.1490    -3.3606    13.7752 C.2     
  58 H58           -1.7973    -6.2761     4.5718 H       
  59 H59           -2.5480    -4.1423     3.5561 H       
  60 H60           -1.2608    -7.1362     1.6941 H       
  61 H61            0.0032    -6.7252     2.8781 H       
  62 H62            2.0503    -4.1305     4.0016 H       
  63 H63           -3.6238    -6.6504     2.1550 H       
  64 H64           -3.5346    -7.7318     3.5660 H       
  65 H65           -4.1301    -6.0654     3.7581 H       
  66 H66           -1.3768    -4.7534     0.9518 H       
  67 H67           -0.5319    -4.5724     5.2918 H       
  68 H68            0.6956    -1.9948     5.7081 H       
  69 H69            2.4102    -1.9692     5.2311 H       
  70 H70           -0.8185    -8.5204     4.3783 H       
  71 H71           -2.0824    -8.9314     3.1943 H       
  72 H72           -0.3672    -9.1753     2.7859 H       
  73 H73            2.7893    -4.8427     8.5061 H       
  74 H74           -3.0066    -5.2154    -0.8636 H       
  75 H75            3.7099    -3.5633     6.0478 H       
  76 H76            4.4696    -6.6224     8.4562 H       
  77 H77           -4.0834    -2.4017    -0.3817 H       
  78 H78           -2.3604    -2.8049    -0.5739 H       
  79 H79            6.0928    -2.3324     9.9309 H       
  80 H80            5.0189    -5.0469    10.0061 H       
  81 H81            2.8653    -6.5151     5.8617 H       
  82 H82            3.5521    -7.9832     6.5975 H       
  83 H83            2.2595    -7.0897     7.4337 H       
  84 H84           -5.2501    -5.8112    -0.3279 H       
  85 H85           -5.6785    -4.2183    -0.1155 H       
  86 H86           -1.0568    -1.6587     4.0644 H       
  87 H87            3.0529    -1.5875     2.9255 H       
  88 H88            6.5359    -4.6665    11.8451 H       
  89 H89            7.2245    -3.0392    12.0597 H       
  90 H90            5.7680    -6.8612     6.4656 H       
  91 H91            4.9398    -2.0757    12.0842 H       
  92 H92            4.2512    -3.7030    11.8697 H       
  93 H93           -1.6771    -0.6540     1.9046 H       
  94 H94            2.4408    -0.5826     0.7635 H       
  95 H95           -5.6145    -2.5647    -2.2565 H       
  96 H96           -1.4833    -3.5201    -2.7172 H       
  97 H97           -5.8754    -2.4941    -4.7030 H       
  98 H98           -1.7359    -3.4514    -5.1647 H       
  99 H99            9.5932    -3.3238     9.4677 H       
 100 H100           4.1443    -3.1645    15.5121 H       
 101 H101           3.3082    -2.6318    14.1557 H       
 102 H102           1.5301     2.9497     0.0033 H       
 103 H103          -1.9357    -0.4847    -7.4103 H       
@<TRIPOS>BOND
   1    1    8 1
   2    1   13 1
   3    1   14 2
   4    1   15 2
   5    2   11 1
   6    2   16 1
   7    2   17 2
   8    2   18 2
   9    3   28 2
  10    4   34 2
  11    5   35 2
  12    6   90 1
  13    6   37 1
  14    7   40 2
  15    8   52 1
  16    9   53 1
  17    9   99 1
  18   10   53 2
  19   11   56 1
  20   12   57 2
  21   13  102 1
  22   16  103 1
  23   19   35 am
  24   19   66 1
  25   19   26 1
  26   20   28 am
  27   20   67 1
  28   20   29 1
  29   21   34 am
  30   21   75 1
  31   21   33 1
  32   22   40 am
  33   22   80 1
  34   22   41 1
  35   23   84 1
  36   23   85 1
  37   23   36 1
  38   24   57 am
  39   24  100 1
  40   24  101 1
  41   25   26 1
  42   25   27 1
  43   25   30 1
  44   25   58 1
  45   26   28 1
  46   26   59 1
  47   27   32 1
  48   27   60 1
  49   27   61 1
  50   29   31 1
  51   29   34 1
  52   29   62 1
  53   30   63 1
  54   30   64 1
  55   30   65 1
  56   31   38 1
  57   31   68 1
  58   31   69 1
  59   32   70 1
  60   32   71 1
  61   32   72 1
  62   33   37 1
  63   33   40 1
  64   33   73 1
  65   35   36 1
  66   36   39 1
  67   36   74 1
  68   37   42 1
  69   37   76 1
  70   38   44 ar
  71   38   45 ar
  72   39   43 1
  73   39   77 1
  74   39   78 1
  75   41   46 1
  76   41   53 1
  77   41   79 1
  78   42   81 1
  79   42   82 1
  80   42   83 1
  81   43   50 ar
  82   43   51 ar
  83   44   47 ar
  84   44   86 1
  85   45   48 ar
  86   45   87 1
  87   46   49 1
  88   46   88 1
  89   46   89 1
  90   47   52 ar
  91   47   93 1
  92   48   52 ar
  93   48   94 1
  94   49   57 1
  95   49   91 1
  96   49   92 1
  97   50   54 ar
  98   50   95 1
  99   51   55 ar
 100   51   96 1
 101   54   56 ar
 102   54   97 1
 103   55   56 ar
 104   55   98 1

#	End of record

