#	Name: ASD13490013
#	Creating user name:	WinNT
#	Creation time:	15. 06. 2019 21:30

#	Modifying user name:	WinNT
#	Modification time:	15. 06. 2019 21:30

#	Program:	/corina/corina34_cracker 3.40 0067  02.08.2006

@<TRIPOS>MOLECULE
ASD13490013
  57   61    0    0    0
SMALL
NO_CHARGES


@<TRIPOS>ATOM
   1 C1             1.2527     0.9808    -1.4211 C.2     
   2 C2             1.3284    -0.3478    -1.2150 C.2     
   3 N3             2.2171    -0.5697    -0.2353 N.2     
   4 C4             2.6990     0.5709     0.1779 C.2     
   5 N5             2.1213     1.5696    -0.5389 N.pl3   
   6 C6             2.3671     2.9426    -0.4027 C.ar    
   7 C7             2.6543     3.7094    -1.5242 C.ar    
   8 C8             2.8969     5.0601    -1.3959 C.ar    
   9 C9             2.8536     5.6614    -0.1343 C.ar    
  10 C10            2.5639     4.8892     0.9951 C.ar    
  11 C11            2.3171     3.5367     0.8583 C.ar    
  12 C12            3.1129     7.1038     0.0048 C.2     
  13 O13            2.0300     2.7839     1.9535 O.3     
  14 C14            1.9955     3.4579     3.2131 C.3     
  15 C15            0.5492    -1.4030    -1.9570 C.3     
  16 C16            2.6873     7.9585    -0.9437 C.2     
  17 C17            1.8135     7.4852    -2.0811 C.3     
  18 C18            1.0866     8.6574    -2.7326 C.3     
  19 C19            0.7854     9.7682    -1.7266 C.3     
  20 N20            2.0448    10.2920    -1.2002 N.pl3   
  21 C21            3.0551     9.3847    -0.8994 C.2     
  22 N22            4.2456     9.7923    -0.6098 N.2     
  23 O23            4.5894    11.1595    -0.5952 O.3     
  24 C24            3.7166    12.0424    -1.2925 C.3     
  25 C25            2.2692    11.7159    -0.9617 C.3     
  26 C26            4.0152    13.4630    -0.8879 C.ar    
  27 C27            3.9036    14.4825    -1.8146 C.ar    
  28 C28            4.1775    15.7882    -1.4449 C.ar    
  29 C29            4.5637    16.0727    -0.1446 C.ar    
  30 C30            4.6750    15.0490     0.7831 C.ar    
  31 C31            4.3948    13.7454     0.4109 C.ar    
  32 F32            5.0517    15.3238     2.0511 F       
  33 F33            4.8318    17.3462     0.2181 F       
  34 F34            4.0687    16.7843    -2.3510 F       
  35 H35            0.6305     1.4854    -2.1455 H       
  36 H36            3.4336     0.6991     0.9591 H       
  37 H37            2.6881     3.2462    -2.4993 H       
  38 H38            3.1207     5.6539    -2.2698 H       
  39 H39            2.5295     5.3497     1.9714 H       
  40 H40            3.6447     7.4761     0.8679 H       
  41 H41            1.2352     4.2385     3.1868 H       
  42 H42            1.7559     2.7437     4.0008 H       
  43 H43            2.9691     3.9056     3.4124 H       
  44 H44            1.1136    -1.7227    -2.8330 H       
  45 H45            0.3802    -2.2577    -1.3020 H       
  46 H46           -0.4096    -0.9919    -2.2727 H       
  47 H47            2.4341     6.9889    -2.8272 H       
  48 H48            1.0793     6.7764    -1.6980 H       
  49 H49            1.7084     9.0610    -3.5317 H       
  50 H50            0.1491     8.3011    -3.1595 H       
  51 H51            0.2362    10.5690    -2.2217 H       
  52 H52            0.1875     9.3665    -0.9085 H       
  53 H53            3.8743    11.9336    -2.3656 H       
  54 H54            1.6059    12.3035    -1.5964 H       
  55 H55            2.0761    11.9476     0.0858 H       
  56 H56            3.6030    14.2604    -2.8278 H       
  57 H57            4.4771    12.9480     1.1345 H       
@<TRIPOS>BOND
   1    1    2 2
   2    1    5 1
   3    1   35 1
   4    2    3 1
   5    2   15 1
   6    3    4 2
   7    4    5 1
   8    4   36 1
   9    5    6 1
  10    6    7 ar
  11    6   11 ar
  12    7    8 ar
  13    7   37 1
  14    8    9 ar
  15    8   38 1
  16    9   10 ar
  17    9   12 1
  18   10   11 ar
  19   10   39 1
  20   11   13 1
  21   12   16 2
  22   12   40 1
  23   13   14 1
  24   14   41 1
  25   14   42 1
  26   14   43 1
  27   15   44 1
  28   15   45 1
  29   15   46 1
  30   16   17 1
  31   16   21 1
  32   17   18 1
  33   17   47 1
  34   17   48 1
  35   18   19 1
  36   18   49 1
  37   18   50 1
  38   19   20 1
  39   19   51 1
  40   19   52 1
  41   20   25 1
  42   20   21 1
  43   21   22 2
  44   22   23 1
  45   23   24 1
  46   24   25 1
  47   24   26 1
  48   24   53 1
  49   25   54 1
  50   25   55 1
  51   26   27 ar
  52   26   31 ar
  53   27   28 ar
  54   27   56 1
  55   28   29 ar
  56   28   34 1
  57   29   30 ar
  58   29   33 1
  59   30   31 ar
  60   30   32 1
  61   31   57 1

#	End of record

