#	Name: ASD10160554
#	Creating user name:	WinNT
#	Creation time:	15. 06. 2019 21:26

#	Modifying user name:	WinNT
#	Modification time:	15. 06. 2019 21:26

#	Program:	/corina/corina34_cracker 3.40 0067  02.08.2006

@<TRIPOS>MOLECULE
ASD10160554
  48   51    0    0    0
SMALL
NO_CHARGES


@<TRIPOS>ATOM
   1 C1             0.2255     1.4262     0.1392 C.2     
   2 C2             0.2086    -0.0441     0.0527 C.ar    
   3 C3             1.3968    -0.7706     0.2031 C.ar    
   4 C4             1.3749    -2.1480     0.1211 C.ar    
   5 C5             0.1776    -2.8127    -0.1104 C.ar    
   6 C6            -1.0050    -2.0941    -0.2607 C.ar    
   7 C7            -0.9948    -0.7198    -0.1740 C.ar    
   8 O8             1.2716     2.0111     0.3412 O.2     
   9 O9            -0.9182     2.1234    -0.0114 O.3     
  10 F10            2.5617    -0.1242     0.4274 F       
  11 O11            0.1606    -4.1673    -0.1907 O.3     
  12 C12            2.0309    -5.3419    -1.0896 C.ar    
  13 C13            1.3312    -4.8321    -0.0049 C.ar    
  14 C14            1.8453    -5.0109     1.2752 C.ar    
  15 C15            3.0432    -5.6955     1.4144 C.ar    
  16 C16            3.6822    -6.1742     0.2845 C.ar    
  17 N17            3.1668    -5.9871    -0.9148 N.ar    
  18 C18            4.9846    -6.9189     0.4262 C.3     
  19 C19            4.9339    -8.3572    -0.1156 C.3     
  20 C20            6.3453    -8.1125    -0.6750 C.3     
  21 C21            5.9926    -6.6158    -0.6949 C.3     
  22 F22            7.3680    -8.4354     0.2234 F       
  23 F23            6.5461    -8.6579    -1.9476 F       
  24 Cl24           3.7330    -5.9484     2.9873 Cl      
  25 Cl25          -2.4971    -2.9326    -0.5510 Cl      
  26 C26           -0.8278     3.4781     0.0507 C.ar    
  27 C27           -0.3727     4.1951    -1.0463 C.ar    
  28 C28           -0.2822     5.5720    -0.9808 C.ar    
  29 C29           -0.6442     6.2355     0.1770 C.ar    
  30 C30           -1.0976     5.5232     1.2719 C.ar    
  31 C31           -1.1958     4.1466     1.2093 C.ar    
  32 C32           -0.5440     7.7376     0.2458 C.3     
  33 H33            2.2900    -2.7098     0.2368 H       
  34 H34           -1.9141    -0.1642    -0.2861 H       
  35 H35            1.6381    -5.2124    -2.0873 H       
  36 H36            1.3245    -4.6257     2.1394 H       
  37 H37            5.4081    -6.8443     1.4278 H       
  38 H38            4.8994    -9.1170     0.6652 H       
  39 H39            4.1784    -8.5069    -0.8869 H       
  40 H40            5.5265    -6.2894    -1.6246 H       
  41 H41            6.8128    -5.9698    -0.3818 H       
  42 H42           -0.0891     3.6773    -1.9507 H       
  43 H43            0.0720     6.1307    -1.8346 H       
  44 H44           -1.3795     6.0437     2.1752 H       
  45 H45           -1.5543     3.5910     2.0633 H       
  46 H46           -1.4837     8.1800    -0.0849 H       
  47 H47           -0.3409     8.0415     1.2727 H       
  48 H48            0.2651     8.0778    -0.4005 H       
@<TRIPOS>BOND
   1    1    2 1
   2    1    8 2
   3    1    9 1
   4    2    3 ar
   5    2    7 ar
   6    3    4 ar
   7    3   10 1
   8    4    5 ar
   9    4   33 1
  10    5    6 ar
  11    5   11 1
  12    6    7 ar
  13    6   25 1
  14    7   34 1
  15    9   26 1
  16   11   13 1
  17   12   13 ar
  18   12   17 ar
  19   12   35 1
  20   13   14 ar
  21   14   15 ar
  22   14   36 1
  23   15   16 ar
  24   15   24 1
  25   16   17 ar
  26   16   18 1
  27   18   19 1
  28   18   21 1
  29   18   37 1
  30   19   20 1
  31   19   38 1
  32   19   39 1
  33   20   21 1
  34   20   22 1
  35   20   23 1
  36   21   40 1
  37   21   41 1
  38   26   27 ar
  39   26   31 ar
  40   27   28 ar
  41   27   42 1
  42   28   29 ar
  43   28   43 1
  44   29   30 ar
  45   29   32 1
  46   30   31 ar
  47   30   44 1
  48   31   45 1
  49   32   46 1
  50   32   47 1
  51   32   48 1

#	End of record

