#	Name: ASD11710002
#	Creating user name:	WinNT
#	Creation time:	15. 06. 2019 21:29

#	Modifying user name:	WinNT
#	Modification time:	15. 06. 2019 21:29

#	Program:	/corina/corina34_cracker 3.40 0067  02.08.2006

@<TRIPOS>MOLECULE
ASD11710002
  55   57    0    0    0
SMALL
NO_CHARGES


@<TRIPOS>ATOM
   1 C1            -0.5954     2.0480    -0.5029 C.ar    
   2 C2            -0.8012     0.7018    -0.7404 C.ar    
   3 C3             0.2670    -0.1146    -1.0617 C.ar    
   4 C4             1.5410     0.4152    -1.1459 C.ar    
   5 C5             1.7467     1.7616    -0.9093 C.ar    
   6 C6             0.6787     2.5777    -0.5866 C.ar    
   7 C7             0.0428    -1.5823    -1.3196 C.3     
   8 O8             0.9397    -2.0294    -2.3382 O.3     
   9 C9             0.2977    -2.3709    -0.0335 C.3     
  10 O10           -0.0268    -3.7463    -0.2459 O.3     
  11 C11            0.9030     4.0453    -0.3282 C.3     
  12 N12            1.1745     4.2544     1.0962 N.am    
  13 C13            2.4414     4.2108     1.5542 C.2     
  14 C14            0.0691     4.5109     2.0227 C.3     
  15 C15            2.7267     4.5254     2.9703 C.ar    
  16 O16            3.3493     3.9128     0.8030 O.2     
  17 C17            1.8154     4.1676     3.9652 C.ar    
  18 C18            3.9111     5.1764     3.3188 C.ar    
  19 C19            4.1712     5.4671     4.6421 C.ar    
  20 C20            3.2613     5.1144     5.6228 C.ar    
  21 C21            2.0877     4.4642     5.2847 C.ar    
  22 S22            3.6018     5.4883     7.3107 S.o2    
  23 N23            2.8507     6.9232     7.6560 N.am    
  24 O24            2.9424     4.4943     8.0829 O.2     
  25 O25            4.9986     5.7366     7.3927 O.2     
  26 C26            3.2193     8.0859     6.9755 C.ar    
  27 C27            4.5625     8.3927     6.7984 C.ar    
  28 C28            2.2436     8.9352     6.4693 C.ar    
  29 C29            2.6115    10.0841     5.7969 C.ar    
  30 C30            3.9495    10.3891     5.6270 C.ar    
  31 C31            4.9235     9.5432     6.1251 C.ar    
  32 H32           -1.4307     2.6867    -0.2564 H       
  33 H33           -1.7966     0.2879    -0.6746 H       
  34 H34            2.3757    -0.2228    -1.3961 H       
  35 H35            2.7422     2.1754    -0.9743 H       
  36 H36           -0.9852    -1.7411    -1.6454 H       
  37 H37            1.8743    -1.9183    -2.1159 H       
  38 H38            1.3483    -2.2841     0.2437 H       
  39 H39           -0.3238    -1.9705     0.7674 H       
  40 H40            0.1110    -4.3072     0.5297 H       
  41 H41            1.7538     4.3917    -0.9149 H       
  42 H42            0.0124     4.6049    -0.6142 H       
  43 H43           -0.2796     3.5673     2.4424 H       
  44 H44            0.4127     5.1614     2.8270 H       
  45 H45           -0.7482     4.9949     1.4881 H       
  46 H46            0.8990     3.6601     3.7025 H       
  47 H47            4.6226     5.4516     2.5543 H       
  48 H48            5.0873     5.9708     4.9131 H       
  49 H49            1.3834     4.1879     6.0554 H       
  50 H50            2.1548     6.9563     8.3309 H       
  51 H51            5.3237     7.7325     7.1871 H       
  52 H52            1.1984     8.6972     6.6010 H       
  53 H53            1.8534    10.7448     5.4031 H       
  54 H54            4.2345    11.2878     5.1002 H       
  55 H55            5.9676     9.7823     5.9870 H       
@<TRIPOS>BOND
   1    1    2 ar
   2    1    6 ar
   3    1   32 1
   4    2    3 ar
   5    2   33 1
   6    3    4 ar
   7    3    7 1
   8    4    5 ar
   9    4   34 1
  10    5    6 ar
  11    5   35 1
  12    6   11 1
  13    7    8 1
  14    7    9 1
  15    7   36 1
  16    8   37 1
  17    9   10 1
  18    9   38 1
  19    9   39 1
  20   10   40 1
  21   11   12 1
  22   11   41 1
  23   11   42 1
  24   12   13 am
  25   12   14 1
  26   13   15 1
  27   13   16 2
  28   14   43 1
  29   14   44 1
  30   14   45 1
  31   15   18 ar
  32   15   17 ar
  33   17   21 ar
  34   17   46 1
  35   18   19 ar
  36   18   47 1
  37   19   20 ar
  38   19   48 1
  39   20   21 ar
  40   20   22 1
  41   21   49 1
  42   22   23 am
  43   22   24 2
  44   22   25 2
  45   23   26 1
  46   23   50 1
  47   26   28 ar
  48   26   27 ar
  49   27   31 ar
  50   27   51 1
  51   28   29 ar
  52   28   52 1
  53   29   30 ar
  54   29   53 1
  55   30   31 ar
  56   30   54 1
  57   31   55 1

#	End of record

