#	Name: ASD10420179
#	Creating user name:	WinNT
#	Creation time:	15. 06. 2019 21:27

#	Modifying user name:	WinNT
#	Modification time:	15. 06. 2019 21:27

#	Program:	/corina/corina34_cracker 3.40 0067  02.08.2006

@<TRIPOS>MOLECULE
ASD10420179
  26   27    0    0    0
SMALL
NO_CHARGES


@<TRIPOS>ATOM
   1 Cl1           -4.0064     2.6003     5.1384 Cl      
   2 Cl2           -3.6459     3.7076    -0.1364 Cl      
   3 C3            -0.0316     1.3653     0.0044 C.ar    
   4 C4            -0.0400    -0.0216    -0.1466 C.ar    
   5 C5             1.1496    -0.7213    -0.1670 C.ar    
   6 C6             2.3635    -0.0352    -0.0363 C.ar    
   7 C7             2.3636     1.3568     0.1144 C.ar    
   8 C8             1.1725     2.0467     0.1342 C.ar    
   9 O9            -1.2024     2.0515     0.0189 O.3     
  10 C10           -1.8529     2.1786     1.2055 C.ar    
  11 C11           -3.0182     2.9294     1.2827 C.ar    
  12 C12           -3.6778     3.0571     2.4909 C.ar    
  13 C13           -3.1770     2.4376     3.6221 C.ar    
  14 C14           -2.0156     1.6889     3.5467 C.ar    
  15 C15           -1.3565     1.5535     2.3403 C.ar    
  16 C16            3.6326    -0.7738    -0.0567 C.2     
  17 O17            4.6830    -0.1778     0.0567 O.2     
  18 O18           -1.2207    -0.6845    -0.2733 O.3     
  19 H19            1.1443    -1.7950    -0.2831 H       
  20 H20            3.2978     1.8891     0.2158 H       
  21 H21            1.1738     3.1204     0.2505 H       
  22 H22           -4.5843     3.6410     2.5519 H       
  23 H23           -1.6265     1.2062     4.4311 H       
  24 H24           -0.4526     0.9653     2.2814 H       
  25 H25            3.6307    -1.8475    -0.1727 H       
  26 H26           -1.5216    -0.7809    -1.1872 H       
@<TRIPOS>BOND
   1    1   13 1
   2    2   11 1
   3    3    4 ar
   4    3    8 ar
   5    3    9 1
   6    4    5 ar
   7    4   18 1
   8    5    6 ar
   9    5   19 1
  10    6    7 ar
  11    6   16 1
  12    7    8 ar
  13    7   20 1
  14    8   21 1
  15    9   10 1
  16   10   11 ar
  17   10   15 ar
  18   11   12 ar
  19   12   13 ar
  20   12   22 1
  21   13   14 ar
  22   14   15 ar
  23   14   23 1
  24   15   24 1
  25   16   17 2
  26   16   25 1
  27   18   26 1

#	End of record

