#	Name: ASD10610073
#	Creating user name:	WinNT
#	Creation time:	15. 06. 2019 21:27

#	Modifying user name:	WinNT
#	Modification time:	15. 06. 2019 21:27

#	Program:	/corina/corina34_cracker 3.40 0067  02.08.2006

@<TRIPOS>MOLECULE
ASD10610073
  49   53    0    0    0
SMALL
NO_CHARGES


@<TRIPOS>ATOM
   1 C1            -0.0168     1.3895     0.0097 C.ar    
   2 C2             0.0021    -0.0041     0.0020 C.ar    
   3 C3             1.2367    -0.6591    -0.0136 C.ar    
   4 C4             2.3904     0.1068    -0.0206 C.ar    
   5 C5             2.2915     1.4867    -0.0118 C.ar    
   6 N6             1.1059     2.0748     0.0026 N.ar    
   7 C7             3.8453    -0.3058    -0.0377 C.3     
   8 C8             4.6169     0.9566    -0.4777 C.3     
   9 C9             3.6796     2.0942    -0.0209 C.3     
  10 C10           -1.2631    -0.7768     0.0107 C.ar    
  11 C11           -1.4661    -1.7962    -0.9143 C.ar    
  12 C12           -2.6469    -2.5147    -0.9041 C.ar    
  13 C13           -3.6339    -2.2268     0.0235 C.ar    
  14 C14           -3.4483    -1.2172     0.9502 C.ar    
  15 C15           -2.2601    -0.4875     0.9562 C.ar    
  16 F16           -4.4153    -0.9416     1.8524 F       
  17 Cl17          -2.8942    -3.7850    -2.0613 Cl      
  18 C18           -2.0557     0.5955     1.9469 C.2     
  19 N19           -2.9307     0.9862     2.9018 N.2     
  20 C20           -2.3396     1.9643     3.5414 C.2     
  21 O21           -1.1434     2.1417     2.9717 O.3     
  22 N22           -0.9928     1.3494     2.0658 N.2     
  23 C23           -2.9027     2.7441     4.7016 C.3     
  24 N24            3.7389     3.2119    -0.9662 N.am    
  25 C25            3.4342     4.4588    -0.5554 C.2     
  26 O26            3.1110     4.6557     0.5968 O.2     
  27 C27            3.4952     5.6085    -1.5279 C.3     
  28 N28            3.6849     5.2374    -2.9365 N.3     
  29 C29            2.6262     6.8321    -1.2305 C.3     
  30 C30            4.1439     6.9077    -1.0460 C.3     
  31 H31           -0.9622     1.9116     0.0170 H       
  32 H32            1.2897    -1.7378    -0.0196 H       
  33 H33            4.1626    -0.6153     0.9581 H       
  34 H34            4.0012    -1.1132    -0.7532 H       
  35 H35            5.5789     1.0195     0.0308 H       
  36 H36            4.7476     0.9732    -1.5597 H       
  37 H37            3.9520     2.4297     0.9798 H       
  38 H38           -0.7008    -2.0260    -1.6409 H       
  39 H39           -4.5534    -2.7933     0.0230 H       
  40 H40           -2.6268     2.2552     5.6359 H       
  41 H41           -2.4997     3.7567     4.6885 H       
  42 H42           -3.9889     2.7841     4.6194 H       
  43 H43            3.9974     3.0544    -1.8878 H       
  44 H44            4.2727     4.4215    -3.0195 H       
  45 H45            2.7978     5.0923    -3.3948 H       
  46 H46            2.1956     7.3621    -2.0801 H       
  47 H47            2.0104     6.8056    -0.3315 H       
  48 H48            4.5263     6.9310    -0.0255 H       
  49 H49            4.7112     7.4873    -1.7742 H       
@<TRIPOS>BOND
   1    1    2 ar
   2    1    6 ar
   3    1   31 1
   4    2    3 ar
   5    2   10 1
   6    3    4 ar
   7    3   32 1
   8    4    5 ar
   9    4    7 1
  10    5    6 ar
  11    5    9 1
  12    7    8 1
  13    7   33 1
  14    7   34 1
  15    8    9 1
  16    8   35 1
  17    8   36 1
  18    9   24 1
  19    9   37 1
  20   10   11 ar
  21   10   15 ar
  22   11   12 ar
  23   11   38 1
  24   12   13 ar
  25   12   17 1
  26   13   14 ar
  27   13   39 1
  28   14   15 ar
  29   14   16 1
  30   15   18 1
  31   18   19 1
  32   18   22 2
  33   19   20 2
  34   20   21 1
  35   20   23 1
  36   21   22 1
  37   23   40 1
  38   23   41 1
  39   23   42 1
  40   24   25 am
  41   24   43 1
  42   25   26 2
  43   25   27 1
  44   27   28 1
  45   27   29 1
  46   27   30 1
  47   28   44 1
  48   28   45 1
  49   29   30 1
  50   29   46 1
  51   29   47 1
  52   30   48 1
  53   30   49 1

#	End of record

