#	Name: ASD15170002
#	Creating user name:	WinNT
#	Creation time:	15. 06. 2019 21:31

#	Modifying user name:	WinNT
#	Modification time:	15. 06. 2019 21:31

#	Program:	/corina/corina34_cracker 3.40 0067  02.08.2006

@<TRIPOS>MOLECULE
ASD15170002
  59   62    0    0    0
SMALL
NO_CHARGES


@<TRIPOS>ATOM
   1 C1             1.4173     1.6225    -1.7784 C.3     
   2 C2            -0.5989     1.1575     0.2957 C.3     
   3 C3            -3.3669    -1.2994    -6.0454 C.ar    
   4 C4            -4.6215    -0.6682    -8.4399 C.ar    
   5 C5            -3.4889    -1.4875    -8.4333 C.ar    
   6 C6            -2.8694    -1.7989    -7.2431 C.ar    
   7 C7            -6.3365     1.8684    -4.0426 C.ar    
   8 C8            -0.2934    -4.0456    -3.4717 C.ar    
   9 C9             0.4498    -4.2572    -2.3214 C.ar    
  10 C10            0.3327    -3.3475    -1.2818 C.ar    
  11 C11           -0.5162    -2.2615    -1.4218 C.ar    
  12 N12           -1.2103    -2.0845    -2.5249 N.ar    
  13 C13           -1.1275    -2.9318    -3.5432 C.ar    
  14 C14           -0.6464    -1.2697    -0.2946 C.3     
  15 C15           -0.3460     0.1370    -0.8158 C.3     
  16 C16            1.1168     0.2158    -1.2573 C.3     
  17 C17            1.1644     2.6430    -0.6669 C.3     
  18 C18           -0.2984     2.5643    -0.2254 C.3     
  19 C19           -1.9239    -2.6880    -4.7681 C.2     
  20 O20           -1.8481    -3.4578    -5.7054 O.2     
  21 N21           -2.7325    -1.6124    -4.8432 N.am    
  22 C22           -4.4985    -0.4792    -6.0442 C.ar    
  23 C23           -5.1240    -0.1644    -7.2368 C.ar    
  24 C24           -5.2851    -0.3358    -9.7142 C.2     
  25 O25           -4.7998    -0.8220   -10.8734 O.3     
  26 O26           -6.2695     0.3765    -9.7188 O.2     
  27 N27           -4.9984     0.0225    -4.8375 N.pl3   
  28 C28           -6.2077     0.7243    -4.8197 C.ar    
  29 C29           -7.5339     2.5564    -4.0217 C.ar    
  30 C30           -8.6055     2.1063    -4.7744 C.ar    
  31 C31           -8.4792     0.9662    -5.5502 C.ar    
  32 C32           -7.2821     0.2781    -5.5786 C.ar    
  33 F33           -9.7759     2.7807    -4.7521 F       
  34 H34            2.4594     1.6786    -2.0929 H       
  35 H35            0.7693     1.8416    -2.6271 H       
  36 H36           -1.6410     1.1014     0.6102 H       
  37 H37            0.0490     0.9384     1.1444 H       
  38 H38           -3.0997    -1.8774    -9.3622 H       
  39 H39           -1.9947    -2.4324    -7.2406 H       
  40 H40           -5.5025     2.2171    -3.4517 H       
  41 H41           -0.2237    -4.7318    -4.3027 H       
  42 H42            1.1047    -5.1117    -2.2364 H       
  43 H43            0.8979    -3.4839    -0.3717 H       
  44 H44           -1.6613    -1.3013     0.1017 H       
  45 H45            0.0603    -1.5230     0.4956 H       
  46 H46           -0.9939     0.3562    -1.6645 H       
  47 H47            1.2970    -0.5113    -2.0491 H       
  48 H48            1.7647    -0.0034    -0.4086 H       
  49 H49            1.8123     2.4239     0.1818 H       
  50 H50            1.3784     3.6452    -1.0382 H       
  51 H51           -0.9464     2.7834    -1.0741 H       
  52 H52           -0.4786     3.2913     0.5664 H       
  53 H53           -2.8732    -1.0559    -4.0613 H       
  54 H54           -5.9986     0.4692    -7.2386 H       
  55 H55           -5.2686    -0.5767   -11.6829 H       
  56 H56           -4.5061    -0.1164    -4.0134 H       
  57 H57           -7.6347     3.4456    -3.4171 H       
  58 H58           -9.3166     0.6166    -6.1358 H       
  59 H59           -7.1841    -0.6110    -6.1838 H       
@<TRIPOS>BOND
   1    1   16 1
   2    1   34 1
   3    1   35 1
   4    1   17 1
   5    2   15 1
   6    2   36 1
   7    2   37 1
   8    2   18 1
   9    3   22 ar
  10    3    6 ar
  11    3   21 1
  12    4   23 ar
  13    4   24 1
  14    4    5 ar
  15    5   38 1
  16    5    6 ar
  17    6   39 1
  18    7   28 ar
  19    7   40 1
  20    7   29 ar
  21    8   13 ar
  22    8   41 1
  23    8    9 ar
  24    9   10 ar
  25    9   42 1
  26   10   11 ar
  27   10   43 1
  28   11   12 ar
  29   11   14 1
  30   12   13 ar
  31   13   19 1
  32   14   44 1
  33   14   45 1
  34   14   15 1
  35   15   46 1
  36   15   16 1
  37   16   47 1
  38   16   48 1
  39   17   49 1
  40   17   50 1
  41   17   18 1
  42   18   51 1
  43   18   52 1
  44   19   21 am
  45   19   20 2
  46   21   53 1
  47   22   23 ar
  48   22   27 1
  49   23   54 1
  50   24   25 1
  51   24   26 2
  52   25   55 1
  53   27   56 1
  54   27   28 1
  55   28   32 ar
  56   29   30 ar
  57   29   57 1
  58   30   31 ar
  59   30   33 1
  60   31   32 ar
  61   31   58 1
  62   32   59 1

#	End of record

