#	Name: ASD11000198
#	Creating user name:	WinNT
#	Creation time:	15. 06. 2019 21:28

#	Modifying user name:	WinNT
#	Modification time:	15. 06. 2019 21:28

#	Program:	/corina/corina34_cracker 3.40 0067  02.08.2006

@<TRIPOS>MOLECULE
ASD11000198
  80   83    0    0    0
SMALL
NO_CHARGES


@<TRIPOS>ATOM
   1 C1             1.6517     2.7352     0.2108 C.3     
   2 C2             2.1274     1.2842     0.1841 C.3     
   3 C3             3.3084     1.0211     1.1081 C.3     
   4 C4             4.5428     1.8044     0.6486 C.3     
   5 C5             4.0649     2.9704    -0.2002 C.2     
   6 C6             2.8309     3.6932     0.2766 C.3     
   7 C7             2.5864     4.9609    -0.5539 C.3     
   8 C8             4.7213     3.2781    -1.2754 C.2     
   9 C9             4.3071     4.3751    -2.2176 C.3     
  10 C10            2.7992     4.6062    -2.0281 C.3     
  11 C11            0.7571     6.6251    -1.2392 C.3     
  12 C12            1.1956     5.5052    -0.2842 C.3     
  13 C13            1.8340     6.9453    -2.2391 C.3     
  14 C14            1.4340     7.8303    -3.4338 C.3     
  15 C15            2.2714     5.6496    -2.9575 C.3     
  16 C16            3.2242     6.2117    -4.0257 C.3     
  17 C17            2.3835     7.3979    -4.5833 C.3     
  18 O18            2.9772     1.3334     2.4572 O.3     
  19 C19            3.0459     4.1472     1.7211 C.3     
  20 C20            3.0047     7.6689    -1.5612 C.3     
  21 C21           -0.0182     7.6180    -3.8446 C.3     
  22 C22           -0.3676     8.5675    -4.9923 C.3     
  23 C23           -1.8639     8.4709    -5.2966 C.3     
  24 C24           -2.2133     9.4205    -6.4443 C.3     
  25 C25           -3.7271     9.4172    -6.6660 C.3     
  26 C26           -1.5097     8.9573    -7.7216 C.3     
  27 C27           -4.1981     7.9891    -6.9482 C.3     
  28 C28           -4.4272     9.9470    -5.4130 C.3     
  29 C29           -1.7500     9.9786    -8.8352 C.3     
  30 C30           -0.2123     6.1712    -4.3027 C.3     
  31 H31            1.0698     2.9322    -0.6930 H       
  32 H32            1.0091     2.8870     1.0809 H       
  33 H33            1.2949     0.6380     0.4792 H       
  34 H34            2.4092     1.0246    -0.8398 H       
  35 H35            3.5491    -0.0535     1.0581 H       
  36 H36            5.1014     2.1695     1.5109 H       
  37 H37            5.1896     1.1565     0.0503 H       
  38 H38            3.3466     5.6682    -0.2219 H       
  39 H39            5.6129     2.7168    -1.5074 H       
  40 H40            4.8522     5.2852    -1.9840 H       
  41 H41            4.5017     4.0685    -3.2430 H       
  42 H42            2.2877     3.6484    -2.2327 H       
  43 H43           -0.1657     6.2991    -1.7337 H       
  44 H44            0.5194     7.5239    -0.6522 H       
  45 H45            0.4647     4.6882    -0.3534 H       
  46 H46            1.1462     5.8912     0.7431 H       
  47 H47            1.6100     8.8768    -3.1818 H       
  48 H48            1.3923     5.2272    -3.4897 H       
  49 H49            4.1629     6.5476    -3.6099 H       
  50 H50            3.3903     5.4704    -4.8104 H       
  51 H51            1.8034     7.0703    -5.4429 H       
  52 H52            3.0391     8.2225    -4.8545 H       
  53 H53            3.6977     1.1823     3.0842 H       
  54 H54            3.2499     3.2793     2.3482 H       
  55 H55            3.8916     4.8335     1.7643 H       
  56 H56            2.1493     4.6524     2.0805 H       
  57 H57            3.3345     7.0946    -0.6955 H       
  58 H58            3.8290     7.7673    -2.2675 H       
  59 H59            2.6822     8.6590    -1.2390 H       
  60 H60           -0.6696     7.8205    -2.9945 H       
  61 H61           -0.1202     9.5898    -4.7062 H       
  62 H62            0.2022     8.2906    -5.8793 H       
  63 H63           -2.1112     7.4487    -5.5827 H       
  64 H64           -2.4337     8.7479    -4.4096 H       
  65 H65           -1.8849    10.4293    -6.1940 H       
  66 H66           -3.9712    10.0549    -7.5157 H       
  67 H67           -0.4395     8.8682    -7.5350 H       
  68 H68           -1.9076     7.9888    -8.0247 H       
  69 H69           -3.9540     7.3515    -6.0985 H       
  70 H70           -5.2766     7.9868    -7.1061 H       
  71 H71           -3.6994     7.6117    -7.8408 H       
  72 H72           -4.1243     9.3546    -4.5497 H       
  73 H73           -4.1490    10.9889    -5.2545 H       
  74 H74           -5.5071     9.8749    -5.5423 H       
  75 H75           -2.8219    10.1220    -8.9716 H       
  76 H76           -1.2881    10.9278    -8.5635 H       
  77 H77           -1.3112     9.6136    -9.7638 H       
  78 H78           -1.1886     6.0678    -4.7762 H       
  79 H79            0.5678     5.9085    -5.0173 H       
  80 H80           -0.1543     5.5063    -3.4409 H       
@<TRIPOS>BOND
   1    1    2 1
   2    1    6 1
   3    1   31 1
   4    1   32 1
   5    2    3 1
   6    2   33 1
   7    2   34 1
   8    3    4 1
   9    3   18 1
  10    3   35 1
  11    4    5 1
  12    4   36 1
  13    4   37 1
  14    5    8 2
  15    5    6 1
  16    6   19 1
  17    6    7 1
  18    7   10 1
  19    7   12 1
  20    7   38 1
  21    8    9 1
  22    8   39 1
  23    9   10 1
  24    9   40 1
  25    9   41 1
  26   10   15 1
  27   10   42 1
  28   11   12 1
  29   11   13 1
  30   11   43 1
  31   11   44 1
  32   12   45 1
  33   12   46 1
  34   13   15 1
  35   13   20 1
  36   13   14 1
  37   14   17 1
  38   14   21 1
  39   14   47 1
  40   15   16 1
  41   15   48 1
  42   16   17 1
  43   16   49 1
  44   16   50 1
  45   17   51 1
  46   17   52 1
  47   18   53 1
  48   19   54 1
  49   19   55 1
  50   19   56 1
  51   20   57 1
  52   20   58 1
  53   20   59 1
  54   21   22 1
  55   21   30 1
  56   21   60 1
  57   22   23 1
  58   22   61 1
  59   22   62 1
  60   23   24 1
  61   23   63 1
  62   23   64 1
  63   24   25 1
  64   24   26 1
  65   24   65 1
  66   25   27 1
  67   25   28 1
  68   25   66 1
  69   26   29 1
  70   26   67 1
  71   26   68 1
  72   27   69 1
  73   27   70 1
  74   27   71 1
  75   28   72 1
  76   28   73 1
  77   28   74 1
  78   29   75 1
  79   29   76 1
  80   29   77 1
  81   30   78 1
  82   30   79 1
  83   30   80 1

#	End of record

