#	Name: ASD10410218
#	Creating user name:	WinNT
#	Creation time:	15. 06. 2019 21:27

#	Modifying user name:	WinNT
#	Modification time:	15. 06. 2019 21:27

#	Program:	/corina/corina34_cracker 3.40 0067  02.08.2006

@<TRIPOS>MOLECULE
ASD10410218
  56   60    0    0    0
SMALL
NO_CHARGES


@<TRIPOS>ATOM
   1 C1            -0.0183     1.3926    -0.0799 C.ar    
   2 C2            -0.0058     0.0095     0.0248 C.ar    
   3 C3             1.2007    -0.6691     0.1142 C.ar    
   4 C4             2.3904     0.0318     0.0997 C.ar    
   5 C5             2.3788     1.4166    -0.0051 C.ar    
   6 C6             1.1704     2.0952    -0.0950 C.ar    
   7 O7            -1.1770    -0.6815     0.0401 O.3     
   8 N8             3.5843     2.1280    -0.0195 N.pl3   
   9 C9             3.6714     3.3385    -0.7065 C.2     
  10 N10            4.7100     4.1388    -0.7074 N.2     
  11 N11            2.7105     3.8654    -1.4746 N.2     
  12 C12            3.1194     5.0125    -1.9724 C.2     
  13 N13            4.3816     5.2368    -1.5189 N.pl3   
  14 C14            5.1883     6.3368    -1.8028 C.ar    
  15 N15            2.3965     5.8402    -2.8096 N.pl3   
  16 C16            6.4701     6.4333    -1.2635 C.ar    
  17 C17           -1.0898    -2.1036     0.1500 C.3     
  18 C18           -2.4977    -2.7023     0.1510 C.3     
  19 N19           -3.1374    -2.4514    -1.1474 N.3     
  20 C20           -4.3943    -3.2120    -1.2730 C.3     
  21 C21           -5.5176    -2.1941    -1.5620 C.3     
  22 C22           -4.7479    -0.9807    -2.1467 C.3     
  23 C23           -3.4375    -1.0142    -1.3213 C.3     
  24 N24            4.7503     7.3088    -2.5968 N.ar    
  25 C25            5.5123     8.3504    -2.8670 C.ar    
  26 N26            6.7272     8.4725    -2.3678 N.ar    
  27 C27            7.2347     7.5410    -1.5720 C.ar    
  28 C28            8.5762     7.4440    -0.8815 C.3     
  29 C29            8.7167     5.9603    -0.4774 C.3     
  30 C30            7.2434     5.5117    -0.3501 C.3     
  31 Cl31           4.8996     9.5960    -3.9095 Cl      
  32 H32           -0.9580     1.9199    -0.1540 H       
  33 H33            1.2095    -1.7460     0.1957 H       
  34 H34            3.3296    -0.4967     0.1701 H       
  35 H35            1.1605     3.1720    -0.1769 H       
  36 H36            4.3590     1.7790     0.4484 H       
  37 H37            1.4990     5.5914    -3.0809 H       
  38 H38            2.7863     6.6701    -3.1261 H       
  39 H39           -0.5271    -2.4996    -0.6954 H       
  40 H40           -0.5828    -2.3658     1.0787 H       
  41 H41           -2.4356    -3.7767     0.3238 H       
  42 H42           -3.0884    -2.2406     0.9423 H       
  43 H43           -4.3171    -3.9226    -2.0959 H       
  44 H44           -4.6027    -3.7400    -0.3425 H       
  45 H45           -6.2206    -2.5933    -2.2932 H       
  46 H46           -6.0326    -1.9170    -0.6421 H       
  47 H47           -4.5445    -1.1220    -3.2082 H       
  48 H48           -5.2936    -0.0528    -1.9755 H       
  49 H49           -3.5870    -0.5378    -0.3524 H       
  50 H50           -2.6326    -0.5218    -1.8670 H       
  51 H51            9.3755     7.7267    -1.5665 H       
  52 H52            8.5929     8.0801     0.0035 H       
  53 H53            9.2309     5.3943    -1.2541 H       
  54 H54            9.2327     5.8662     0.4781 H       
  55 H55            6.9013     5.6238     0.6788 H       
  56 H56            7.1334     4.4773    -0.6756 H       
@<TRIPOS>BOND
   1    1    2 ar
   2    1    6 ar
   3    1   32 1
   4    2    3 ar
   5    2    7 1
   6    3    4 ar
   7    3   33 1
   8    4    5 ar
   9    4   34 1
  10    5    6 ar
  11    5    8 1
  12    6   35 1
  13    7   17 1
  14    8    9 1
  15    8   36 1
  16    9   10 2
  17    9   11 1
  18   10   13 1
  19   11   12 2
  20   12   13 1
  21   12   15 1
  22   13   14 1
  23   14   16 ar
  24   14   24 ar
  25   15   37 1
  26   15   38 1
  27   16   27 ar
  28   16   30 1
  29   17   18 1
  30   17   39 1
  31   17   40 1
  32   18   19 1
  33   18   41 1
  34   18   42 1
  35   19   20 1
  36   19   23 1
  37   20   21 1
  38   20   43 1
  39   20   44 1
  40   21   22 1
  41   21   45 1
  42   21   46 1
  43   22   23 1
  44   22   47 1
  45   22   48 1
  46   23   49 1
  47   23   50 1
  48   24   25 ar
  49   25   26 ar
  50   25   31 1
  51   26   27 ar
  52   27   28 1
  53   28   29 1
  54   28   51 1
  55   28   52 1
  56   29   30 1
  57   29   53 1
  58   29   54 1
  59   30   55 1
  60   30   56 1

#	End of record

