#	Name: ASD11000272
#	Creating user name:	WinNT
#	Creation time:	15. 06. 2019 21:29

#	Modifying user name:	WinNT
#	Modification time:	15. 06. 2019 21:29

#	Program:	/corina/corina34_cracker 3.40 0067  02.08.2006

@<TRIPOS>MOLECULE
ASD11000272
  26   27    0    0    0
SMALL
NO_CHARGES


@<TRIPOS>ATOM
   1 C1            -0.0159     1.3201     0.0093 C.ar    
   2 N2             0.0021    -0.0041     0.0020 N.ar    
   3 C3             1.1475    -0.6659    -0.0125 C.ar    
   4 C4             2.3410     0.0470    -0.0201 C.ar    
   5 C5             2.2828     1.4359    -0.0121 C.ar    
   6 N6             1.1013     2.0310     0.0025 N.ar    
   7 N7            -1.2357     1.9790     0.0186 N.pl3   
   8 O8             3.5377    -0.5994    -0.0346 O.3     
   9 C9             4.7136     0.2125    -0.0416 C.3     
  10 C10            5.9342    -0.6712    -0.0575 C.ar    
  11 C11            6.4828    -1.0704    -1.2619 C.ar    
  12 C12            7.6024    -1.8811    -1.2765 C.ar    
  13 C13            8.1737    -2.2921    -0.0867 C.ar    
  14 C14            7.6257    -1.8921     1.1177 C.ar    
  15 C15            6.5086    -1.0779     1.1323 C.ar    
  16 H16            1.1554    -1.7458    -0.0180 H       
  17 H17            3.1903     2.0215    -0.0173 H       
  18 H18           -2.0617     1.4704     0.0197 H       
  19 H19           -1.2632     2.9486     0.0240 H       
  20 H20            4.7123     0.8463    -0.9284 H       
  21 H21            4.7290     0.8373     0.8515 H       
  22 H22            6.0364    -0.7493    -2.1914 H       
  23 H23            8.0306    -2.1936    -2.2175 H       
  24 H24            9.0480    -2.9260    -0.0981 H       
  25 H25            8.0718    -2.2135     2.0472 H       
  26 H26            6.0826    -0.7623     2.0732 H       
@<TRIPOS>BOND
   1    1    2 ar
   2    1    6 ar
   3    1    7 1
   4    2    3 ar
   5    3    4 ar
   6    3   16 1
   7    4    5 ar
   8    4    8 1
   9    5    6 ar
  10    5   17 1
  11    7   18 1
  12    7   19 1
  13    8    9 1
  14    9   10 1
  15    9   20 1
  16    9   21 1
  17   10   11 ar
  18   10   15 ar
  19   11   12 ar
  20   11   22 1
  21   12   13 ar
  22   12   23 1
  23   13   14 ar
  24   13   24 1
  25   14   15 ar
  26   14   25 1
  27   15   26 1

#	End of record

