#	Name: ASD11000073
#	Creating user name:	WinNT
#	Creation time:	15. 06. 2019 21:28

#	Modifying user name:	WinNT
#	Modification time:	15. 06. 2019 21:28

#	Program:	/corina/corina34_cracker 3.40 0067  02.08.2006

@<TRIPOS>MOLECULE
ASD11000073
  55   57    0    0    0
SMALL
NO_CHARGES


@<TRIPOS>ATOM
   1 C1             2.3244    -1.9467    -4.8458 C.ar    
   2 C2             2.8115    -2.6914    -3.7850 C.ar    
   3 C3             2.4311    -2.3760    -2.4824 C.ar    
   4 C4             1.5660    -1.3175    -2.2516 C.ar    
   5 C5             1.0809    -0.5760    -3.3131 C.ar    
   6 C6             1.4590    -0.8885    -4.6099 C.ar    
   7 O7             0.9806    -0.1570    -5.6518 O.3     
   8 N8             2.9223    -3.1285    -1.4060 N.pl3   
   9 C9             2.5217    -2.7962    -0.0366 C.3     
  10 C10            2.4011    -4.0808     0.7856 C.3     
  11 C11            3.7361    -4.8209     0.7673 C.3     
  12 C12            2.0210    -3.7341     2.2013 C.ar    
  13 C13            2.3761    -4.5998     3.2396 C.ar    
  14 C14            1.3278    -2.5771     2.4772 C.ar    
  15 C15            2.0125    -4.3033     4.5531 C.ar    
  16 C16            1.3117    -3.1426     4.8232 C.ar    
  17 C17            0.9715    -2.2761     3.7855 C.ar    
  18 N18            3.7295    -5.9343     1.7135 N.am    
  19 C19            3.1570    -5.8125     2.9261 C.2     
  20 O20            0.2888    -1.1335     4.0549 O.3     
  21 C21           -0.0281    -0.2903     2.9455 C.3     
  22 O22            0.9539    -2.8462     6.1014 O.3     
  23 C23            1.3351    -3.7790     7.1146 C.3     
  24 C24            0.0934     0.9179    -5.3366 C.3     
  25 O25            3.6597    -3.7296    -4.0143 O.3     
  26 C26            4.0062    -3.9959    -5.3749 C.3     
  27 C27            4.3557    -7.2040     1.3365 C.3     
  28 O28            3.2820    -6.6932     3.7550 O.2     
  29 O29            3.5049    -1.9435     0.5536 O.3     
  30 H30            2.6216    -2.1868    -5.8560 H       
  31 H31            1.2705    -1.0722    -1.2422 H       
  32 H32            0.4068     0.2480    -3.1318 H       
  33 H33            3.5273    -3.8692    -1.5681 H       
  34 H34            1.5597    -2.2840    -0.0536 H       
  35 H35            1.6294    -4.7166     0.3515 H       
  36 H36            3.9190    -5.2048    -0.2363 H       
  37 H37            4.5335    -4.1277     1.0354 H       
  38 H38            1.0612    -1.9033     1.6764 H       
  39 H39            2.2767    -4.9770     5.3548 H       
  40 H40            0.8926     0.0271     2.4558 H       
  41 H41           -0.6461    -0.8404     2.2359 H       
  42 H42           -0.5723     0.5856     3.2987 H       
  43 H43            0.9889    -3.4231     8.0850 H       
  44 H44            0.8864    -4.7495     6.9024 H       
  45 H45            2.4206    -3.8760     7.1294 H       
  46 H46           -0.7860     0.5254    -4.8261 H       
  47 H47            0.6023     1.6307    -4.6877 H       
  48 H48           -0.2128     1.4177    -6.2556 H       
  49 H49            4.6867    -4.8464    -5.4167 H       
  50 H50            3.1036    -4.2244    -5.9416 H       
  51 H51            4.4927    -3.1199    -5.8040 H       
  52 H52            5.4048    -7.1936     1.6321 H       
  53 H53            3.8445    -8.0247     1.8398 H       
  54 H54            4.2835    -7.3384     0.2573 H       
  55 H55            4.3876    -2.3354     0.6017 H       
@<TRIPOS>BOND
   1    1    2 ar
   2    1    6 ar
   3    1   30 1
   4    2    3 ar
   5    2   25 1
   6    3    4 ar
   7    3    8 1
   8    4    5 ar
   9    4   31 1
  10    5    6 ar
  11    5   32 1
  12    6    7 1
  13    7   24 1
  14    8    9 1
  15    8   33 1
  16    9   10 1
  17    9   29 1
  18    9   34 1
  19   10   11 1
  20   10   12 1
  21   10   35 1
  22   11   18 1
  23   11   36 1
  24   11   37 1
  25   12   13 ar
  26   12   14 ar
  27   13   15 ar
  28   13   19 1
  29   14   17 ar
  30   14   38 1
  31   15   16 ar
  32   15   39 1
  33   16   17 ar
  34   16   22 1
  35   17   20 1
  36   18   19 am
  37   18   27 1
  38   19   28 2
  39   20   21 1
  40   21   40 1
  41   21   41 1
  42   21   42 1
  43   22   23 1
  44   23   43 1
  45   23   44 1
  46   23   45 1
  47   24   46 1
  48   24   47 1
  49   24   48 1
  50   25   26 1
  51   26   49 1
  52   26   50 1
  53   26   51 1
  54   27   52 1
  55   27   53 1
  56   27   54 1
  57   29   55 1

#	End of record

