#	Name: ASD11000104
#	Creating user name:	WinNT
#	Creation time:	15. 06. 2019 21:28

#	Modifying user name:	WinNT
#	Modification time:	15. 06. 2019 21:28

#	Program:	/corina/corina34_cracker 3.40 0067  02.08.2006

@<TRIPOS>MOLECULE
ASD11000104
  41   43    0    0    0
SMALL
NO_CHARGES


@<TRIPOS>ATOM
   1 C1            -0.0027     1.4627    -0.0056 C.3     
   2 N2             0.0023    -0.0040     0.0017 N.am    
   3 C3             1.4157     1.9757    -0.0095 C.ar    
   4 C4             2.4964     1.1552     0.2272 C.ar    
   5 C5             1.6128     3.3268    -0.2615 C.ar    
   6 C6             3.7791     1.6904     0.2259 C.ar    
   7 C7             3.9804     3.0357    -0.0208 C.ar    
   8 C8             2.8883     3.8614    -0.2698 C.ar    
   9 C9             0.9394    -0.6719     0.9201 C.3     
  10 C10            2.3596    -0.3239     0.4771 C.3     
  11 C11           -0.8182    -0.7119    -0.7997 C.2     
  12 O12           -0.7194    -1.9222    -0.8539 O.2     
  13 C13           -1.8384    -0.0163    -1.6127 C.ar    
  14 C14           -2.1684    -0.4941    -2.8820 C.ar    
  15 C15           -2.4799     1.1177    -1.1121 C.ar    
  16 C16           -3.4313     1.7619    -1.8758 C.ar    
  17 C17           -3.7503     1.2858    -3.1351 C.ar    
  18 C18           -3.1216     0.1594    -3.6354 C.ar    
  19 C19            6.3108     2.6413     0.2431 C.3     
  20 O20            5.2395     3.5496    -0.0203 O.3     
  21 O21            3.0739     5.1854    -0.5191 O.3     
  22 C22            1.9048     5.9692    -0.7656 C.3     
  23 H23           -0.5197     1.8191    -0.8965 H       
  24 H24           -0.5181     1.8280     0.8826 H       
  25 H25            0.7632     3.9654    -0.4529 H       
  26 H26            4.6264     1.0494     0.4198 H       
  27 H27            0.7735    -0.3184     1.9377 H       
  28 H28            0.7933    -1.7512     0.8755 H       
  29 H29            2.5917    -0.8653    -0.4400 H       
  30 H30            3.0613    -0.6223     1.2560 H       
  31 H31           -1.6783    -1.3732    -3.2736 H       
  32 H32           -2.2323     1.4899    -0.1290 H       
  33 H33           -3.9285     2.6394    -1.4896 H       
  34 H34           -4.4963     1.7933    -3.7286 H       
  35 H35           -3.3751    -0.2070    -4.6191 H       
  36 H36            6.1757     2.1962     1.2289 H       
  37 H37            6.3154     1.8559    -0.5127 H       
  38 H38            7.2585     3.1790     0.2140 H       
  39 H39            2.1933     7.0042    -0.9495 H       
  40 H40            1.3819     5.5774    -1.6381 H       
  41 H41            1.2473     5.9241     0.1026 H       
@<TRIPOS>BOND
   1    1    2 1
   2    1    3 1
   3    1   23 1
   4    1   24 1
   5    2    9 1
   6    2   11 am
   7    3    4 ar
   8    3    5 ar
   9    4    6 ar
  10    4   10 1
  11    5    8 ar
  12    5   25 1
  13    6    7 ar
  14    6   26 1
  15    7    8 ar
  16    7   20 1
  17    8   21 1
  18    9   10 1
  19    9   27 1
  20    9   28 1
  21   10   29 1
  22   10   30 1
  23   11   12 2
  24   11   13 1
  25   13   14 ar
  26   13   15 ar
  27   14   18 ar
  28   14   31 1
  29   15   16 ar
  30   15   32 1
  31   16   17 ar
  32   16   33 1
  33   17   18 ar
  34   17   34 1
  35   18   35 1
  36   19   20 1
  37   19   36 1
  38   19   37 1
  39   19   38 1
  40   21   22 1
  41   22   39 1
  42   22   40 1
  43   22   41 1

#	End of record

