#	Name: ASD10160295
#	Creating user name:	WinNT
#	Creation time:	15. 06. 2019 21:25

#	Modifying user name:	WinNT
#	Modification time:	15. 06. 2019 21:25

#	Program:	/corina/corina34_cracker 3.40 0067  02.08.2006

@<TRIPOS>MOLECULE
ASD10160295
  18   18    0    0    0
SMALL
NO_CHARGES


@<TRIPOS>ATOM
   1 C1            -0.0179     1.4702     0.0101 C.2     
   2 C2             0.0021    -0.0041     0.0020 C.ar    
   3 C3             1.2220    -0.6904    -0.0133 C.ar    
   4 C4             1.2331    -2.0719    -0.0209 C.ar    
   5 C5             0.0405    -2.7765    -0.0133 C.ar    
   6 C6            -1.1720    -2.1005     0.0019 C.ar    
   7 C7            -1.1968    -0.7223     0.0154 C.ar    
   8 O8             1.0260     2.0919     0.0035 O.2     
   9 O9            -1.1939     2.1280     0.0193 O.3     
  10 F10            0.0574    -4.1273    -0.0212 F       
  11 F11            2.3854    -0.0037    -0.0211 F       
  12 Cl12          -2.6608    -2.9933     0.0107 Cl      
  13 C13           -1.1376     3.5788     0.0269 C.3     
  14 H14            2.1732    -2.6034    -0.0331 H       
  15 H15           -2.1411    -0.1983     0.0321 H       
  16 H16           -0.6058     3.9171     0.9162 H       
  17 H17           -0.6143     3.9268    -0.8637 H       
  18 H18           -2.1504     3.9817     0.0339 H       
@<TRIPOS>BOND
   1    1    2 1
   2    1    8 2
   3    1    9 1
   4    2    3 ar
   5    2    7 ar
   6    3    4 ar
   7    3   11 1
   8    4    5 ar
   9    4   14 1
  10    5    6 ar
  11    5   10 1
  12    6    7 ar
  13    6   12 1
  14    7   15 1
  15    9   13 1
  16   13   16 1
  17   13   17 1
  18   13   18 1

#	End of record

