#	Name: ASD11920022
#	Creating user name:	WinNT
#	Creation time:	15. 06. 2019 21:29

#	Modifying user name:	WinNT
#	Modification time:	15. 06. 2019 21:29

#	Program:	/corina/corina34_cracker 3.40 0067  02.08.2006

@<TRIPOS>MOLECULE
ASD11920022
  39   40    0    0    0
SMALL
NO_CHARGES


@<TRIPOS>ATOM
   1 C1            -0.1599     1.6680     0.4417 C.ar    
   2 C2            -0.3363     0.2307     0.6735 C.2     
   3 C3             0.8687    -0.6629     0.8169 C.3     
   4 O4            -1.4522    -0.2390     0.7499 O.2     
   5 C5             1.1189     2.2369     0.4808 C.ar    
   6 C6             1.2764     3.5869     0.2618 C.ar    
   7 C7             0.1753     4.3886     0.0022 C.ar    
   8 C8             0.3644     5.8646    -0.2361 C.3     
   9 C9            -1.0921     3.8450    -0.0401 C.ar    
  10 C10           -1.2738     2.4843     0.1727 C.ar    
  11 N11           -2.5464     1.9346     0.1255 N.pl3   
  12 C12           -3.7155     2.8054    -0.0197 C.3     
  13 C13           -3.8442     3.2380    -1.4575 C.2     
  14 N14           -4.8545     4.0489    -1.8294 N.am    
  15 O15           -3.0386     2.8566    -2.2800 O.2     
  16 C16           -4.9555     2.0542     0.3917 C.ar    
  17 C17           -5.8487     2.6268     1.2789 C.ar    
  18 C18           -6.9868     1.9369     1.6563 C.ar    
  19 C19           -7.2314     0.6755     1.1468 C.ar    
  20 C20           -6.3387     0.1026     0.2605 C.ar    
  21 C21           -5.2035     0.7943    -0.1222 C.ar    
  22 Br22          -5.5140     4.3523     1.9764 Br      
  23 Br23          -3.9869     0.0142    -1.3417 Br      
  24 H24            1.1599    -0.7148     1.8660 H       
  25 H25            0.6245    -1.6626     0.4577 H       
  26 H26            1.6934    -0.2576     0.2306 H       
  27 H27            1.9804     1.6177     0.6829 H       
  28 H28            2.2635     4.0241     0.2926 H       
  29 H29            0.5189     6.0441    -1.3000 H       
  30 H30           -0.5223     6.4031     0.0983 H       
  31 H31            1.2335     6.2142     0.3213 H       
  32 H32           -1.9437     4.4775    -0.2431 H       
  33 H33           -2.6622     0.9736     0.1885 H       
  34 H34           -3.5955     3.6836     0.6146 H       
  35 H35           -5.4988     4.3540    -1.1717 H       
  36 H36           -4.9373     4.3274    -2.7549 H       
  37 H37           -7.6842     2.3839     2.3493 H       
  38 H38           -8.1200     0.1372     1.4417 H       
  39 H39           -6.5299    -0.8833    -0.1368 H       
@<TRIPOS>BOND
   1    1    2 1
   2    1    5 ar
   3    1   10 ar
   4    2    3 1
   5    2    4 2
   6    3   24 1
   7    3   25 1
   8    3   26 1
   9    5    6 ar
  10    5   27 1
  11    6    7 ar
  12    6   28 1
  13    7    8 1
  14    7    9 ar
  15    8   29 1
  16    8   30 1
  17    8   31 1
  18    9   10 ar
  19    9   32 1
  20   10   11 1
  21   11   12 1
  22   11   33 1
  23   12   13 1
  24   12   16 1
  25   12   34 1
  26   13   14 am
  27   13   15 2
  28   14   35 1
  29   14   36 1
  30   16   17 ar
  31   16   21 ar
  32   17   18 ar
  33   17   22 1
  34   18   19 ar
  35   18   37 1
  36   19   20 ar
  37   19   38 1
  38   20   21 ar
  39   20   39 1
  40   21   23 1

#	End of record

