#	Name: ASD11680001
#	Creating user name:	WinNT
#	Creation time:	15. 06. 2019 21:29

#	Modifying user name:	WinNT
#	Modification time:	15. 06. 2019 21:29

#	Program:	/corina/corina34_cracker 3.40 0067  02.08.2006

@<TRIPOS>MOLECULE
ASD11680001
 201  207    0    0    0
SMALL
NO_CHARGES


@<TRIPOS>ATOM
   1 C1             0.5252    -1.4639    -1.0517 C.3     
   2 C2           -25.0982    -2.8817   -23.2142 C.3     
   3 C3            -3.7561    -0.2045    -4.0031 C.3     
   4 C4            -4.1759     0.3985    -2.6611 C.3     
   5 C5            -5.6664     0.2555    -2.4904 C.2     
   6 N6            -3.4903    -0.3045    -1.5740 N.am    
   7 O7            -6.1120    -0.3719    -1.5530 O.2     
   8 C8            -2.2876     0.0471    -4.2295 C.2     
   9 N9            -1.2589    -0.8072    -3.9369 N.pl3   
  10 C10           -0.1128    -0.1908    -4.2980 C.2     
  11 N11           -0.4055     0.9825    -4.7888 N.2     
  12 C12           -1.7356     1.1531    -4.7638 C.2     
  13 C13           -8.4635     1.7687    -2.2607 C.3     
  14 C14           -7.9531     0.6859    -3.2135 C.3     
  15 C15           -8.6287     0.8357    -4.5523 C.2     
  16 N16           -6.5042     0.8249    -3.3795 N.am    
  17 O17           -7.9652     1.0386    -5.5470 O.2     
  18 C18           -7.8818     1.5452    -0.8885 C.2     
  19 C19           -8.4595     0.8815     0.1253 C.2     
  20 N20           -7.6329     0.8842     1.2157 N.pl3   
  21 C21           -6.4738     1.5671     0.9226 C.ar    
  22 C22           -6.5761     2.0055    -0.4101 C.ar    
  23 C23           -5.3265     1.8636     1.6515 C.ar    
  24 C24           -4.3106     2.5855     1.0647 C.ar    
  25 C25           -4.4191     3.0214    -0.2490 C.ar    
  26 C26           -5.5309     2.7292    -0.9876 C.ar    
  27 C27          -10.6324    -0.4589    -6.6678 C.3     
  28 C28          -10.6270     0.8898    -5.9455 C.3     
  29 C29          -12.0454     1.3568    -5.7429 C.2     
  30 N30           -9.9702     0.7442    -4.6441 N.am    
  31 O31          -12.4663     1.5491    -4.6218 O.2     
  32 C32           -9.1941    -0.8736    -6.9844 C.3     
  33 C33           -9.1904    -2.2770    -7.5938 C.3     
  34 C34           -8.5853     0.1162    -7.9797 C.3     
  35 C35          -14.2473     3.5397    -6.4867 C.3     
  36 C36          -14.2252     2.0148    -6.6106 C.3     
  37 C37          -15.0656     1.5943    -7.7887 C.2     
  38 N38          -12.8463     1.5609    -6.8075 N.am    
  39 O39          -14.5623     0.9762    -8.7028 O.2     
  40 C40          -13.4982     3.9594    -5.2204 C.3     
  41 C41          -13.5200     5.4613    -5.0984 C.2     
  42 O42          -14.0796     6.1301    -5.9413 O.2     
  43 N43          -12.9176     6.0612    -4.0526 N.am    
  44 C44          -17.6892     0.0644    -8.7593 C.3     
  45 C45          -17.1935     1.4962    -8.9717 C.3     
  46 C46          -18.3749     2.4227    -9.1022 C.2     
  47 N47          -16.3765     1.9051    -7.8264 N.am    
  48 O48          -18.5201     3.3347    -8.3160 O.2     
  49 C49          -16.4956    -0.8927    -8.7514 C.3     
  50 C50          -16.9770    -2.3055    -8.4155 C.3     
  51 C51          -15.8338    -0.8939   -10.1309 C.3     
  52 C52          -20.0094     4.3770   -11.0193 C.3     
  53 C53          -20.4185     3.1385   -10.2195 C.3     
  54 C54          -21.5386     2.4268   -10.9336 C.2     
  55 N55          -19.2701     2.2378   -10.0926 N.am    
  56 O56          -21.3919     1.2801   -11.3005 O.2     
  57 C57          -18.9602     5.1671   -10.2347 C.3     
  58 C58          -18.5511     6.4056   -11.0345 C.3     
  59 C59          -17.5018     7.1958   -10.2498 C.3     
  60 N60          -17.1090     8.3849   -11.0177 N.3     
  61 C61          -23.5155     2.1113   -13.2554 C.2     
  62 N62          -22.7032     3.0645   -11.1646 N.am    
  63 C63          -23.8750     2.4901   -11.8418 C.3     
  64 C64          -24.9746     3.5728   -11.8521 C.3     
  65 C65          -24.5587     4.5017   -10.6810 C.3     
  66 C66          -23.0154     4.4515   -10.7745 C.3     
  67 O67          -22.3900     2.2997   -13.6661 O.2     
  68 C68          -24.0951     1.1948   -15.4374 C.3     
  69 C69          -25.3021     0.6074   -16.1225 C.2     
  70 N70          -24.4446     1.5631   -14.0632 N.am    
  71 O71          -26.3509     0.5064   -15.5220 O.2     
  72 C72          -27.2482     0.7512   -18.6441 C.3     
  73 C73          -26.3892    -0.3766   -18.0685 C.3     
  74 C74          -25.9410    -1.2858   -19.1836 C.2     
  75 N75          -25.2159     0.1944   -17.4025 N.am    
  76 O76          -24.7579    -1.4415   -19.4007 O.2     
  77 C77          -27.8056     1.6018   -17.5010 C.3     
  78 C78          -28.6516     2.7126   -18.0679 C.2     
  79 O79          -28.7947     2.8139   -19.2680 O.2     
  80 N80          -29.2493     3.5935   -17.2413 N.am    
  81 C81          -25.8098    -2.1086   -22.1339 C.2     
  82 N82          -26.8548    -1.9259   -19.9397 N.am    
  83 C83          -26.5576    -2.8422   -21.0505 C.3     
  84 C84          -27.9076    -3.3520   -21.5975 C.3     
  85 C85          -28.8715    -3.1351   -20.4011 C.3     
  86 C86          -28.3177    -1.8284   -19.7858 C.3     
  87 O87          -25.7808    -0.9014   -22.1364 O.2     
  88 C88           -2.0346    -0.1153     1.2566 C.3     
  89 C89           -1.5433    -0.6535    -0.0887 C.3     
  90 C90           -2.2486     0.0697    -1.2070 C.2     
  91 N91           -0.0947    -0.4376    -0.2029 N.3     
  92 O92           -1.6989     0.9885    -1.7767 O.2     
  93 C93           -1.3881    -0.8918     2.3746 C.2     
  94 C94           -1.8752    -1.9932     2.9676 C.2     
  95 N95           -1.0125    -2.4195     3.9404 N.pl3   
  96 C96            0.0784    -1.5814     3.9986 C.ar    
  97 C97           -0.1059    -0.5915     3.0163 C.ar    
  98 C98            1.2245    -1.5544     4.7868 C.ar    
  99 C99            2.1590    -0.5594     4.6014 C.ar    
 100 C100           1.9694     0.4189     3.6348 C.ar    
 101 C101           0.8580     0.4033     2.8402 C.ar    
 102 H102           1.5809    -1.2311    -1.1910 H       
 103 H103           0.4282    -2.4384    -0.5730 H       
 104 H104           0.0265    -1.4838    -2.0207 H       
 105 H105         -24.6180    -2.1861   -23.9024 H       
 106 H106         -24.3434    -3.5257   -22.7630 H       
 107 H107         -25.8186    -3.4923   -23.7586 H       
 108 H108          -3.9436    -1.2782    -3.9936 H       
 109 H109          -4.3318     0.2578    -4.8051 H       
 110 H110          -3.9072     1.4546    -2.6373 H       
 111 H111          -3.9299    -1.0394    -1.1184 H       
 112 H112          -1.3382    -1.6903    -3.5436 H       
 113 H113           0.8812    -0.6007    -4.1969 H       
 114 H114          -2.2701     2.0257    -5.1093 H       
 115 H115          -8.1602     2.7488    -2.6286 H       
 116 H116          -9.5511     1.7216    -2.2063 H       
 117 H117          -8.1789    -0.2973    -2.8006 H       
 118 H118          -6.1478     1.3267    -4.1292 H       
 119 H119          -9.4328     0.4151     0.0862 H       
 120 H120          -7.8338     0.4675     2.0682 H       
 121 H121          -5.2328     1.5293     2.6742 H       
 122 H122          -3.4210     2.8151     1.6323 H       
 123 H123          -3.6136     3.5867    -0.6940 H       
 124 H124          -5.6074     3.0698    -2.0096 H       
 125 H125         -11.0952    -1.2112    -6.0292 H       
 126 H126         -11.1980    -0.3720    -7.5955 H       
 127 H127         -10.0859     1.6213    -6.5457 H       
 128 H128         -10.5009     0.5819    -3.8485 H       
 129 H129          -8.6058    -0.8744    -6.0668 H       
 130 H130          -9.7786    -2.2763    -8.5114 H       
 131 H131          -8.1657    -2.5725    -7.8193 H       
 132 H132          -9.6241    -2.9822    -6.8847 H       
 133 H133          -9.1735     0.1169    -8.8973 H       
 134 H134          -8.5879     1.1160    -7.5456 H       
 135 H135          -7.5606    -0.1793    -8.2053 H       
 136 H136         -13.7643     3.9820    -7.3580 H       
 137 H137         -15.2797     3.8846    -6.4293 H       
 138 H138         -14.6274     1.5705    -5.7002 H       
 139 H139         -12.5097     1.4071    -7.7042 H       
 140 H140         -13.9811     3.5170    -4.3491 H       
 141 H141         -12.4658     3.6145    -5.2778 H       
 142 H142         -12.4701     5.5263    -3.3785 H       
 143 H143         -12.9316     7.0280    -3.9741 H       
 144 H144         -18.2136    -0.0008    -7.8060 H       
 145 H145         -18.3684    -0.2084    -9.5670 H       
 146 H146         -16.5937     1.5420    -9.8807 H       
 147 H147         -16.7790     2.3994    -7.0953 H       
 148 H148         -15.7738    -0.5671    -8.0024 H       
 149 H149         -17.6988    -2.6311    -9.1645 H       
 150 H150         -16.1266    -2.9874    -8.4099 H       
 151 H151         -17.4485    -2.3047    -7.4327 H       
 152 H152         -16.5556    -1.2195   -10.8799 H       
 153 H153         -15.4908     0.1127   -10.3702 H       
 154 H154         -14.9834    -1.5758   -10.1253 H       
 155 H155         -19.5908     4.0689   -11.9774 H       
 156 H156         -20.8842     5.0046   -11.1900 H       
 157 H157         -20.7543     3.4411    -9.2277 H       
 158 H158         -19.1539     1.5084   -10.7214 H       
 159 H159         -19.3788     5.4752    -9.2766 H       
 160 H160         -18.0854     4.5396   -10.0640 H       
 161 H161         -18.1324     6.0975   -11.9925 H       
 162 H162         -19.4258     7.0332   -11.2051 H       
 163 H163         -17.9204     7.5039    -9.2918 H       
 164 H164         -16.6271     6.5682   -10.0792 H       
 165 H165         -17.9131     8.9507   -11.2445 H       
 166 H166         -16.4162     8.9240   -10.5203 H       
 167 H167         -24.2224     1.6107   -11.2995 H       
 168 H168         -24.9709     4.1173   -12.7963 H       
 169 H169         -25.9531     3.1305   -11.6647 H       
 170 H170         -24.9284     5.5153   -10.8360 H       
 171 H171         -24.9020     4.1041    -9.7260 H       
 172 H172         -22.5686     4.6833    -9.8077 H       
 173 H173         -22.6608     5.1482   -11.5341 H       
 174 H174         -23.2914     0.4587   -15.4231 H       
 175 H175         -23.7659     2.0818   -15.9787 H       
 176 H176         -25.3448     1.4124   -13.7347 H       
 177 H177         -26.6383     1.3751   -19.2974 H       
 178 H178         -28.0728     0.3246   -19.2151 H       
 179 H179         -26.9744    -0.9473   -17.3474 H       
 180 H180         -24.3770     0.2752   -17.8828 H       
 181 H181         -28.4154     0.9779   -16.8477 H       
 182 H182         -26.9809     2.0284   -16.9300 H       
 183 H183         -29.1349     3.5125   -16.2815 H       
 184 H184         -29.7939     4.3085   -17.6062 H       
 185 H185         -25.9607    -3.6801   -20.6903 H       
 186 H186         -28.2225    -2.7622   -22.4583 H       
 187 H187         -27.8447    -4.4093   -21.8552 H       
 188 H188         -29.8974    -3.0030   -20.7450 H       
 189 H189         -28.8025    -3.9579   -19.6896 H       
 190 H190         -28.5846    -1.7623   -18.7311 H       
 191 H191         -28.6995    -0.9642   -20.3295 H       
 192 H192          -1.7694     0.9382     1.3452 H       
 193 H193          -3.1175    -0.2238     1.3176 H       
 194 H194          -1.7579    -1.7202    -0.1536 H       
 195 H195           0.3397    -0.4105     0.7074 H       
 196 H196          -2.8098    -2.4717     2.7147 H       
 197 H197          -1.1492    -3.1961     4.5052 H       
 198 H198           1.3809    -2.3107     5.5416 H       
 199 H199           3.0479    -0.5400     5.2145 H       
 200 H200           2.7116     1.1922     3.5025 H       
 201 H201           0.7182     1.1664     2.0888 H       
@<TRIPOS>BOND
   1    1   91 1
   2    1  102 1
   3    1  103 1
   4    1  104 1
   5    2   81 1
   6    2  105 1
   7    2  106 1
   8    2  107 1
   9    3    8 1
  10    3    4 1
  11    3  108 1
  12    3  109 1
  13    4    5 1
  14    4    6 1
  15    4  110 1
  16    5    7 2
  17    5   16 am
  18    6   90 am
  19    6  111 1
  20    8    9 1
  21    8   12 2
  22    9   10 1
  23    9  112 1
  24   10   11 2
  25   10  113 1
  26   11   12 1
  27   12  114 1
  28   13   18 1
  29   13   14 1
  30   13  115 1
  31   13  116 1
  32   14   15 1
  33   14   16 1
  34   14  117 1
  35   15   17 2
  36   15   30 am
  37   16  118 1
  38   18   19 2
  39   18   22 1
  40   19   20 1
  41   19  119 1
  42   20   21 1
  43   20  120 1
  44   21   22 ar
  45   21   23 ar
  46   22   26 ar
  47   23   24 ar
  48   23  121 1
  49   24   25 ar
  50   24  122 1
  51   25   26 ar
  52   25  123 1
  53   26  124 1
  54   27   32 1
  55   27   28 1
  56   27  125 1
  57   27  126 1
  58   28   30 1
  59   28   29 1
  60   28  127 1
  61   29   31 2
  62   29   38 am
  63   30  128 1
  64   32   33 1
  65   32   34 1
  66   32  129 1
  67   33  130 1
  68   33  131 1
  69   33  132 1
  70   34  133 1
  71   34  134 1
  72   34  135 1
  73   35   40 1
  74   35   36 1
  75   35  136 1
  76   35  137 1
  77   36   38 1
  78   36   37 1
  79   36  138 1
  80   37   39 2
  81   37   47 am
  82   38  139 1
  83   40   41 1
  84   40  140 1
  85   40  141 1
  86   41   42 2
  87   41   43 am
  88   43  142 1
  89   43  143 1
  90   44   49 1
  91   44   45 1
  92   44  144 1
  93   44  145 1
  94   45   47 1
  95   45   46 1
  96   45  146 1
  97   46   48 2
  98   46   55 am
  99   47  147 1
 100   49   50 1
 101   49   51 1
 102   49  148 1
 103   50  149 1
 104   50  150 1
 105   50  151 1
 106   51  152 1
 107   51  153 1
 108   51  154 1
 109   52   57 1
 110   52   53 1
 111   52  155 1
 112   52  156 1
 113   53   55 1
 114   53   54 1
 115   53  157 1
 116   54   56 2
 117   54   62 am
 118   55  158 1
 119   57   58 1
 120   57  159 1
 121   57  160 1
 122   58   59 1
 123   58  161 1
 124   58  162 1
 125   59   60 1
 126   59  163 1
 127   59  164 1
 128   60  165 1
 129   60  166 1
 130   61   67 2
 131   61   63 1
 132   61   70 am
 133   62   66 1
 134   62   63 1
 135   63   64 1
 136   63  167 1
 137   64   65 1
 138   64  168 1
 139   64  169 1
 140   65   66 1
 141   65  170 1
 142   65  171 1
 143   66  172 1
 144   66  173 1
 145   68   69 1
 146   68   70 1
 147   68  174 1
 148   68  175 1
 149   69   71 2
 150   69   75 am
 151   70  176 1
 152   72   77 1
 153   72   73 1
 154   72  177 1
 155   72  178 1
 156   73   75 1
 157   73   74 1
 158   73  179 1
 159   74   76 2
 160   74   82 am
 161   75  180 1
 162   77   78 1
 163   77  181 1
 164   77  182 1
 165   78   79 2
 166   78   80 am
 167   80  183 1
 168   80  184 1
 169   81   87 2
 170   81   83 1
 171   82   86 1
 172   82   83 1
 173   83   84 1
 174   83  185 1
 175   84   85 1
 176   84  186 1
 177   84  187 1
 178   85   86 1
 179   85  188 1
 180   85  189 1
 181   86  190 1
 182   86  191 1
 183   88   93 1
 184   88   89 1
 185   88  192 1
 186   88  193 1
 187   89   90 1
 188   89   91 1
 189   89  194 1
 190   90   92 2
 191   91  195 1
 192   93   94 2
 193   93   97 1
 194   94   95 1
 195   94  196 1
 196   95   96 1
 197   95  197 1
 198   96   97 ar
 199   96   98 ar
 200   97  101 ar
 201   98   99 ar
 202   98  198 1
 203   99  100 ar
 204   99  199 1
 205  100  101 ar
 206  100  200 1
 207  101  201 1

#	End of record

