#	Name: ASD10610045
#	Creating user name:	WinNT
#	Creation time:	15. 06. 2019 21:27

#	Modifying user name:	WinNT
#	Modification time:	15. 06. 2019 21:27

#	Program:	/corina/corina34_cracker 3.40 0067  02.08.2006

@<TRIPOS>MOLECULE
ASD10610045
  58   61    0    0    0
SMALL
NO_CHARGES


@<TRIPOS>ATOM
   1 O1            -0.4620    -0.7071     0.1240 O.3     
   2 C2             0.8592    -1.2632     0.1298 C.3     
   3 C3             1.3681     0.0591     0.7168 C.3     
   4 C4             0.1304     0.5907    -0.0164 C.3     
   5 C5             1.2926     0.1478     2.2193 C.2     
   6 O6             0.3474     0.6941     2.7477 O.2     
   7 N7             2.2753    -0.3798     2.9758 N.am    
   8 C8             2.2582    -0.1984     4.4294 C.3     
   9 C9             2.9055     1.1419     4.7838 C.3     
  10 C10            3.0277    -1.3165     5.0842 C.ar    
  11 C11            2.4970    -1.9499     6.1965 C.ar    
  12 C12            3.2091    -2.9779     6.7943 C.ar    
  13 C13            4.4437    -3.3355     6.2446 C.ar    
  14 C14            4.9075    -2.6487     5.1241 C.ar    
  15 N15            4.1934    -1.6810     4.5866 N.ar    
  16 F16            1.2995    -1.5694     6.6930 F       
  17 C17            5.2471    -4.4276     6.8443 C.ar    
  18 C18            5.7557    -5.4559     6.0347 C.ar    
  19 C19            6.5099    -6.4776     6.6105 C.ar    
  20 C20            6.7526    -6.4734     7.9720 C.ar    
  21 C21            6.2498    -5.4586     8.7689 C.ar    
  22 C22            5.5057    -4.4357     8.2115 C.ar    
  23 O23            4.7757    -4.8518     2.7337 O.3     
  24 N24            4.8039    -4.5631     3.9114 N.2     
  25 C25            5.4920    -5.4556     4.5764 C.2     
  26 N26            5.9181    -6.3776     3.6829 N.2     
  27 C27            5.4574    -5.9821     2.5225 C.2     
  28 C28            5.6580    -6.6719     1.1978 C.3     
  29 F29            7.0028    -7.4712     5.8391 F       
  30 Cl30           6.5624    -5.4671    10.4765 Cl      
  31 N31            2.6459     0.5180     0.1665 N.am    
  32 C32            3.1390     1.7213     0.5207 C.2     
  33 O33            2.5715     2.3852     1.3622 O.2     
  34 C34            4.3953     2.2417    -0.1287 C.3     
  35 O35            4.7130     3.5265     0.4101 O.3     
  36 C36            5.8940     4.1123    -0.1415 C.3     
  37 H37            0.9698    -2.1090     0.8085 H       
  38 H38            1.2456    -1.4710    -0.8680 H       
  39 H39            0.3266     0.8670    -1.0524 H       
  40 H40           -0.3976     1.3693     0.5342 H       
  41 H41            2.9938    -0.8797     2.5578 H       
  42 H42            1.2279    -0.2096     4.7849 H       
  43 H43            2.3490     1.9506     4.3101 H       
  44 H44            2.8929     1.2768     5.8653 H       
  45 H45            3.9359     1.1530     4.4283 H       
  46 H46            2.8203    -3.4892     7.6625 H       
  47 H47            5.8597    -2.9151     4.6897 H       
  48 H48            7.3371    -7.2656     8.4160 H       
  49 H49            5.1210    -3.6448     8.8382 H       
  50 H50            5.1564    -6.1051     0.4134 H       
  51 H51            6.7238    -6.7324     0.9774 H       
  52 H52            5.2389    -7.6770     1.2444 H       
  53 H53            3.1371    -0.0442    -0.4529 H       
  54 H54            5.2172     1.5527     0.0659 H       
  55 H55            4.2398     2.3271    -1.2042 H       
  56 H56            6.0662     5.0850     0.3191 H       
  57 H57            6.7469     3.4621     0.0529 H       
  58 H58            5.7695     4.2365    -1.2172 H       
@<TRIPOS>BOND
   1    1    2 1
   2    1    4 1
   3    2    3 1
   4    2   37 1
   5    2   38 1
   6    3    4 1
   7    3    5 1
   8    3   31 1
   9    4   39 1
  10    4   40 1
  11    5    6 2
  12    5    7 am
  13    7    8 1
  14    7   41 1
  15    8    9 1
  16    8   10 1
  17    8   42 1
  18    9   43 1
  19    9   44 1
  20    9   45 1
  21   10   11 ar
  22   10   15 ar
  23   11   12 ar
  24   11   16 1
  25   12   13 ar
  26   12   46 1
  27   13   14 ar
  28   13   17 1
  29   14   15 ar
  30   14   47 1
  31   17   18 ar
  32   17   22 ar
  33   18   19 ar
  34   18   25 1
  35   19   20 ar
  36   19   29 1
  37   20   21 ar
  38   20   48 1
  39   21   22 ar
  40   21   30 1
  41   22   49 1
  42   23   24 1
  43   23   27 1
  44   24   25 2
  45   25   26 1
  46   26   27 2
  47   27   28 1
  48   28   50 1
  49   28   51 1
  50   28   52 1
  51   31   32 am
  52   31   53 1
  53   32   33 2
  54   32   34 1
  55   34   35 1
  56   34   54 1
  57   34   55 1
  58   35   36 1
  59   36   56 1
  60   36   57 1
  61   36   58 1

#	End of record

