#	Name: ASD10410152
#	Creating user name:	WinNT
#	Creation time:	15. 06. 2019 21:27

#	Modifying user name:	WinNT
#	Modification time:	15. 06. 2019 21:27

#	Program:	/corina/corina34_cracker 3.40 0067  02.08.2006

@<TRIPOS>MOLECULE
ASD10410152
  61   66    0    0    0
SMALL
NO_CHARGES


@<TRIPOS>ATOM
   1 C1            -0.0183     1.3898    -0.0790 C.ar    
   2 C2            -0.0056     0.0094     0.0250 C.ar    
   3 C3             1.1828    -0.6697     0.1132 C.ar    
   4 C4             2.3830     0.0156     0.0987 C.ar    
   5 C5             2.3800     1.4019    -0.0055 C.ar    
   6 C6             1.1748     2.0867    -0.0943 C.ar    
   7 N7             3.5874     2.1051    -0.0210 N.pl3   
   8 C8             3.6809     3.3152    -0.7085 C.2     
   9 N9             4.7241     4.1096    -0.7103 N.2     
  10 N10            2.7224     3.8474    -1.4757 N.2     
  11 C11            3.1375     4.9922    -1.9742 C.2     
  12 N12            4.4013     5.2093    -1.5217 N.pl3   
  13 N13            2.4186     5.8238    -2.8110 N.pl3   
  14 C14            5.2138     6.3044    -1.8064 C.ar    
  15 C15           -1.3173    -0.7480     0.0396 C.3     
  16 C16           -1.5417    -1.3018     1.4488 C.3     
  17 C17           -0.8471    -2.6380     1.6227 C.3     
  18 C18            0.6669    -2.5633     1.6146 C.3     
  19 C19            1.1886    -2.1802     0.2269 C.3     
  20 N20           -1.2779    -3.2244     2.8988 N.3     
  21 N21            4.7795     7.2795    -2.5942 N.ar    
  22 C22            6.5023     6.3970    -1.2602 C.ar    
  23 C23            5.5464     8.3209    -2.8677 C.ar    
  24 N24            6.7586     8.4493    -2.3861 N.ar    
  25 C25            7.2883     7.5115    -1.5691 C.ar    
  26 C26            8.5509     7.4639    -0.9574 C.2     
  27 C27            8.7851     6.4026    -0.2020 C.2     
  28 S28            7.3980     5.3263    -0.1924 S.3     
  29 C29            9.5753     8.5524    -1.1493 C.3     
  30 Cl30           4.9241     9.5661    -3.9050 Cl      
  31 C31           -2.7378    -3.4301     2.9197 C.3     
  32 C32           -2.9846    -4.9262     3.2062 C.3     
  33 C33           -1.6673    -5.3725     3.8935 C.3     
  34 C34           -0.6158    -4.5251     3.1345 C.3     
  35 H35           -0.9566     1.9194    -0.1524 H       
  36 H36            3.3169    -0.5222     0.1684 H       
  37 H37            1.1702     3.1637    -0.1749 H       
  38 H38            4.3605     1.7518     0.4463 H       
  39 H39            1.5195     5.5801    -3.0815 H       
  40 H40            2.8129     6.6514    -3.1279 H       
  41 H41           -2.1325    -0.0739    -0.2231 H       
  42 H42           -1.2735    -1.5703    -0.6745 H       
  43 H43           -1.1465    -0.5951     2.1785 H       
  44 H44           -2.6110    -1.4293     1.6175 H       
  45 H45           -1.1649    -3.3002     0.8173 H       
  46 H46            0.9925    -1.8165     2.3387 H       
  47 H47            1.0749    -3.5345     1.8950 H       
  48 H48            0.5414    -2.6080    -0.5387 H       
  49 H49            2.2051    -2.5531     0.1018 H       
  50 H50            9.7056     6.2216     0.3331 H       
  51 H51            9.4457     9.3130    -0.3794 H       
  52 H52           10.5760     8.1267    -1.0747 H       
  53 H53            9.4452     9.0046    -2.1324 H       
  54 H54           -3.1866    -2.8231     3.7060 H       
  55 H55           -3.1639    -3.1625     1.9528 H       
  56 H56           -3.8329    -5.0551     3.8784 H       
  57 H57           -3.1403    -5.4758     2.2778 H       
  58 H58           -1.6769    -5.1239     4.9547 H       
  59 H59           -1.4910    -6.4379     3.7452 H       
  60 H60           -0.3600    -4.9980     2.1864 H       
  61 H61            0.2766    -4.3914     3.7459 H       
@<TRIPOS>BOND
   1    1    2 ar
   2    1    6 ar
   3    1   35 1
   4    2    3 ar
   5    2   15 1
   6    3    4 ar
   7    3   19 1
   8    4    5 ar
   9    4   36 1
  10    5    6 ar
  11    5    7 1
  12    6   37 1
  13    7    8 1
  14    7   38 1
  15    8    9 2
  16    8   10 1
  17    9   12 1
  18   10   11 2
  19   11   12 1
  20   11   13 1
  21   12   14 1
  22   13   39 1
  23   13   40 1
  24   14   21 ar
  25   14   22 ar
  26   15   16 1
  27   15   41 1
  28   15   42 1
  29   16   17 1
  30   16   43 1
  31   16   44 1
  32   17   18 1
  33   17   20 1
  34   17   45 1
  35   18   19 1
  36   18   46 1
  37   18   47 1
  38   19   48 1
  39   19   49 1
  40   20   31 1
  41   20   34 1
  42   21   23 ar
  43   22   25 ar
  44   22   28 1
  45   23   24 ar
  46   23   30 1
  47   24   25 ar
  48   25   26 1
  49   26   27 2
  50   26   29 1
  51   27   28 1
  52   27   50 1
  53   29   51 1
  54   29   52 1
  55   29   53 1
  56   31   32 1
  57   31   54 1
  58   31   55 1
  59   32   33 1
  60   32   56 1
  61   32   57 1
  62   33   34 1
  63   33   58 1
  64   33   59 1
  65   34   60 1
  66   34   61 1

#	End of record

