#	Name: ASD10610154
#	Creating user name:	WinNT
#	Creation time:	15. 06. 2019 21:28

#	Modifying user name:	WinNT
#	Modification time:	15. 06. 2019 21:28

#	Program:	/corina/corina34_cracker 3.40 0067  02.08.2006

@<TRIPOS>MOLECULE
ASD10610154
  42   45    0    0    0
SMALL
NO_CHARGES


@<TRIPOS>ATOM
   1 O1             0.7388    -1.8598    -0.2647 O.3     
   2 C2             2.0024    -1.1942    -0.1419 C.3     
   3 C3             1.3528     0.0600    -0.7394 C.3     
   4 C4             0.1009    -0.5831    -0.1301 C.3     
   5 C5             1.7724     1.3532    -0.0894 C.2     
   6 O6             2.1798     1.3533     1.0481 O.2     
   7 O7             1.6935     2.5051    -0.7741 O.3     
   8 N8             1.3601     0.1110    -2.2035 N.am    
   9 C9             2.5294     0.1901    -2.8692 C.2     
  10 O10            3.5710     0.3112    -2.2553 O.2     
  11 O11            2.5433     0.1350    -4.2144 O.3     
  12 C12            3.8383     0.2263    -4.8645 C.3     
  13 C13            3.6544     0.1459    -6.3813 C.3     
  14 C14            4.9759     0.3618    -7.0771 C.ar    
  15 C15            5.8522     1.4264    -7.0906 C.ar    
  16 C16            7.0180     1.3545    -7.8320 C.ar    
  17 C17            7.3070     0.2152    -8.5616 C.ar    
  18 C18            6.4360    -0.8542    -8.5544 C.ar    
  19 C19            5.2578    -0.7889    -7.8081 C.ar    
  20 C20            4.1623    -1.7726    -7.6231 C.ar    
  21 C21            3.9827    -3.0569    -8.1404 C.ar    
  22 C22            2.8560    -3.7809    -7.8108 C.ar    
  23 C23            1.9014    -3.2398    -6.9683 C.ar    
  24 C24            2.0726    -1.9675    -6.4523 C.ar    
  25 C25            3.1960    -1.2365    -6.7765 C.ar    
  26 H26            2.3245    -1.0643     0.8914 H       
  27 H27            2.7802    -1.6219    -0.7745 H       
  28 H28           -0.7875    -0.4755    -0.7525 H       
  29 H29           -0.0736    -0.2936     0.9061 H       
  30 H30            1.9739     3.3087    -0.3151 H       
  31 H31            0.5235     0.0878    -2.6939 H       
  32 H32            4.3089     1.1747    -4.6054 H       
  33 H33            4.4710    -0.5963    -4.5311 H       
  34 H34            2.9304     0.8910    -6.7111 H       
  35 H35            5.6285     2.3167    -6.5216 H       
  36 H36            7.7034     2.1892    -7.8415 H       
  37 H37            8.2179     0.1631    -9.1394 H       
  38 H38            6.6652    -1.7416    -9.1257 H       
  39 H39            4.7254    -3.4831    -8.7985 H       
  40 H40            2.7185    -4.7742    -8.2118 H       
  41 H41            1.0212    -3.8112    -6.7132 H       
  42 H42            1.3261    -1.5468    -5.7950 H       
@<TRIPOS>BOND
   1    1    2 1
   2    1    4 1
   3    2    3 1
   4    2   26 1
   5    2   27 1
   6    3    4 1
   7    3    5 1
   8    3    8 1
   9    4   28 1
  10    4   29 1
  11    5    6 2
  12    5    7 1
  13    7   30 1
  14    8    9 am
  15    8   31 1
  16    9   10 2
  17    9   11 1
  18   11   12 1
  19   12   13 1
  20   12   32 1
  21   12   33 1
  22   13   14 1
  23   13   25 1
  24   13   34 1
  25   14   15 ar
  26   14   19 ar
  27   15   16 ar
  28   15   35 1
  29   16   17 ar
  30   16   36 1
  31   17   18 ar
  32   17   37 1
  33   18   19 ar
  34   18   38 1
  35   19   20 1
  36   20   21 ar
  37   20   25 ar
  38   21   22 ar
  39   21   39 1
  40   22   23 ar
  41   22   40 1
  42   23   24 ar
  43   23   41 1
  44   24   25 ar
  45   24   42 1

#	End of record

