#	Name: ASD13490045
#	Creating user name:	WinNT
#	Creation time:	15. 06. 2019 21:30

#	Modifying user name:	WinNT
#	Modification time:	15. 06. 2019 21:30

#	Program:	/corina/corina34_cracker 3.40 0067  02.08.2006

@<TRIPOS>MOLECULE
ASD13490045
  48   52    0    0    0
SMALL
NO_CHARGES


@<TRIPOS>ATOM
   1 C1            -0.0167     1.3828     0.0096 C.ar    
   2 C2             0.0021    -0.0041     0.0020 C.ar    
   3 C3             1.2120    -0.6827    -0.0136 C.ar    
   4 C4             2.3989     0.0254    -0.0078 C.ar    
   5 C5             2.3847     1.4127     0.0138 C.ar    
   6 C6             1.1739     2.0997     0.0021 C.ar    
   7 N7            -1.2041    -0.7216     0.0105 N.pl3   
   8 C8            -2.4561    -0.1958     0.0257 C.2     
   9 N9            -3.3185    -1.1756     0.0295 N.2     
  10 C10           -2.6622    -2.3452     0.0171 C.2     
  11 C11           -1.3409    -2.0854    -0.0009 C.2     
  12 C12           -3.2941    -3.7133     0.0173 C.3     
  13 N13            1.1218     3.4908    -0.0563 N.am    
  14 N14            3.6009     2.1074     0.0885 N.pl3   
  15 C15            1.9050     4.3453     0.5831 C.2     
  16 C16            3.8558     2.9091     1.1870 C.ar    
  17 C17            3.0086     3.9876     1.4793 C.ar    
  18 O18            1.6906     5.5297     0.4119 O.2     
  19 C19            3.2379     4.7312     2.6426 C.ar    
  20 N20            4.8937     2.6449     1.9684 N.ar    
  21 C21            5.1393     3.3450     3.0583 C.ar    
  22 C22            4.3206     4.3934     3.4361 C.ar    
  23 C23            6.3348     2.9968     3.9072 C.3     
  24 C24            6.2685     1.5423     4.2958 C.ar    
  25 C25            5.5577    -0.1684     5.8127 C.ar    
  26 C26            5.6185     1.1658     5.4562 C.ar    
  27 C27            6.8529     0.5840     3.4889 C.ar    
  28 C28            6.7921    -0.7502     3.8454 C.ar    
  29 C29            6.1474    -1.1261     5.0090 C.ar    
  30 H30           -0.9605     1.9078     0.0170 H       
  31 H31            1.2265    -1.7624    -0.0298 H       
  32 H32            3.3407    -0.5029    -0.0198 H       
  33 H33           -2.6977     0.8568     0.0337 H       
  34 H34           -0.5422    -2.8123    -0.0181 H       
  35 H35           -3.4569    -4.0385    -1.0102 H       
  36 H36           -2.6334    -4.4186     0.5213 H       
  37 H37           -4.2492    -3.6723     0.5411 H       
  38 H38            0.4380     3.8746    -0.6274 H       
  39 H39            4.2563     2.0263    -0.6220 H       
  40 H40            2.5864     5.5485     2.9143 H       
  41 H41            4.5240     4.9437     4.3428 H       
  42 H42            7.2481     3.1805     3.3414 H       
  43 H43            6.3341     3.6134     4.8061 H       
  44 H44            5.0501    -0.4625     6.7195 H       
  45 H45            5.1584     1.9141     6.0845 H       
  46 H46            7.3566     0.8777     2.5798 H       
  47 H47            7.2481    -1.4990     3.2146 H       
  48 H48            6.0999    -2.1685     5.2874 H       
@<TRIPOS>BOND
   1    1    2 ar
   2    1    6 ar
   3    1   30 1
   4    2    3 ar
   5    2    7 1
   6    3    4 ar
   7    3   31 1
   8    4    5 ar
   9    4   32 1
  10    5    6 ar
  11    5   14 1
  12    6   13 1
  13    7    8 1
  14    7   11 1
  15    8    9 2
  16    8   33 1
  17    9   10 1
  18   10   11 2
  19   10   12 1
  20   11   34 1
  21   12   35 1
  22   12   36 1
  23   12   37 1
  24   13   15 am
  25   13   38 1
  26   14   16 1
  27   14   39 1
  28   15   17 1
  29   15   18 2
  30   16   20 ar
  31   16   17 ar
  32   17   19 ar
  33   19   22 ar
  34   19   40 1
  35   20   21 ar
  36   21   22 ar
  37   21   23 1
  38   22   41 1
  39   23   24 1
  40   23   42 1
  41   23   43 1
  42   24   27 ar
  43   24   26 ar
  44   25   26 ar
  45   25   29 ar
  46   25   44 1
  47   26   45 1
  48   27   28 ar
  49   27   46 1
  50   28   29 ar
  51   28   47 1
  52   29   48 1

#	End of record

