#	Name: ASD10160073
#	Creating user name:	WinNT
#	Creation time:	15. 06. 2019 21:25

#	Modifying user name:	WinNT
#	Modification time:	15. 06. 2019 21:25

#	Program:	/corina/corina34_cracker 3.40 0067  02.08.2006

@<TRIPOS>MOLECULE
ASD10160073
  41   42    0    0    0
SMALL
NO_CHARGES


@<TRIPOS>ATOM
   1 C1            -0.4000     1.1080    -1.9496 C.2     
   2 C2            -0.2797    -0.2712    -1.4422 C.ar    
   3 C3             0.9042    -0.9918    -1.6411 C.ar    
   4 C4             1.0116    -2.2823    -1.1636 C.ar    
   5 C5            -0.0522    -2.8650    -0.4872 C.ar    
   6 C6            -1.2306    -2.1516    -0.2881 C.ar    
   7 C7            -1.3451    -0.8613    -0.7559 C.ar    
   8 O8             0.5297     1.6213    -2.5419 O.2     
   9 N9            -1.5426     1.7978    -1.7618 N.am    
  10 S10           -1.6778     3.3468    -2.3317 S.o2    
  11 O11           -2.9802     3.7537    -1.9349 O.2     
  12 O12           -0.5211     4.0054    -1.8342 O.2     
  13 C13           -1.5864     3.1751    -4.1352 C.3     
  14 O14            0.0574    -4.1341    -0.0193 O.3     
  15 C15            3.6291    -5.9842    -0.3737 C.ar    
  16 N16            3.3839    -5.2590     0.7050 N.ar    
  17 C17            2.2252    -4.6384     0.8555 C.ar    
  18 C18            1.2604    -4.7569    -0.1388 C.ar    
  19 C19            1.5548    -5.5278    -1.2579 C.ar    
  20 N20            2.7354    -6.1193    -1.3394 N.ar    
  21 O21            4.8301    -6.6007    -0.4952 O.3     
  22 C22            5.0465    -7.3722    -1.6784 C.3     
  23 C23            6.5353    -7.3588    -2.0308 C.3     
  24 C24            4.5923    -8.8133    -1.4378 C.3     
  25 F25            1.9390    -0.4253    -2.2994 F       
  26 Cl26          -2.5561    -2.8872     0.5578 Cl      
  27 H27            1.9239    -2.8398    -1.3164 H       
  28 H28           -2.2586    -0.3076    -0.5967 H       
  29 H29           -2.2857     1.3870    -1.2928 H       
  30 H30           -2.4027     2.5414    -4.4817 H       
  31 H31           -1.6681     4.1584    -4.5984 H       
  32 H32           -0.6335     2.7224    -4.4093 H       
  33 H33            2.0312    -4.0482     1.7388 H       
  34 H34            0.8294    -5.6425    -2.0498 H       
  35 H35            4.4744    -6.9436    -2.5013 H       
  36 H36            7.1073    -7.7874    -1.2079 H       
  37 H37            6.7004    -7.9472    -2.9334 H       
  38 H38            6.8588    -6.3321    -2.2023 H       
  39 H39            3.5317    -8.8229    -1.1867 H       
  40 H40            4.7574    -9.4018    -2.3403 H       
  41 H41            5.1644    -9.2419    -0.6149 H       
@<TRIPOS>BOND
   1    1    2 1
   2    1    8 2
   3    1    9 am
   4    2    3 ar
   5    2    7 ar
   6    3    4 ar
   7    3   25 1
   8    4    5 ar
   9    4   27 1
  10    5    6 ar
  11    5   14 1
  12    6    7 ar
  13    6   26 1
  14    7   28 1
  15    9   10 am
  16    9   29 1
  17   10   11 2
  18   10   12 2
  19   10   13 1
  20   13   30 1
  21   13   31 1
  22   13   32 1
  23   14   18 1
  24   15   16 ar
  25   15   20 ar
  26   15   21 1
  27   16   17 ar
  28   17   18 ar
  29   17   33 1
  30   18   19 ar
  31   19   20 ar
  32   19   34 1
  33   21   22 1
  34   22   23 1
  35   22   24 1
  36   22   35 1
  37   23   36 1
  38   23   37 1
  39   23   38 1
  40   24   39 1
  41   24   40 1
  42   24   41 1

#	End of record

