#	Name: ASD10420201
#	Creating user name:	WinNT
#	Creation time:	15. 06. 2019 21:27

#	Modifying user name:	WinNT
#	Modification time:	15. 06. 2019 21:27

#	Program:	/corina/corina34_cracker 3.40 0067  02.08.2006

@<TRIPOS>MOLECULE
ASD10420201
  33   34    0    0    0
SMALL
NO_CHARGES


@<TRIPOS>ATOM
   1 C1             0.1581     1.4868     0.4003 C.3     
   2 C2             3.3420    -6.1994    -1.5893 C.ar    
   3 C3             3.4850    -4.8979    -1.1448 C.ar    
   4 C4             2.1126    -6.8282    -1.5149 C.ar    
   5 C5             0.2635    -0.7947     1.4237 C.ar    
   6 C6             0.2392    -2.1717     1.3249 C.ar    
   7 C7            -0.0248    -0.6126    -0.9491 C.ar    
   8 C8            -0.2214    -2.6390    -2.4043 C.3     
   9 C9            -1.6778    -2.9544    -2.6289 C.2     
  10 C10            0.1317    -0.0158     0.2883 C.ar    
  11 C11            2.3977    -4.2201    -0.6239 C.ar    
  12 C12            1.0212    -6.1575    -0.9955 C.ar    
  13 C13           -0.0504    -1.9895    -1.0553 C.ar    
  14 C14            0.0821    -2.7748     0.0829 C.ar    
  15 C15            1.1602    -4.8495    -0.5477 C.ar    
  16 N16            0.0576    -4.1676    -0.0209 N.pl3   
  17 O17           -2.4933    -2.6799    -1.7806 O.2     
  18 O18           -2.0692    -3.5403    -3.7714 O.3     
  19 Cl19          -0.5213    -6.9485    -0.9028 Cl      
  20 F20            2.5379    -2.9486    -0.1893 F       
  21 H21            1.1846     1.8404     0.3029 H       
  22 H22           -0.4524     1.9210    -0.3915 H       
  23 H23           -0.2387     1.7859     1.3704 H       
  24 H24            4.1917    -6.7248    -1.9997 H       
  25 H25            4.4467    -4.4101    -1.2042 H       
  26 H26            2.0050    -7.8447    -1.8634 H       
  27 H27            0.3810    -0.3252     2.3892 H       
  28 H28            0.3425    -2.7792     2.2117 H       
  29 H29           -0.1274    -0.0014    -1.8336 H       
  30 H30            0.3596    -3.5605    -2.4401 H       
  31 H31            0.1272    -1.9592    -3.1817 H       
  32 H32           -0.7238    -4.6621     0.2723 H       
  33 H33           -3.0137    -3.7230    -3.8700 H       
@<TRIPOS>BOND
   1    1   10 1
   2    1   21 1
   3    1   22 1
   4    1   23 1
   5    2    3 ar
   6    2    4 ar
   7    2   24 1
   8    3   11 ar
   9    3   25 1
  10    4   12 ar
  11    4   26 1
  12    5    6 ar
  13    5   10 ar
  14    5   27 1
  15    6   14 ar
  16    6   28 1
  17    7   10 ar
  18    7   13 ar
  19    7   29 1
  20    8    9 1
  21    8   13 1
  22    8   30 1
  23    8   31 1
  24    9   17 2
  25    9   18 1
  26   11   15 ar
  27   11   20 1
  28   12   15 ar
  29   12   19 1
  30   13   14 ar
  31   14   16 1
  32   15   16 1
  33   16   32 1
  34   18   33 1

#	End of record

