#	Name: ASD11920065
#	Creating user name:	WinNT
#	Creation time:	15. 06. 2019 21:29

#	Modifying user name:	WinNT
#	Modification time:	15. 06. 2019 21:29

#	Program:	/corina/corina34_cracker 3.40 0067  02.08.2006

@<TRIPOS>MOLECULE
ASD11920065
  45   47    0    0    0
SMALL
NO_CHARGES


@<TRIPOS>ATOM
   1 Cl1            0.1516    -5.0793    -0.9033 Cl      
   2 C2            -0.4872     1.4661     0.2273 C.3     
   3 C3             0.3250    -2.6753     0.3277 C.ar    
   4 C4             2.4274    -2.0620     4.5230 C.ar    
   5 C5             3.8144    -2.0763     4.4502 C.ar    
   6 C6             4.5618    -2.6086     5.4852 C.ar    
   7 C7             3.9352    -3.1293     6.5979 C.ar    
   8 C8             2.5390    -3.1199     6.6814 C.ar    
   9 C9             1.7861    -2.5817     5.6346 C.ar    
  10 C10            1.8656    -3.6751     7.8670 C.2     
  11 C11           -0.2608    -0.0435     0.1244 C.3     
  12 C12            1.3578     2.5420    -0.9334 C.2     
  13 C13            3.2022     3.4348     0.1892 C.2     
  14 C14            2.6324     3.0331     1.4214 C.2     
  15 C15            1.4406     2.3985     1.4183 C.2     
  16 N16            0.8058     2.1548     0.2308 N.am    
  17 N17            2.5446     3.1764    -0.9592 N.am    
  18 O18            1.6996    -1.5325     3.5051 O.3     
  19 O19            0.4104    -0.5056     1.2983 O.3     
  20 C20            0.6092    -4.0273     0.3996 C.ar    
  21 C21            1.2570    -4.5427     1.5082 C.ar    
  22 C22            1.6225    -3.7090     2.5485 C.ar    
  23 C23            1.3410    -2.3536     2.4821 C.ar    
  24 C24            0.6893    -1.8347     1.3672 C.ar    
  25 O25            0.7787     2.3112    -1.9773 O.2     
  26 O26            4.2762     4.0084     0.1668 O.2     
  27 C27            2.5949    -4.1941     8.8752 C.2     
  28 C28            1.9399    -4.7342    10.0284 C.1     
  29 N29            1.4203    -5.1626    10.9433 N.1     
  30 H30           -1.0765     1.8041    -0.6252 H       
  31 H31           -1.0214     1.6913     1.1503 H       
  32 H32           -0.1768    -2.2744    -0.5406 H       
  33 H33            4.3113    -1.6704     3.5815 H       
  34 H34            5.6399    -2.6167     5.4216 H       
  35 H35            4.5221    -3.5444     7.4039 H       
  36 H36            0.7077    -2.5709     5.6925 H       
  37 H37            0.7875    -3.6667     7.9292 H       
  38 H38           -1.2218    -0.5496     0.0323 H       
  39 H39            0.3496    -0.2605    -0.7522 H       
  40 H40            3.1441     3.2318     2.3515 H       
  41 H41            0.9907     2.0843     2.3485 H       
  42 H42            2.9286     3.4485    -1.8074 H       
  43 H43            1.4773    -5.5987     1.5611 H       
  44 H44            2.1274    -4.1139     3.4130 H       
  45 H45            3.6731    -4.2026     8.8131 H       
@<TRIPOS>BOND
   1    1   20 1
   2    2   11 1
   3    2   16 1
   4    2   30 1
   5    2   31 1
   6    3   20 ar
   7    3   24 ar
   8    3   32 1
   9    4    5 ar
  10    4    9 ar
  11    4   18 1
  12    5    6 ar
  13    5   33 1
  14    6    7 ar
  15    6   34 1
  16    7    8 ar
  17    7   35 1
  18    8    9 ar
  19    8   10 1
  20    9   36 1
  21   10   27 2
  22   10   37 1
  23   11   19 1
  24   11   38 1
  25   11   39 1
  26   12   16 am
  27   12   17 am
  28   12   25 2
  29   13   14 1
  30   13   17 am
  31   13   26 2
  32   14   15 2
  33   14   40 1
  34   15   16 1
  35   15   41 1
  36   17   42 1
  37   18   23 1
  38   19   24 1
  39   20   21 ar
  40   21   22 ar
  41   21   43 1
  42   22   23 ar
  43   22   44 1
  44   23   24 ar
  45   27   28 1
  46   27   45 1
  47   28   29 3

#	End of record

