#	Name: ASD11920001
#	Creating user name:	WinNT
#	Creation time:	15. 06. 2019 21:29

#	Modifying user name:	WinNT
#	Modification time:	15. 06. 2019 21:29

#	Program:	/corina/corina34_cracker 3.40 0067  02.08.2006

@<TRIPOS>MOLECULE
ASD11920001
  49   51    0    0    0
SMALL
NO_CHARGES


@<TRIPOS>ATOM
   1 C1             0.0069     1.3439     0.0394 C.ar    
   2 C2            -0.0267    -0.0392     0.1677 C.ar    
   3 N3            -1.1543    -0.7094     0.1516 N.ar    
   4 C4            -2.3348    -0.0979     0.0108 C.ar    
   5 C5            -2.3905     1.3103    -0.1261 C.ar    
   6 C6            -1.1809     2.0492    -0.1049 C.ar    
   7 C7            -3.5334    -0.8330    -0.0047 C.ar    
   8 C8            -4.7214    -0.1849    -0.1500 C.ar    
   9 C9            -4.7719     1.2006    -0.2847 C.ar    
  10 C10           -3.6308     1.9452    -0.2738 C.ar    
  11 C11            1.3244     2.0753     0.0630 C.3     
  12 C12            1.8813     2.0619     1.4632 C.2     
  13 O13            2.9106     1.4743     1.6984 O.2     
  14 C14            1.2693    -0.7910     0.3294 C.3     
  15 O15            1.2340     2.7027     2.4492 O.3     
  16 O16            2.2431     1.4303    -0.8212 O.3     
  17 C17            3.2051     2.3117    -1.4040 C.3     
  18 C18            4.0307     2.9697    -0.2966 C.3     
  19 C19            4.1313     1.5175    -2.3272 C.3     
  20 C20            2.4833     3.3919    -2.2122 C.3     
  21 C21           -1.1828     3.5235    -0.2440 C.ar    
  22 C22           -1.7738     4.3186     0.7382 C.ar    
  23 C23           -0.5886     4.1227    -1.3548 C.ar    
  24 C24           -0.5928     5.4965    -1.4790 C.ar    
  25 C25           -1.1851     6.2806    -0.5034 C.ar    
  26 C26           -1.7723     5.6915     0.6037 C.ar    
  27 Cl27          -1.1864     8.0090    -0.6659 Cl      
  28 H28           -3.5114    -1.9079     0.0979 H       
  29 H29           -5.6393    -0.7539    -0.1613 H       
  30 H30           -5.7274     1.6908    -0.3989 H       
  31 H31           -3.6821     3.0189    -0.3787 H       
  32 H32            1.1736     3.1059    -0.2582 H       
  33 H33            1.5705    -0.7746     1.3769 H       
  34 H34            1.1333    -1.8232     0.0066 H       
  35 H35            2.0414    -0.3190    -0.2781 H       
  36 H36            1.6299     2.6660     3.3307 H       
  37 H37            4.5449     2.2002     0.2792 H       
  38 H38            4.7645     3.6420    -0.7411 H       
  39 H39            3.3709     3.5355     0.3611 H       
  40 H40            3.5431     1.0487    -3.1161 H       
  41 H41            4.8650     2.1898    -2.7717 H       
  42 H42            4.6455     0.7479    -1.7514 H       
  43 H43            1.8235     3.9577    -1.5546 H       
  44 H44            3.2171     4.0643    -2.6567 H       
  45 H45            1.8952     2.9232    -3.0012 H       
  46 H46           -2.2320     3.8601     1.6021 H       
  47 H47           -0.1257     3.5121    -2.1159 H       
  48 H48           -0.1330     5.9614    -2.3386 H       
  49 H49           -2.2328     6.3078     1.3617 H       
@<TRIPOS>BOND
   1    1    2 ar
   2    1   11 1
   3    1    6 ar
   4    2    3 ar
   5    2   14 1
   6    3    4 ar
   7    4    5 ar
   8    4    7 ar
   9    5    6 ar
  10    5   10 ar
  11    6   21 1
  12    7    8 ar
  13    7   28 1
  14    8    9 ar
  15    8   29 1
  16    9   10 ar
  17    9   30 1
  18   10   31 1
  19   11   12 1
  20   11   16 1
  21   11   32 1
  22   12   13 2
  23   12   15 1
  24   14   33 1
  25   14   34 1
  26   14   35 1
  27   15   36 1
  28   16   17 1
  29   17   18 1
  30   17   19 1
  31   17   20 1
  32   18   37 1
  33   18   38 1
  34   18   39 1
  35   19   40 1
  36   19   41 1
  37   19   42 1
  38   20   43 1
  39   20   44 1
  40   20   45 1
  41   21   22 ar
  42   21   23 ar
  43   22   26 ar
  44   22   46 1
  45   23   24 ar
  46   23   47 1
  47   24   25 ar
  48   24   48 1
  49   25   26 ar
  50   25   27 1
  51   26   49 1

#	End of record

