#	Name: ASD11800001
#	Creating user name:	WinNT
#	Creation time:	15. 06. 2019 21:29

#	Modifying user name:	WinNT
#	Modification time:	15. 06. 2019 21:29

#	Program:	/corina/corina34_cracker 3.40 0067  02.08.2006

@<TRIPOS>MOLECULE
ASD11800001
  68   73    0    0    0
SMALL
NO_CHARGES


@<TRIPOS>ATOM
   1 C1            -0.4256     1.1540    -0.2774 C.ar    
   2 C2            -0.2739    -0.2206    -0.2476 C.ar    
   3 C3             0.9830    -0.7738    -0.0773 C.ar    
   4 C4             2.0858     0.0472     0.0628 C.ar    
   5 C5             1.9334     1.4211     0.0329 C.ar    
   6 C6             0.6782     1.9742    -0.1371 C.ar    
   7 C7             1.1492    -2.2712    -0.0442 C.3     
   8 N8             2.4451    -2.6492    -0.6240 N.pl3   
   9 C9             2.8321    -2.4144    -1.9462 C.ar    
  10 C10            2.6419    -3.3957    -2.9126 C.ar    
  11 C11            3.4021    -1.1986    -2.2990 C.ar    
  12 C12            3.7837    -0.9696    -3.6070 C.ar    
  13 C13            3.5986    -1.9492    -4.5647 C.ar    
  14 C14            3.0258    -3.1598    -4.2187 C.ar    
  15 C15            1.1726    -2.7706     1.4145 C.3     
  16 C16            2.3553    -3.7642     1.4235 C.3     
  17 N17            3.2352    -3.2799     0.3456 N.am    
  18 Cl18          -1.6597    -1.2513    -0.4230 Cl      
  19 Cl19           1.9235    -4.9154    -2.4787 Cl      
  20 C20            4.5748    -3.4205     0.3000 C.2     
  21 C21            5.3380    -2.9753    -0.9208 C.3     
  22 O22            5.1661    -3.9052     1.2414 O.2     
  23 N23            6.7500    -3.3369    -0.7728 N.am    
  24 C24            7.6287    -3.0356    -1.7493 C.2     
  25 O25            7.2496    -2.4638    -2.7531 O.2     
  26 N26            8.9277    -3.3683    -1.6131 N.am    
  27 C27            9.8828    -3.0408    -2.6746 C.3     
  28 C28           11.2798    -2.9315    -2.0797 C.3     
  29 C29            9.8475    -4.1199    -3.7292 C.3     
  30 C30           11.0872    -4.9629    -3.8571 C.3     
  31 C31           11.9622    -5.2155    -2.6396 C.3     
  32 C32           11.5873    -4.3006    -1.4611 C.3     
  33 C33           12.3444    -2.4502    -3.0286 C.3     
  34 C34           13.3941    -4.7214    -3.0198 C.3     
  35 C35           11.9832    -4.1555    -4.8540 C.3     
  36 C36           13.0150    -3.4995    -3.9060 C.3     
  37 H37           -1.4058     1.5863    -0.4147 H       
  38 H38            3.0668    -0.3845     0.1960 H       
  39 H39            2.7955     2.0623     0.1428 H       
  40 H40            0.5599     3.0475    -0.1607 H       
  41 H41            0.3385    -2.7505    -0.5930 H       
  42 H42            3.5469    -0.4324    -1.5517 H       
  43 H43            4.2268    -0.0238    -3.8817 H       
  44 H44            3.8978    -1.7673    -5.5863 H       
  45 H45            2.8826    -3.9230    -4.9693 H       
  46 H46            1.3577    -1.9449     2.1015 H       
  47 H47            0.2406    -3.2784     1.6629 H       
  48 H48            2.8729    -3.7336     2.3823 H       
  49 H49            2.0073    -4.7745     1.2080 H       
  50 H50            4.9282    -3.4651    -1.8041 H       
  51 H51            5.2494    -1.8945    -1.0306 H       
  52 H52            7.0524    -3.7931     0.0280 H       
  53 H53            9.2301    -3.8245    -0.8123 H       
  54 H54            9.6074    -2.0881    -3.1268 H       
  55 H55           11.2289    -2.2221    -1.2537 H       
  56 H56            9.0087    -4.7808    -3.5107 H       
  57 H57            9.6578    -3.6469    -4.6927 H       
  58 H58           10.8280    -5.9160    -4.3179 H       
  59 H59           11.9476    -6.2662    -2.3497 H       
  60 H60           12.4233    -4.2204    -0.7663 H       
  61 H61           10.7067    -4.6885    -0.9491 H       
  62 H62           11.8976    -1.7015    -3.6827 H       
  63 H63           13.1199    -1.9581    -2.4416 H       
  64 H64           13.9563    -4.4143    -2.1379 H       
  65 H65           13.9362    -5.4747    -3.5916 H       
  66 H66           12.4753    -4.8228    -5.5616 H       
  67 H67           11.3983    -3.3979    -5.3755 H       
  68 H68           13.8735    -3.1008    -4.4464 H       
@<TRIPOS>BOND
   1    1    2 ar
   2    1    6 ar
   3    1   37 1
   4    2    3 ar
   5    2   18 1
   6    3    4 ar
   7    3    7 1
   8    4    5 ar
   9    4   38 1
  10    5    6 ar
  11    5   39 1
  12    6   40 1
  13    7    8 1
  14    7   15 1
  15    7   41 1
  16    8    9 1
  17    8   17 1
  18    9   10 ar
  19    9   11 ar
  20   10   19 1
  21   10   14 ar
  22   11   12 ar
  23   11   42 1
  24   12   13 ar
  25   12   43 1
  26   13   14 ar
  27   13   44 1
  28   14   45 1
  29   15   16 1
  30   15   46 1
  31   15   47 1
  32   16   17 1
  33   16   48 1
  34   16   49 1
  35   17   20 am
  36   20   21 1
  37   20   22 2
  38   21   23 1
  39   21   50 1
  40   21   51 1
  41   23   24 am
  42   23   52 1
  43   24   25 2
  44   24   26 am
  45   26   27 1
  46   26   53 1
  47   27   28 1
  48   27   29 1
  49   27   54 1
  50   28   33 1
  51   28   32 1
  52   28   55 1
  53   29   30 1
  54   29   56 1
  55   29   57 1
  56   30   31 1
  57   30   35 1
  58   30   58 1
  59   31   32 1
  60   31   34 1
  61   31   59 1
  62   32   60 1
  63   32   61 1
  64   33   36 1
  65   33   62 1
  66   33   63 1
  67   34   36 1
  68   34   64 1
  69   34   65 1
  70   35   36 1
  71   35   66 1
  72   35   67 1
  73   36   68 1

#	End of record

