#	Name: ASD10160369
#	Creating user name:	WinNT
#	Creation time:	15. 06. 2019 21:25

#	Modifying user name:	WinNT
#	Modification time:	15. 06. 2019 21:25

#	Program:	/corina/corina34_cracker 3.40 0067  02.08.2006

@<TRIPOS>MOLECULE
ASD10160369
  22   22    0    0    0
SMALL
NO_CHARGES


@<TRIPOS>ATOM
   1 C1            -0.0167     1.3812     0.0096 C.ar    
   2 C2             0.0021    -0.0041     0.0020 C.ar    
   3 C3             1.2262    -0.6663    -0.0132 C.ar    
   4 C4             2.3855     0.0912    -0.0202 C.ar    
   5 C5             2.2884     1.4774    -0.0118 C.ar    
   6 N6             1.1077     2.0719     0.0026 N.ar    
   7 O7            -1.1613    -0.7082     0.0098 O.3     
   8 O8             3.4188     2.2296    -0.0181 O.3     
   9 C9             3.2535     3.6490    -0.0089 C.3     
  10 C10            4.6273     4.3225    -0.0178 C.3     
  11 C11            4.4504     5.8422    -0.0080 C.3     
  12 F12            3.7519     6.2229     1.1428 F       
  13 F13            5.7066     6.4580    -0.0162 F       
  14 F14            3.7310     6.2352    -1.1417 F       
  15 Cl15           3.9402    -0.6810    -0.0386 Cl      
  16 H16           -0.9628     1.9020     0.0169 H       
  17 H17            1.2709    -1.7453    -0.0191 H       
  18 H18           -1.5066    -0.9072    -0.8713 H       
  19 H19            2.6930     3.9553    -0.8922 H       
  20 H20            2.7093     3.9457     0.8877 H       
  21 H21            5.1878     4.0162     0.8654 H       
  22 H22            5.1716     4.0258    -0.9145 H       
@<TRIPOS>BOND
   1    1    2 ar
   2    1    6 ar
   3    1   16 1
   4    2    3 ar
   5    2    7 1
   6    3    4 ar
   7    3   17 1
   8    4    5 ar
   9    4   15 1
  10    5    6 ar
  11    5    8 1
  12    7   18 1
  13    8    9 1
  14    9   10 1
  15    9   19 1
  16    9   20 1
  17   10   11 1
  18   10   21 1
  19   10   22 1
  20   11   12 1
  21   11   13 1
  22   11   14 1

#	End of record

