#	Name: ASD11530011
#	Creating user name:	WinNT
#	Creation time:	15. 06. 2019 21:29

#	Modifying user name:	WinNT
#	Modification time:	15. 06. 2019 21:29

#	Program:	/corina/corina34_cracker 3.40 0067  02.08.2006

@<TRIPOS>MOLECULE
ASD11530011
  38   40    0    0    0
SMALL
NO_CHARGES


@<TRIPOS>ATOM
   1 C1             0.9773     1.6088     1.4932 C.ar    
   2 C2             0.9665     0.2290     1.7006 C.ar    
   3 C3             1.1295    -0.6365     0.6170 C.ar    
   4 C4             1.3006    -0.1243    -0.6551 C.ar    
   5 C5             1.3113     1.2457    -0.8580 C.ar    
   6 C6             1.1495     2.1121     0.2142 C.ar    
   7 C7             0.7894    -0.2977     3.0204 C.1     
   8 O8             1.1599     3.4554     0.0091 O.3     
   9 C9             2.3488     4.1063     0.1058 C.ar    
  10 C10            2.3900     5.4930     0.0179 C.ar    
  11 C11            3.5181     3.3868     0.2978 C.ar    
  12 C12            4.7259     4.0503     0.3963 C.ar    
  13 C13            4.7667     5.4280     0.3034 C.ar    
  14 C14            1.8738     7.8547     0.2442 C.3     
  15 C15            1.2748     6.4970    -0.1803 C.3     
  16 C16            3.6000     6.1516     0.1169 C.ar    
  17 C17            3.3819     7.6444    -0.0082 C.3     
  18 S18            6.3094     6.2697     0.4301 S.o2    
  19 O19            6.0830     7.2702     1.4135 O.2     
  20 O20            7.2576     5.2332     0.6443 O.2     
  21 C21            6.5488     7.0241    -1.2021 C.3     
  22 O22            4.1509     8.3419     0.9737 O.3     
  23 F23            1.4583    -0.9620    -1.7032 F       
  24 F24            1.3754     8.8897    -0.5545 F       
  25 F25            1.6263     8.1061     1.5980 F       
  26 N26            0.6489    -0.7156     4.0674 N.1     
  27 H27            0.8472     2.2826     2.3272 H       
  28 H28            1.1222    -1.7052     0.7729 H       
  29 H29            1.4461     1.6412    -1.8539 H       
  30 H30            3.4850     2.3098     0.3706 H       
  31 H31            5.6381     3.4920     0.5462 H       
  32 H32            0.9746     6.5269    -1.2277 H       
  33 H33            0.4228     6.2455     0.4512 H       
  34 H34            3.6487     7.9831    -1.0093 H       
  35 H35            5.7271     7.7096    -1.4096 H       
  36 H36            7.4910     7.5721    -1.2145 H       
  37 H37            6.5722     6.2441    -1.9631 H       
  38 H38            4.0183     9.2998     0.9696 H       
@<TRIPOS>BOND
   1    1    2 ar
   2    1    6 ar
   3    1   27 1
   4    2    3 ar
   5    2    7 1
   6    3    4 ar
   7    3   28 1
   8    4    5 ar
   9    4   23 1
  10    5    6 ar
  11    5   29 1
  12    6    8 1
  13    7   26 3
  14    8    9 1
  15    9   11 ar
  16    9   10 ar
  17   10   16 ar
  18   10   15 1
  19   11   12 ar
  20   11   30 1
  21   12   13 ar
  22   12   31 1
  23   13   16 ar
  24   13   18 1
  25   14   15 1
  26   14   17 1
  27   14   24 1
  28   14   25 1
  29   15   32 1
  30   15   33 1
  31   16   17 1
  32   17   22 1
  33   17   34 1
  34   18   19 2
  35   18   20 2
  36   18   21 1
  37   21   35 1
  38   21   36 1
  39   21   37 1
  40   22   38 1

#	End of record

