#	Name: ASD11820015
#	Creating user name:	WinNT
#	Creation time:	15. 06. 2019 21:29

#	Modifying user name:	WinNT
#	Modification time:	15. 06. 2019 21:29

#	Program:	/corina/corina34_cracker 3.40 0067  02.08.2006

@<TRIPOS>MOLECULE
ASD11820015
  33   36    0    0    0
SMALL
NO_CHARGES


@<TRIPOS>ATOM
   1 C1            -0.0166     1.3736     0.0096 C.ar    
   2 C2             0.0021    -0.0041     0.0020 C.ar    
   3 C3             1.2123    -0.6900    -0.0128 C.ar    
   4 C4             2.4078    -0.0043    -0.0205 C.ar    
   5 C5             1.1877     2.0809     0.0019 C.ar    
   6 C6             1.5304     3.5053     0.0063 C.2     
   7 C7             2.4105     1.3865    -0.0135 C.ar    
   8 N8             3.4139     2.3312    -0.0181 N.pl3   
   9 C9             2.8701     3.5869    -0.0061 C.2     
  10 C10            0.5622     4.6601     0.0213 C.3     
  11 C11            0.1576     4.9579     1.4421 C.2     
  12 C12            0.8774     5.8091     2.3928 C.ar    
  13 C13           -0.9336     4.4984     2.0744 C.2     
  14 N14           -0.9687     4.9808     3.3545 N.pl3   
  15 C15            0.1261     5.7866     3.5814 C.ar    
  16 C16            2.0547     6.5574     2.3253 C.ar    
  17 C17            0.5657     6.5131     4.6829 C.ar    
  18 C18            1.7295     7.2470     4.6030 C.ar    
  19 C19            2.4730     7.2707     3.4274 C.ar    
  20 Cl20           2.2719     8.1519     5.9817 Cl      
  21 Cl21           1.2166    -2.4260    -0.0210 Cl      
  22 F22           -1.1605    -0.6921     0.0094 F       
  23 F23            3.6112     7.9959     3.3664 F       
  24 H24           -0.9575     1.9037     0.0169 H       
  25 H25            3.3418    -0.5466    -0.0316 H       
  26 H26            4.3639     2.1353    -0.0277 H       
  27 H27            3.4352     4.5073    -0.0065 H       
  28 H28            1.0385     5.5392    -0.4128 H       
  29 H29           -0.3217     4.4007    -0.5614 H       
  30 H30           -1.6741     3.8448     1.6376 H       
  31 H31           -1.6624     4.7871     4.0043 H       
  32 H32            2.6343     6.5766     1.4142 H       
  33 H33           -0.0046     6.5024     5.6000 H       
@<TRIPOS>BOND
   1    1    2 ar
   2    1    5 ar
   3    1   24 1
   4    2    3 ar
   5    2   22 1
   6    3    4 ar
   7    3   21 1
   8    4    7 ar
   9    4   25 1
  10    5    7 ar
  11    5    6 1
  12    6    9 2
  13    6   10 1
  14    7    8 1
  15    8    9 1
  16    8   26 1
  17    9   27 1
  18   10   11 1
  19   10   28 1
  20   10   29 1
  21   11   13 2
  22   11   12 1
  23   12   15 ar
  24   12   16 ar
  25   13   14 1
  26   13   30 1
  27   14   15 1
  28   14   31 1
  29   15   17 ar
  30   16   19 ar
  31   16   32 1
  32   17   18 ar
  33   17   33 1
  34   18   19 ar
  35   18   20 1
  36   19   23 1

#	End of record

