#	Name: ASD11550005
#	Creating user name:	WinNT
#	Creation time:	15. 06. 2019 21:29

#	Modifying user name:	WinNT
#	Modification time:	15. 06. 2019 21:29

#	Program:	/corina/corina34_cracker 3.40 0067  02.08.2006

@<TRIPOS>MOLECULE
ASD11550005
   9    8    0    0    0
SMALL
NO_CHARGES


@<TRIPOS>ATOM
   1 P1            -0.0192     1.5624     0.0106 P.3     
   2 O2             0.0021    -0.0041     0.0020 O.co2   
   3 O3             1.4506     2.1047    -0.0005 O.co2   
   4 O4            -1.5702     4.5449     1.4920 O.co2   
   5 O5            -0.7769     2.0814    -1.2586 O.co2   
   6 O6            -0.7728     2.0816     1.3353 O.3     
   7 P7            -0.7115     3.4403     2.1969 P.3     
   8 O8             0.7748     3.9238     2.3046 O.co2   
   9 O9            -1.2794     3.1742     3.6326 O.co2   
@<TRIPOS>BOND
   1    1    2 ar
   2    1    3 ar
   3    1    5 ar
   4    1    6 1
   5    4    7 ar
   6    6    7 1
   7    7    8 ar
   8    7    9 ar

#	End of record

