#	Name: ASD10950027
#	Creating user name:	WinNT
#	Creation time:	15. 06. 2019 21:28

#	Modifying user name:	WinNT
#	Modification time:	15. 06. 2019 21:28

#	Program:	/corina/corina34_cracker 3.40 0067  02.08.2006

@<TRIPOS>MOLECULE
ASD10950027
  60   64    0    0    0
SMALL
NO_CHARGES


@<TRIPOS>ATOM
   1 C1            -2.2935     1.3753     0.5035 C.3     
   2 N2            -1.8793    -0.0262     0.4015 N.am    
   3 C3            -1.1050    -0.4270    -0.6263 C.2     
   4 O4            -0.7504     0.3743    -1.4686 O.2     
   5 C5            -0.6870    -1.8414    -0.7292 C.ar    
   6 C6             0.1148    -2.2598    -1.7923 C.ar    
   7 C7             0.5017    -3.5810    -1.8822 C.ar    
   8 C8             0.0963    -4.4906    -0.9217 C.ar    
   9 C9            -0.6986    -4.0824     0.1347 C.ar    
  10 C10           -1.0878    -2.7630     0.2395 C.ar    
  11 C11            0.5219    -5.9324    -1.0268 C.3     
  12 N12            1.0403    -6.4009     0.2638 N.am    
  13 C13            2.1964    -5.8539     0.9783 C.3     
  14 C14            1.7353    -4.7327     1.9117 C.3     
  15 C15            2.9246    -4.1701     2.6466 C.2     
  16 C16            3.3509    -4.5280     3.8681 C.2     
  17 N17            4.4601    -3.8017     4.2065 N.pl3   
  18 C18            4.7826    -2.9367     3.1850 C.ar    
  19 C19            3.8384    -3.1333     2.1610 C.ar    
  20 C20            3.9187    -2.3832     0.9860 C.ar    
  21 C21            4.9156    -1.4609     0.8368 C.ar    
  22 C22            5.8501    -1.2634     1.8443 C.ar    
  23 C23            5.7915    -1.9948     3.0102 C.ar    
  24 C24            0.2655    -7.4210     0.6752 C.2     
  25 O25            0.4182    -8.0394     1.7097 O.2     
  26 C26           -0.7994    -7.6778    -0.3176 C.2     
  27 C27           -0.6706    -6.8043    -1.3436 C.2     
  28 C28           -1.5239    -6.7202    -2.5326 C.2     
  29 O29           -2.6885    -6.3856    -2.4231 O.2     
  30 C30           -0.9693    -7.0419    -3.8649 C.ar    
  31 C31           -1.7608    -6.9211    -5.0139 C.ar    
  32 C32           -1.1937    -7.2341    -6.2366 C.ar    
  33 C33            0.1241    -7.6523    -6.2848 C.ar    
  34 N34            0.8466    -7.7569    -5.1854 N.ar    
  35 C35            0.3544    -7.4658    -3.9995 C.ar    
  36 O36           -1.7507    -8.6343    -0.2171 O.3     
  37 H37           -1.4107     2.0107     0.5754 H       
  38 H38           -2.8676     1.6498    -0.3814 H       
  39 H39           -2.9101     1.5082     1.3924 H       
  40 H40           -2.1623    -0.6657     1.0737 H       
  41 H41            0.4313    -1.5509    -2.5431 H       
  42 H42            1.1221    -3.9060    -2.7043 H       
  43 H43           -1.0116    -4.7974     0.8811 H       
  44 H44           -1.7079    -2.4456     1.0647 H       
  45 H45            1.2835    -6.0426    -1.7988 H       
  46 H46            2.6683    -6.6430     1.5637 H       
  47 H47            2.9130    -5.4567     0.2595 H       
  48 H48            1.2634    -3.9436     1.3263 H       
  49 H49            1.0187    -5.1300     2.6305 H       
  50 H50            2.8868    -5.2778     4.4917 H       
  51 H51            4.9464    -3.8837     5.0417 H       
  52 H52            3.1956    -2.5319     0.1976 H       
  53 H53            4.9772    -0.8810    -0.0722 H       
  54 H54            6.6325    -0.5309     1.7116 H       
  55 H55            6.5232    -1.8339     3.7881 H       
  56 H56           -2.7875    -6.5925    -4.9474 H       
  57 H57           -1.7739    -7.1531    -7.1439 H       
  58 H58            0.5689    -7.8975    -7.2379 H       
  59 H59            0.9772    -7.5637    -3.1226 H       
  60 H60           -1.6885    -9.1680     0.5869 H       
@<TRIPOS>BOND
   1    1    2 1
   2    1   37 1
   3    1   38 1
   4    1   39 1
   5    2    3 am
   6    2   40 1
   7    3    4 2
   8    3    5 1
   9    5    6 ar
  10    5   10 ar
  11    6    7 ar
  12    6   41 1
  13    7    8 ar
  14    7   42 1
  15    8    9 ar
  16    8   11 1
  17    9   10 ar
  18    9   43 1
  19   10   44 1
  20   11   12 1
  21   11   27 1
  22   11   45 1
  23   12   13 1
  24   12   24 am
  25   13   14 1
  26   13   46 1
  27   13   47 1
  28   14   15 1
  29   14   48 1
  30   14   49 1
  31   15   16 2
  32   15   19 1
  33   16   17 1
  34   16   50 1
  35   17   18 1
  36   17   51 1
  37   18   19 ar
  38   18   23 ar
  39   19   20 ar
  40   20   21 ar
  41   20   52 1
  42   21   22 ar
  43   21   53 1
  44   22   23 ar
  45   22   54 1
  46   23   55 1
  47   24   25 2
  48   24   26 1
  49   26   27 2
  50   26   36 1
  51   27   28 1
  52   28   29 2
  53   28   30 1
  54   30   31 ar
  55   30   35 ar
  56   31   32 ar
  57   31   56 1
  58   32   33 ar
  59   32   57 1
  60   33   34 ar
  61   33   58 1
  62   34   35 ar
  63   35   59 1
  64   36   60 1

#	End of record

