#	Name: ASD14350005
#	Creating user name:	WinNT
#	Creation time:	15. 06. 2019 21:31

#	Modifying user name:	WinNT
#	Modification time:	15. 06. 2019 21:31

#	Program:	/corina/corina34_cracker 3.40 0067  02.08.2006

@<TRIPOS>MOLECULE
ASD14350005
  63   67    0    0    0
SMALL
NO_CHARGES


@<TRIPOS>ATOM
   1 C1             0.4914     2.8709     1.1980 C.ar    
   2 C2             1.7791     3.3177     0.9606 C.ar    
   3 C3             6.9306    -4.2335     8.7116 C.ar    
   4 C4             7.0358    -5.1715     9.7361 C.ar    
   5 C5             6.6675    -4.8266    11.0262 C.ar    
   6 C6             6.1951    -3.5495    11.2954 C.ar    
   7 C7             6.0904    -2.6181    10.2790 C.ar    
   8 C8             6.4605    -2.9511     8.9918 C.ar    
   9 C9             6.3709    -5.3151    13.3340 C.3     
  10 C10            8.6016    -7.4996     5.6189 C.ar    
  11 C11            8.9598    -7.8674     4.3588 C.ar    
  12 C12            8.8800    -6.9677     3.2978 C.ar    
  13 C13            3.6564     0.0600     0.6210 C.3     
  14 C14            5.2034    -1.4001     1.7946 C.3     
  15 C15            6.3562    -1.1481     2.7841 C.3     
  16 C16            6.0317     0.2116     3.4442 C.3     
  17 C17            5.0830     0.8781     2.4164 C.3     
  18 C18            5.2440    -2.4334     4.6682 C.3     
  19 C19            0.2291     1.5134     1.2485 C.ar    
  20 C20            7.5003    -2.9732     3.9231 C.2     
  21 C21            7.5897    -3.9632     5.0184 C.ar    
  22 C22            8.0531    -5.2827     4.7763 C.ar    
  23 C23            8.1375    -6.1926     5.8597 C.ar    
  24 C24            7.3231    -4.5960     7.3283 C.ar    
  25 C25            7.2093    -3.6361     6.3107 C.ar    
  26 C26            2.8026     2.4078     0.7740 C.ar    
  27 C27            8.4403    -5.6928     3.4943 C.ar    
  28 C28            2.5399     1.0515     0.8246 C.ar    
  29 C29            1.2535     0.6045     1.0617 C.ar    
  30 N30            4.2695    -0.2599     1.9171 N.3     
  31 N31            6.3988    -2.2071     3.7955 N.am    
  32 N32            7.7703    -5.8117     7.0847 N.ar    
  33 O33            8.4201    -2.8505     3.1382 O.2     
  34 O34            6.7683    -5.7389    12.0284 O.3     
  35 Cl35          -0.7934     4.0131     1.4395 Cl      
  36 H36            1.9844     4.3773     0.9207 H       
  37 H37            7.4033    -6.1649     9.5251 H       
  38 H38            5.9081    -3.2827    12.3018 H       
  39 H39            5.7218    -1.6259    10.4937 H       
  40 H40            6.3775    -2.2213     8.2000 H       
  41 H41            6.9855    -4.4700    13.6443 H       
  42 H42            5.3232    -5.0150    13.3154 H       
  43 H43            6.5010    -6.1369    14.0381 H       
  44 H44            8.6693    -8.2090     6.4304 H       
  45 H45            9.3117    -8.8724     4.1782 H       
  46 H46            9.1710    -7.2845     2.3072 H       
  47 H47            3.2569    -0.8501     0.1736 H       
  48 H48            4.4084     0.4903    -0.0403 H       
  49 H49            5.5921    -1.4542     0.7777 H       
  50 H50            4.6917    -2.3283     2.0492 H       
  51 H51            7.3061    -1.0934     2.2523 H       
  52 H52            5.5255     0.0661     4.3985 H       
  53 H53            6.9382     0.8024     3.5762 H       
  54 H54            4.4494     1.6200     2.9025 H       
  55 H55            5.6524     1.3323     1.6055 H       
  56 H56            5.3769    -1.8795     5.5975 H       
  57 H57            4.3380    -2.0916     4.1679 H       
  58 H58            5.1581    -3.4974     4.8885 H       
  59 H59           -0.7758     1.1640     1.4341 H       
  60 H60            6.8404    -2.6462     6.5353 H       
  61 H61            3.8078     2.7565     0.5883 H       
  62 H62            8.3795    -5.0057     2.6633 H       
  63 H63            1.0489    -0.4552     1.1015 H       
@<TRIPOS>BOND
   1    1   19 ar
   2    1    2 ar
   3    1   35 1
   4    2   26 ar
   5    2   36 1
   6    3   24 1
   7    3    4 ar
   8    3    8 ar
   9    4   37 1
  10    4    5 ar
  11    5    6 ar
  12    5   34 1
  13    6    7 ar
  14    6   38 1
  15    7    8 ar
  16    7   39 1
  17    8   40 1
  18    9   34 1
  19    9   41 1
  20    9   42 1
  21    9   43 1
  22   10   11 ar
  23   10   44 1
  24   10   23 ar
  25   11   12 ar
  26   11   45 1
  27   12   46 1
  28   12   27 ar
  29   13   30 1
  30   13   47 1
  31   13   48 1
  32   13   28 1
  33   14   30 1
  34   14   15 1
  35   14   49 1
  36   14   50 1
  37   15   16 1
  38   15   51 1
  39   15   31 1
  40   16   52 1
  41   16   53 1
  42   16   17 1
  43   17   54 1
  44   17   55 1
  45   17   30 1
  46   18   31 1
  47   18   56 1
  48   18   57 1
  49   18   58 1
  50   19   29 ar
  51   19   59 1
  52   20   21 1
  53   20   31 am
  54   20   33 2
  55   21   22 ar
  56   21   25 ar
  57   22   27 ar
  58   22   23 ar
  59   23   32 ar
  60   24   25 ar
  61   24   32 ar
  62   25   60 1
  63   26   28 ar
  64   26   61 1
  65   27   62 1
  66   28   29 ar
  67   29   63 1

#	End of record

