#	Name: ASD10910002
#	Creating user name:	WinNT
#	Creation time:	15. 06. 2019 21:28

#	Modifying user name:	WinNT
#	Modification time:	15. 06. 2019 21:28

#	Program:	/corina/corina34_cracker 3.40 0067  02.08.2006

@<TRIPOS>MOLECULE
ASD10910002
  43   45    0    0    0
SMALL
NO_CHARGES


@<TRIPOS>ATOM
   1 Cl1            4.2814    -7.0714     0.2137 Cl      
   2 F2             1.6092    -3.3842     2.4487 F       
   3 O3             0.2367     1.2983    -0.0184 O.3     
   4 O4             2.4777    -0.6356     0.0806 O.2     
   5 O5            -2.6260     0.4983    -0.9952 O.2     
   6 N6             0.8794    -2.2498     0.0306 N.am    
   7 C7            -1.0742    -2.9320    -1.2944 C.3     
   8 C8            -0.5868    -2.2298    -0.0254 C.3     
   9 C9            -2.6001    -3.0398    -1.2636 C.3     
  10 C10           -0.6446    -2.1248    -2.5211 C.3     
  11 C11           -3.0875    -3.7421    -2.5325 C.3     
  12 C12           -1.1320    -2.8271    -3.7900 C.3     
  13 C13           -2.6579    -2.9348    -3.7592 C.3     
  14 C14           -0.9884    -0.7735    -0.0510 C.2     
  15 C15            0.1593    -0.0511    -0.0123 C.2     
  16 C16            1.3120    -0.9760     0.0382 C.2     
  17 C17            1.6854    -3.3924     0.0746 C.ar    
  18 C18           -2.3060    -0.2621    -0.1049 C.2     
  19 C19            2.0411    -3.9477     1.2994 C.ar    
  20 C20            2.1273    -3.9779    -1.1044 C.ar    
  21 C21           -3.3126    -0.6614     0.9432 C.3     
  22 C22            2.8380    -5.0772     1.3386 C.ar    
  23 C23            2.9229    -5.1059    -1.0584 C.ar    
  24 C24            3.2807    -5.6539     0.1612 C.ar    
  25 H25           -0.6404    -3.9307    -1.3464 H       
  26 H26           -1.0022    -2.7185     0.8559 H       
  27 H27           -1.0784    -1.1262    -2.4690 H       
  28 H28            0.4424    -2.0480    -2.5430 H       
  29 H29           -2.9062    -3.6149    -0.3897 H       
  30 H30           -3.0339    -2.0412    -1.2115 H       
  31 H31           -0.8260    -2.2520    -4.6639 H       
  32 H32           -0.6982    -3.8257    -3.8420 H       
  33 H33           -2.6537    -4.7407    -2.5846 H       
  34 H34           -4.1746    -3.8188    -2.5106 H       
  35 H35           -3.0051    -3.4351    -4.6632 H       
  36 H36           -3.0917    -1.9362    -3.7071 H       
  37 H37            1.8487    -3.5517    -2.0569 H       
  38 H38           -3.9028    -1.5022     0.5785 H       
  39 H39           -2.7916    -0.9517     1.8555 H       
  40 H40           -3.9717     0.1810     1.1535 H       
  41 H41            1.1406     1.6406     0.0136 H       
  42 H42            3.1154    -5.5094     2.2887 H       
  43 H43            3.2662    -5.5614    -1.9756 H       
@<TRIPOS>BOND
   1    1   24 1
   2    2   19 1
   3    3   15 1
   4    3   41 1
   5    4   16 2
   6    5   18 2
   7    6    8 1
   8    6   16 am
   9    6   17 1
  10    7    8 1
  11    7    9 1
  12    7   10 1
  13    7   25 1
  14    8   14 1
  15    8   26 1
  16    9   11 1
  17    9   29 1
  18    9   30 1
  19   10   12 1
  20   10   27 1
  21   10   28 1
  22   11   13 1
  23   11   33 1
  24   11   34 1
  25   12   13 1
  26   12   31 1
  27   12   32 1
  28   13   35 1
  29   13   36 1
  30   14   15 2
  31   14   18 1
  32   15   16 1
  33   17   19 ar
  34   17   20 ar
  35   18   21 1
  36   19   22 ar
  37   20   23 ar
  38   20   37 1
  39   21   38 1
  40   21   39 1
  41   21   40 1
  42   22   24 ar
  43   22   42 1
  44   23   24 ar
  45   23   43 1

#	End of record

