#	Name: ASD10220010
#	Creating user name:	WinNT
#	Creation time:	15. 06. 2019 21:26

#	Modifying user name:	WinNT
#	Modification time:	15. 06. 2019 21:26

#	Program:	/corina/corina34_cracker 3.40 0067  02.08.2006

@<TRIPOS>MOLECULE
ASD10220010
  35   37    0    0    0
SMALL
NO_CHARGES


@<TRIPOS>ATOM
   1 C1             0.0032     1.5141     0.4066 C.2     
   2 C2             0.0489     0.2239     0.9854 C.2     
   3 C3            -1.0787    -0.4262     1.3495 C.2     
   4 C4            -2.4055     0.1604     1.1683 C.2     
   5 C5            -2.5346     1.4215     0.6078 C.2     
   6 C6            -1.3331     2.1680     0.2021 C.2     
   7 O7            -3.6419    -0.2923     1.4506 O.3     
   8 C8            -4.5763     0.5971     1.1086 C.2     
   9 C9            -3.9734     1.7035     0.5716 C.2     
  10 O10           -1.4199     3.2730    -0.2906 O.2     
  11 O11            1.0267     2.0847     0.0854 O.2     
  12 Br12           1.7248    -0.6095     1.2552 Br      
  13 C13           -4.6316     2.9203     0.0640 C.2     
  14 O14           -3.9615     3.8732    -0.2863 O.2     
  15 C15           -6.1035     2.9829    -0.0192 C.ar    
  16 C16           -6.8439     1.8148    -0.2209 C.ar    
  17 C17           -8.2183     1.8750    -0.2979 C.ar    
  18 Br18          -0.9357    -2.1488     2.1165 Br      
  19 C19           -8.8709     3.0944    -0.1761 C.ar    
  20 C20           -8.1381     4.2642     0.0249 C.ar    
  21 C21           -6.7611     4.2104     0.1092 C.ar    
  22 O22           -8.7805     5.4571     0.1429 O.3     
  23 C23           -7.9674     6.6144     0.3472 C.3     
  24 O24          -10.2254     3.1484    -0.2531 O.3     
  25 C25          -10.9132     1.9131    -0.4604 C.3     
  26 H26           -5.6407     0.4649     1.2348 H       
  27 H27           -6.3387     0.8650    -0.3167 H       
  28 H28           -8.7893     0.9716    -0.4537 H       
  29 H29           -6.1926     5.1153     0.2652 H       
  30 H30           -7.3944     6.4980     1.2671 H       
  31 H31           -7.2843     6.7315    -0.4941 H       
  32 H32           -8.6034     7.4962     0.4243 H       
  33 H33          -10.6936     1.2324     0.3621 H       
  34 H34          -11.9867     2.0975    -0.5027 H       
  35 H35          -10.5840     1.4670    -1.3989 H       
@<TRIPOS>BOND
   1    1    2 1
   2    1   11 2
   3    1    6 1
   4    2    3 2
   5    2   12 1
   6    3    4 1
   7    3   18 1
   8    4    5 2
   9    4    7 1
  10    5    6 1
  11    5    9 1
  12    6   10 2
  13    7    8 1
  14    8    9 2
  15    8   26 1
  16    9   13 1
  17   13   14 2
  18   13   15 1
  19   15   16 ar
  20   15   21 ar
  21   16   17 ar
  22   16   27 1
  23   17   19 ar
  24   17   28 1
  25   19   20 ar
  26   19   24 1
  27   20   21 ar
  28   20   22 1
  29   21   29 1
  30   22   23 1
  31   23   30 1
  32   23   31 1
  33   23   32 1
  34   24   25 1
  35   25   33 1
  36   25   34 1
  37   25   35 1

#	End of record

