#	Name: ASD10420057
#	Creating user name:	WinNT
#	Creation time:	15. 06. 2019 21:27

#	Modifying user name:	WinNT
#	Modification time:	15. 06. 2019 21:27

#	Program:	/corina/corina34_cracker 3.40 0067  02.08.2006

@<TRIPOS>MOLECULE
ASD10420057
  40   40    0    0    0
SMALL
NO_CHARGES


@<TRIPOS>ATOM
   1 N1             0.0421     1.5263    -0.1284 N.am    
   2 C2            -0.0221     0.0618    -0.0087 C.3     
   3 C3             0.8901    -0.5542    -1.0749 C.3     
   4 N4             2.2366     0.0205    -0.9540 N.3     
   5 C5             2.2243     1.4663    -1.2137 C.3     
   6 C6             1.3667     2.1651    -0.1533 C.3     
   7 C7            -1.0829     2.2630    -0.2185 C.2     
   8 O8            -2.1629     1.7139    -0.3110 O.2     
   9 O9            -1.0101     3.6073    -0.2061 O.3     
  10 C10           -1.4610    -0.4093    -0.2290 C.3     
  11 C11           -2.2891    -0.0795     0.9862 C.2     
  12 O12           -1.7806     0.4753     1.9314 O.2     
  13 O13           -3.5916    -0.4022     1.0184 O.3     
  14 C14           -4.3274    -0.0543     2.2209 C.3     
  15 C15           -2.2618     4.3363    -0.3068 C.3     
  16 C16           -3.1656     3.9627     0.8698 C.3     
  17 C17           -1.9803     5.8398    -0.2762 C.3     
  18 C18           -2.9585     3.9744    -1.6200 C.3     
  19 H19            0.3173    -0.2398     0.9822 H       
  20 H20            0.9409    -1.6334    -0.9306 H       
  21 H21            0.4898    -0.3376    -2.0653 H       
  22 H22            2.6359    -0.1810    -0.0495 H       
  23 H23            3.2427     1.8524    -1.1702 H       
  24 H24            1.8054     1.6547    -2.2022 H       
  25 H25            1.2598     3.2200    -0.4058 H       
  26 H26            1.8396     2.0656     0.8238 H       
  27 H27           -1.8787     0.0942    -1.1008 H       
  28 H28           -1.4695    -1.4868    -0.3930 H       
  29 H29           -4.2892     1.0247     2.3708 H       
  30 H30           -5.3654    -0.3700     2.1159 H       
  31 H31           -3.8799    -0.5564     3.0787 H       
  32 H32           -2.6693     4.2204     1.8054 H       
  33 H33           -4.1053     4.5099     0.7942 H       
  34 H34           -3.3662     2.8915     0.8480 H       
  35 H35           -1.3363     6.1060    -1.1145 H       
  36 H36           -2.9199     6.3871    -0.3518 H       
  37 H37           -1.4839     6.0976     0.6593 H       
  38 H38           -3.1590     2.9033    -1.6418 H       
  39 H39           -3.8981     4.5217    -1.6956 H       
  40 H40           -2.3146     4.2406    -2.4583 H       
@<TRIPOS>BOND
   1    1    2 1
   2    1    6 1
   3    1    7 am
   4    2    3 1
   5    2   10 1
   6    2   19 1
   7    3    4 1
   8    3   20 1
   9    3   21 1
  10    4    5 1
  11    4   22 1
  12    5    6 1
  13    5   23 1
  14    5   24 1
  15    6   25 1
  16    6   26 1
  17    7    8 2
  18    7    9 1
  19    9   15 1
  20   10   11 1
  21   10   27 1
  22   10   28 1
  23   11   12 2
  24   11   13 1
  25   13   14 1
  26   14   29 1
  27   14   30 1
  28   14   31 1
  29   15   16 1
  30   15   18 1
  31   15   17 1
  32   16   32 1
  33   16   33 1
  34   16   34 1
  35   17   35 1
  36   17   36 1
  37   17   37 1
  38   18   38 1
  39   18   39 1
  40   18   40 1

#	End of record

