#	Name: ASD11940010
#	Creating user name:	WinNT
#	Creation time:	15. 06. 2019 21:29

#	Modifying user name:	WinNT
#	Modification time:	15. 06. 2019 21:29

#	Program:	/corina/corina34_cracker 3.40 0067  02.08.2006

@<TRIPOS>MOLECULE
ASD11940010
  22   23    0    0    0
SMALL
NO_CHARGES


@<TRIPOS>ATOM
   1 C1            -0.0166     1.3758     0.0096 C.ar    
   2 C2             0.0021    -0.0041     0.0020 C.ar    
   3 C3             1.2188    -0.6821    -0.0133 C.ar    
   4 C4             2.4121     0.0365    -0.0209 C.ar    
   5 C5             2.3845     1.4162    -0.0132 C.ar    
   6 C6             1.1723     2.0866     0.0021 C.ar    
   7 C7             1.2437    -2.1668    -0.0210 C.2     
   8 C8             1.9794    -2.9822    -0.9027 C.2     
   9 N9             1.7421    -4.2299    -0.5954 N.2     
  10 N10            0.8530    -4.2604     0.4857 N.pl3   
  11 C11            0.5628    -2.9888     0.8285 C.2     
  12 C12            2.8825    -2.4997    -2.0085 C.3     
  13 F13            1.1497     3.4374     0.0095 F       
  14 H14           -0.9596     1.9023     0.0169 H       
  15 H15           -0.9253    -0.5575     0.0083 H       
  16 H16            3.3575    -0.4854    -0.0324 H       
  17 H17            3.3092     1.9741    -0.0191 H       
  18 H18            0.5083    -5.0584     0.9163 H       
  19 H19           -0.0952    -2.6777     1.6264 H       
  20 H20            3.8939    -2.3731    -1.6223 H       
  21 H21            2.8909    -3.2315    -2.8162 H       
  22 H22            2.5160    -1.5454    -2.3867 H       
@<TRIPOS>BOND
   1    1    2 ar
   2    1    6 ar
   3    1   14 1
   4    2    3 ar
   5    2   15 1
   6    3    4 ar
   7    3    7 1
   8    4    5 ar
   9    4   16 1
  10    5    6 ar
  11    5   17 1
  12    6   13 1
  13    7    8 1
  14    7   11 2
  15    8    9 2
  16    8   12 1
  17    9   10 1
  18   10   11 1
  19   10   18 1
  20   11   19 1
  21   12   20 1
  22   12   21 1
  23   12   22 1

#	End of record

