#	Name: ASD10610088
#	Creating user name:	WinNT
#	Creation time:	15. 06. 2019 21:27

#	Modifying user name:	WinNT
#	Modification time:	15. 06. 2019 21:27

#	Program:	/corina/corina34_cracker 3.40 0067  02.08.2006

@<TRIPOS>MOLECULE
ASD10610088
  64   68    0    0    0
SMALL
NO_CHARGES


@<TRIPOS>ATOM
   1 C1             0.9732     2.9677    -1.4599 C.ar    
   2 N2             1.7877     2.9741    -2.5046 N.ar    
   3 C3             2.9258     2.3055    -2.4815 C.ar    
   4 C4             3.2654     1.5832    -1.3306 C.ar    
   5 C5             2.3757     1.6034    -0.2490 C.ar    
   6 N6             1.2576     2.2976    -0.3532 N.ar    
   7 C7             4.5274     0.8204    -1.2595 C.2     
   8 O8             5.2878     0.8137    -2.2081 O.2     
   9 N9             4.8364     0.1316    -0.1431 N.am    
  10 O10            7.3339     0.2332     1.1917 O.3     
  11 C11            7.3569     0.0509    -0.2300 C.3     
  12 C12            6.0326    -0.7136    -0.1115 C.3     
  13 C13            6.5848    -0.9848     1.2934 C.3     
  14 C14            5.9318    -1.9323    -0.9922 C.2     
  15 N15            4.7522    -2.5700    -1.1278 N.am    
  16 O16            6.9122    -2.3393    -1.5789 O.2     
  17 C17            4.6771    -3.8160    -1.8946 C.3     
  18 C18            4.5054    -3.4913    -3.3799 C.3     
  19 C19            1.3376    -6.1217    -0.5430 C.ar    
  20 C20            2.4225    -6.7534    -1.1488 C.ar    
  21 C21            3.4993    -6.0044    -1.5841 C.ar    
  22 C22            3.5004    -4.6285    -1.4188 C.ar    
  23 C23            2.4259    -3.9986    -0.8183 C.ar    
  24 C24            1.3455    -4.7374    -0.3800 C.ar    
  25 C25            0.1768    -6.9186    -0.0793 C.ar    
  26 C26           -0.3199    -6.7499     1.2232 C.ar    
  27 C27           -1.4123    -7.5054     1.6476 C.ar    
  28 C28           -1.9995    -8.4144     0.7865 C.ar    
  29 C29           -1.5083    -8.5794    -0.4976 C.ar    
  30 C30           -0.4297    -7.8335    -0.9346 C.ar    
  31 O31            1.6111    -4.3236     2.8375 O.3     
  32 N32            1.3383    -5.0065     1.8729 N.2     
  33 C33            0.3137    -5.7748     2.1418 C.2     
  34 N34           -0.0590    -5.5115     3.4153 N.2     
  35 C35            0.7706    -4.5922     3.8416 C.2     
  36 C36            0.7765    -3.9565     5.2079 C.3     
  37 F37           -1.8964    -7.3499     2.8993 F       
  38 F38            4.5521    -6.6142    -2.1715 F       
  39 Cl39          -2.2559    -9.7243    -1.5672 Cl      
  40 O40           -0.1808     3.6710    -1.5231 O.3     
  41 C41           -1.0269     3.6340    -0.3721 C.3     
  42 H42            3.5847     2.3150    -3.3371 H       
  43 H43            2.6008     1.0592     0.6562 H       
  44 H44            4.2669     0.1954     0.6395 H       
  45 H45            7.2697     0.9836    -0.7873 H       
  46 H46            8.1851    -0.5688    -0.5735 H       
  47 H47            7.2115    -1.8750     1.3477 H       
  48 H48            5.8212    -0.9596     2.0708 H       
  49 H49            3.9530    -2.2040    -0.7177 H       
  50 H50            5.5945    -4.3868    -1.7512 H       
  51 H51            4.4494    -4.4184    -3.9504 H       
  52 H52            3.5879    -2.9205    -3.5233 H       
  53 H53            5.3564    -2.9036    -3.7240 H       
  54 H54            2.4218    -7.8258    -1.2773 H       
  55 H55            2.4322    -2.9261    -0.6917 H       
  56 H56            0.5071    -4.2434     0.0885 H       
  57 H57           -2.8453    -8.9988     1.1174 H       
  58 H58           -0.0548    -7.9638    -1.9390 H       
  59 H59            1.5837    -3.2263     5.2654 H       
  60 H60           -0.1773    -3.4580     5.3808 H       
  61 H61            0.9273    -4.7253     5.9657 H       
  62 H62           -1.3222     2.6042    -0.1712 H       
  63 H63           -0.4882     4.0319     0.4878 H       
  64 H64           -1.9158     4.2377    -0.5551 H       
@<TRIPOS>BOND
   1    1    2 ar
   2    1    6 ar
   3    1   40 1
   4    2    3 ar
   5    3    4 ar
   6    3   42 1
   7    4    5 ar
   8    4    7 1
   9    5    6 ar
  10    5   43 1
  11    7    8 2
  12    7    9 am
  13    9   12 1
  14    9   44 1
  15   10   11 1
  16   10   13 1
  17   11   12 1
  18   11   45 1
  19   11   46 1
  20   12   13 1
  21   12   14 1
  22   13   47 1
  23   13   48 1
  24   14   15 am
  25   14   16 2
  26   15   17 1
  27   15   49 1
  28   17   18 1
  29   17   22 1
  30   17   50 1
  31   18   51 1
  32   18   52 1
  33   18   53 1
  34   19   20 ar
  35   19   24 ar
  36   19   25 1
  37   20   21 ar
  38   20   54 1
  39   21   22 ar
  40   21   38 1
  41   22   23 ar
  42   23   24 ar
  43   23   55 1
  44   24   56 1
  45   25   26 ar
  46   25   30 ar
  47   26   27 ar
  48   26   33 1
  49   27   28 ar
  50   27   37 1
  51   28   29 ar
  52   28   57 1
  53   29   30 ar
  54   29   39 1
  55   30   58 1
  56   31   32 1
  57   31   35 1
  58   32   33 2
  59   33   34 1
  60   34   35 2
  61   35   36 1
  62   36   59 1
  63   36   60 1
  64   36   61 1
  65   40   41 1
  66   41   62 1
  67   41   63 1
  68   41   64 1

#	End of record

