#	Name: ASD10160221
#	Creating user name:	WinNT
#	Creation time:	15. 06. 2019 21:25

#	Modifying user name:	WinNT
#	Modification time:	15. 06. 2019 21:25

#	Program:	/corina/corina34_cracker 3.40 0067  02.08.2006

@<TRIPOS>MOLECULE
ASD10160221
  35   36    0    0    0
SMALL
NO_CHARGES


@<TRIPOS>ATOM
   1 C1            -0.3991     1.1089    -1.9473 C.2     
   2 C2            -0.2789    -0.2705    -1.4404 C.ar    
   3 C3             0.9048    -0.9908    -1.6390 C.ar    
   4 C4             1.0126    -2.2818    -1.1621 C.ar    
   5 C5            -0.0508    -2.8653    -0.4866 C.ar    
   6 C6            -1.2303    -2.1522    -0.2874 C.ar    
   7 C7            -1.3449    -0.8610    -0.7548 C.ar    
   8 O8             0.5310     1.6224    -2.5389 O.2     
   9 N9            -1.5417     1.7986    -1.7598 N.am    
  10 O10            0.0593    -4.1350    -0.0193 O.3     
  11 C11            1.5493    -5.5239    -1.2587 C.ar    
  12 C12            1.2618    -4.7567    -0.1387 C.ar    
  13 C13            2.2225    -4.6327     0.8599 C.ar    
  14 C14            3.4337    -5.2848     0.6930 C.ar    
  15 C15            3.6464    -6.0311    -0.4508 C.ar    
  16 N16            2.7146    -6.1280    -1.3791 N.ar    
  17 C17            4.9609    -6.7433    -0.6399 C.3     
  18 F18            4.8774    -8.0289    -0.0946 F       
  19 F19            5.2499    -6.8340    -2.0057 F       
  20 F20            5.9758    -6.0282     0.0050 F       
  21 S21           -1.6766     3.3478    -2.3291 S.o2    
  22 O22           -2.9792     3.7546    -1.9328 O.2     
  23 O23           -0.5202     4.0062    -1.8308 O.2     
  24 C24           -1.5843     3.1769    -4.1327 C.3     
  25 F25           -2.2619    -2.7254     0.3703 F       
  26 F26            1.9398    -0.4238    -2.2966 F       
  27 H27            1.9252    -2.8387    -1.3149 H       
  28 H28           -2.2584    -0.3073    -0.5955 H       
  29 H29           -2.2850     1.3876    -1.2914 H       
  30 H30            0.8091    -5.6306    -2.0379 H       
  31 H31            2.0291    -4.0424     1.7434 H       
  32 H32            4.2027    -5.2105     1.4476 H       
  33 H33           -2.4005     2.5433    -4.4799 H       
  34 H34           -1.6658     4.1604    -4.5955 H       
  35 H35           -0.6312     2.7243    -4.4065 H       
@<TRIPOS>BOND
   1    1    2 1
   2    1    8 2
   3    1    9 am
   4    2    3 ar
   5    2    7 ar
   6    3    4 ar
   7    3   26 1
   8    4    5 ar
   9    4   27 1
  10    5    6 ar
  11    5   10 1
  12    6    7 ar
  13    6   25 1
  14    7   28 1
  15    9   21 am
  16    9   29 1
  17   10   12 1
  18   11   12 ar
  19   11   16 ar
  20   11   30 1
  21   12   13 ar
  22   13   14 ar
  23   13   31 1
  24   14   15 ar
  25   14   32 1
  26   15   16 ar
  27   15   17 1
  28   17   18 1
  29   17   19 1
  30   17   20 1
  31   21   22 2
  32   21   23 2
  33   21   24 1
  34   24   33 1
  35   24   34 1
  36   24   35 1

#	End of record

