#	Name: ASD11000257
#	Creating user name:	WinNT
#	Creation time:	15. 06. 2019 21:29

#	Modifying user name:	WinNT
#	Modification time:	15. 06. 2019 21:29

#	Program:	/corina/corina34_cracker 3.40 0067  02.08.2006

@<TRIPOS>MOLECULE
ASD11000257
  60   63    0    0    0
SMALL
NO_CHARGES


@<TRIPOS>ATOM
   1 C1            -5.5863     0.8266    -3.2778 C.3     
   2 C2            -6.1196    -0.7137    -1.3783 C.ar    
   3 C3            -3.9273     0.2414    -1.4973 C.ar    
   4 C4            -5.7657    -1.3819    -0.2211 C.ar    
   5 C5            -3.5733    -0.4269    -0.3401 C.ar    
   6 C6            -3.0407   -10.6225     5.2355 C.ar    
   7 C7            -5.0987   -10.4899     4.0153 C.ar    
   8 C8            -3.5147   -11.7246     5.9204 C.ar    
   9 C9            -5.5773   -11.5917     4.6975 C.ar    
  10 C10           -4.2291    -7.6051     3.7973 C.3     
  11 C11           -1.9646    -5.0688     1.0804 C.3     
  12 C12           -3.7313    -6.4042     2.9898 C.3     
  13 C13           -2.1321    -3.5375     0.9635 C.3     
  14 C14           -4.1071    -1.9660     1.5602 C.3     
  15 C15           -2.8187    -7.8591     1.2802 C.3     
  16 C16           -5.2005     0.0981    -2.0163 C.ar    
  17 C17           -4.4926    -1.2383     0.2981 C.ar    
  18 C18           -3.8317   -10.0058     4.2838 C.ar    
  19 C19           -4.7855   -12.2126     5.6526 C.ar    
  20 C20           -3.3121    -8.8037     3.5381 C.3     
  21 C21           -3.2892    -9.1034     2.0367 C.3     
  22 C22           -3.3888    -5.5683     0.7438 C.3     
  23 C23           -4.2842    -4.4008     1.0955 C.2     
  24 F24           -2.4108   -10.1629     1.7853 F       
  25 N25           -3.7286    -6.7411     1.5605 N.3     
  26 N26           -3.5542    -3.2787     1.2176 N.am    
  27 O27           -5.4860    -4.4673     1.2446 O.2     
  28 O28           -6.4272   -14.2952     8.4551 O.3     
  29 O29           -7.3763   -12.1161     7.3312 O.3     
  30 O30           -5.1664   -12.1107     8.5509 O.2     
  31 O31           -5.2538   -13.2969     6.3247 O.3     
  32 P32           -6.0368   -12.9366     7.6845 P.3     
  33 H33           -2.3034    -8.5712     3.8795 H       
  34 H34           -4.2913    -9.3742     1.7043 H       
  35 H35           -3.4686    -5.8070    -0.3168 H       
  36 H36           -5.9980     1.8030    -3.0221 H       
  37 H37           -4.7051     0.9570    -3.9060 H       
  38 H38           -6.3348     0.2468    -3.8178 H       
  39 H39           -7.1128    -0.8294    -1.7865 H       
  40 H40           -3.2092     0.8756    -1.9958 H       
  41 H41           -6.4839    -2.0159     0.2775 H       
  42 H42           -2.5785    -0.3153     0.0651 H       
  43 H43           -2.0533   -10.2396     5.4468 H       
  44 H44           -5.7146   -10.0065     3.2715 H       
  45 H45           -2.8964   -12.2062     6.6635 H       
  46 H46           -6.5672   -11.9692     4.4877 H       
  47 H47           -4.2162    -7.3600     4.8593 H       
  48 H48           -5.2460    -7.8523     3.4926 H       
  49 H49           -1.2400    -5.4384     0.3548 H       
  50 H50           -1.6804    -5.3540     2.0933 H       
  51 H51           -4.3904    -5.5531     3.1610 H       
  52 H52           -2.7195    -6.1490     3.3046 H       
  53 H53           -1.5178    -3.0329     1.7092 H       
  54 H54           -1.8610    -3.2038    -0.0381 H       
  55 H55           -3.3585    -1.3860     2.0998 H       
  56 H56           -4.9884    -2.0957     2.1884 H       
  57 H57           -1.8112    -7.5971     1.6031 H       
  58 H58           -2.8149    -8.0647     0.2097 H       
  59 H59           -6.9026   -14.1538     9.2853 H       
  60 H60           -7.9947   -12.5977     6.7649 H       
@<TRIPOS>BOND
   1    1   16 1
   2    1   36 1
   3    1   37 1
   4    1   38 1
   5    2    4 ar
   6    2   16 ar
   7    2   39 1
   8    3    5 ar
   9    3   16 ar
  10    3   40 1
  11    4   17 ar
  12    4   41 1
  13    5   17 ar
  14    5   42 1
  15    6    8 ar
  16    6   18 ar
  17    6   43 1
  18    7    9 ar
  19    7   18 ar
  20    7   44 1
  21    8   19 ar
  22    8   45 1
  23    9   19 ar
  24    9   46 1
  25   10   12 1
  26   10   20 1
  27   10   47 1
  28   10   48 1
  29   11   13 1
  30   11   22 1
  31   11   49 1
  32   11   50 1
  33   12   25 1
  34   12   51 1
  35   12   52 1
  36   13   26 1
  37   13   53 1
  38   13   54 1
  39   14   17 1
  40   14   26 1
  41   14   55 1
  42   14   56 1
  43   15   21 1
  44   15   25 1
  45   15   57 1
  46   15   58 1
  47   18   20 1
  48   19   31 1
  49   20   21 1
  50   20   33 1
  51   21   24 1
  52   21   34 1
  53   22   25 1
  54   22   35 1
  55   22   23 1
  56   23   26 am
  57   23   27 2
  58   28   32 1
  59   28   59 1
  60   29   32 1
  61   29   60 1
  62   30   32 2
  63   31   32 1

#	End of record

