#	Name: ASD10160094
#	Creating user name:	WinNT
#	Creation time:	15. 06. 2019 21:25

#	Modifying user name:	WinNT
#	Modification time:	15. 06. 2019 21:25

#	Program:	/corina/corina34_cracker 3.40 0067  02.08.2006

@<TRIPOS>MOLECULE
ASD10160094
  42   43    0    0    0
SMALL
NO_CHARGES


@<TRIPOS>ATOM
   1 C1             0.3719     1.1013     1.9606 C.2     
   2 C2             0.2891    -0.2768     1.4386 C.ar    
   3 C3             1.3728    -0.8325     0.7529 C.ar    
   4 C4             1.2917    -2.1194     0.2677 C.ar    
   5 C5             0.1327    -2.8650     0.4599 C.ar    
   6 C6            -0.9464    -2.3152     1.1413 C.ar    
   7 C7            -0.8706    -1.0311     1.6338 C.ar    
   8 O8             1.3837     1.7546     1.7943 O.2     
   9 N9            -0.6762     1.6374     2.6167 N.am    
  10 S10           -0.5834     3.1836     3.2023 S.o2    
  11 O11           -1.8353     3.3921     3.8414 O.2     
  12 O12            0.6296     3.2059     3.9423 O.2     
  13 C13           -0.4443     4.2212     1.7209 C.3     
  14 O14            0.0558    -4.1322    -0.0197 O.3     
  15 C15           -1.3959    -5.5714     1.2041 C.ar    
  16 C16           -1.1307    -4.7866     0.0933 C.ar    
  17 C17           -2.0942    -4.6760    -0.9055 C.ar    
  18 C18           -3.2882    -5.3596    -0.7482 C.ar    
  19 C19           -3.4831    -6.1277     0.3934 C.ar    
  20 N20           -2.5450    -6.2093     1.3213 N.ar    
  21 O21           -4.6503    -6.8016     0.5578 O.3     
  22 C22           -4.7909    -7.5738     1.7519 C.3     
  23 C23           -6.2665    -7.6295     2.1524 C.3     
  24 C24           -4.2756    -8.9931     1.5051 C.3     
  25 Cl25          -4.5258    -5.2578    -1.9612 Cl      
  26 Cl26           2.6365    -2.8111    -0.5847 Cl      
  27 H27            2.2724    -0.2539     0.6033 H       
  28 H28           -1.8443    -2.8970     1.2885 H       
  29 H29           -1.7082    -0.6064     2.1671 H       
  30 H30           -1.4849     1.1176     2.7459 H       
  31 H31           -1.3228     4.0763     1.0921 H       
  32 H32           -0.3773     5.2684     2.0157 H       
  33 H33            0.4506     3.9423     1.1646 H       
  34 H34           -0.6515    -5.6657     1.9809 H       
  35 H35           -1.9149    -4.0711    -1.7820 H       
  36 H36           -4.2141    -7.1120     2.5532 H       
  37 H37           -6.8433    -8.0913     1.3510 H       
  38 H38           -6.3738    -8.2185     3.0632 H       
  39 H39           -6.6337    -6.6184     2.3282 H       
  40 H40           -4.3828    -9.5821     2.4159 H       
  41 H41           -4.8523    -9.4549     0.7037 H       
  42 H42           -3.2243    -8.9534     1.2198 H       
@<TRIPOS>BOND
   1    1    2 1
   2    1    8 2
   3    1    9 am
   4    2    3 ar
   5    2    7 ar
   6    3    4 ar
   7    3   27 1
   8    4    5 ar
   9    4   26 1
  10    5    6 ar
  11    5   14 1
  12    6    7 ar
  13    6   28 1
  14    7   29 1
  15    9   10 am
  16    9   30 1
  17   10   11 2
  18   10   12 2
  19   10   13 1
  20   13   31 1
  21   13   32 1
  22   13   33 1
  23   14   16 1
  24   15   16 ar
  25   15   20 ar
  26   15   34 1
  27   16   17 ar
  28   17   18 ar
  29   17   35 1
  30   18   19 ar
  31   18   25 1
  32   19   20 ar
  33   19   21 1
  34   21   22 1
  35   22   23 1
  36   22   24 1
  37   22   36 1
  38   23   37 1
  39   23   38 1
  40   23   39 1
  41   24   40 1
  42   24   41 1
  43   24   42 1

#	End of record

