#	Name: ASD14640001
#	Creating user name:	WinNT
#	Creation time:	15. 06. 2019 21:31

#	Modifying user name:	WinNT
#	Modification time:	15. 06. 2019 21:31

#	Program:	/corina/corina34_cracker 3.40 0067  02.08.2006

@<TRIPOS>MOLECULE
ASD14640001
 299  300    0    0    0
SMALL
NO_CHARGES


@<TRIPOS>ATOM
   1 O1           -20.5324    -3.5543   -33.4585 O.2     
   2 O2           -22.1157    -2.7697   -36.8778 O.2     
   3 O3            -0.2761    -5.3964     8.0324 O.2     
   4 O4             1.0966    -8.8652     7.8566 O.2     
   5 O5           -19.1270    -1.7787   -29.6154 O.2     
   6 O6            -2.4758    -7.1319     5.3087 O.2     
   7 O7            -2.6542    -2.2427    10.4355 O.2     
   8 O8           -15.5303    -4.3188   -28.2055 O.2     
   9 O9             0.2982    -6.2301     3.6060 O.3     
  10 O10           -1.1875     1.4860     8.9543 O.3     
  11 O11           -1.8310    -8.9269     1.0970 O.2     
  12 O12           -3.8663     0.9400     7.2458 O.2     
  13 O13          -15.7823    -4.2262   -23.5899 O.2     
  14 O14           -4.1923    -6.1323    -1.7297 O.2     
  15 O15          -11.4342    -4.9128   -22.1762 O.2     
  16 O16          -11.7135    -1.3914   -26.7252 O.2     
  17 O17           -5.2581    -8.7867    -5.3621 O.2     
  18 O18           -5.9898     4.0763    10.0747 O.2     
  19 O19          -11.8629    -6.7710   -17.9644 O.2     
  20 O20          -10.3797    -8.9983   -17.7284 O.3     
  21 O21           -7.6298    -6.0661   -15.9321 O.2     
  22 O22           -8.6131    -7.9434   -11.8054 O.2     
  23 O23           -5.7470    -5.8134    -8.8687 O.2     
  24 O24           -9.1872     7.8253     8.6406 O.3     
  25 O25           -8.4904     6.5863     6.9486 O.2     
  26 N26          -22.1529    -1.9442   -34.8189 N.am    
  27 N27            0.2548    -7.5590     9.4400 N.am    
  28 N28          -19.5789    -2.0047   -32.1890 N.am    
  29 N29           -1.7908    -4.4770     9.3675 N.am    
  30 N30           -0.7609    -8.3482     6.0170 N.am    
  31 N31          -19.5279    -2.6123   -37.3234 N.3     
  32 N32          -17.7353    -3.4869   -29.3565 N.am    
  33 N33           -2.6916    -0.9788     8.6126 N.am    
  34 N34          -16.1589    -3.6621   -35.7940 N.pl3   
  35 N35           -2.1695    -7.4575     2.7244 N.am    
  36 N36          -15.9350    -3.6237   -26.1379 N.am    
  37 N37           -3.4989    -7.9604    -0.6814 N.am    
  38 N38          -13.6820    -4.9381   -23.5272 N.am    
  39 N39           -4.6388     2.1285     8.9524 N.am    
  40 N40          -23.6425    -3.9314   -26.4894 N.3     
  41 N41          -13.7964    -3.4934   -36.0409 N.pl3   
  42 N42          -15.1428    -4.0760   -37.8378 N.2     
  43 N43           -4.4462    -7.1174    -4.1470 N.am    
  44 N44           -9.4479    -5.6335     0.9018 N.4     
  45 N45          -12.2345    -5.3899   -20.1627 N.am    
  46 N46          -11.9532    -1.5664   -28.9238 N.am    
  47 N47           -9.7293    -6.2815   -17.6038 N.am    
  48 N48           -6.9549     4.9176     8.2629 N.am    
  49 N49           -6.1891    -7.4045    -7.3873 N.am    
  50 N50           -1.4492   -10.7906    -6.3339 N.pl3   
  51 N51           -8.7408    -6.7521   -14.1385 N.am    
  52 N52           -6.8223    -6.9184   -10.9903 N.am    
  53 N53           -0.4310   -12.1504    -8.0027 N.pl3   
  54 N54           -7.5905    -0.3203   -14.9271 N.3     
  55 N55            0.8271   -11.2346    -6.2823 N.2     
  56 C56          -21.5257    -1.4180   -33.5977 C.3     
  57 C57          -22.6467    -1.2199   -32.5557 C.3     
  58 C58           -0.7431    -6.6297     9.9896 C.3     
  59 C59          -23.7601    -2.1773   -33.0567 C.3     
  60 C60          -23.6055    -2.0570   -34.5934 C.3     
  61 C61           -0.2121    -6.1416    11.3539 C.3     
  62 C62            1.3159    -6.3850    11.2394 C.3     
  63 C63            1.3614    -7.6895    10.4053 C.3     
  64 C64          -20.5107    -2.4031   -33.0775 C.2     
  65 C65          -21.5076    -2.2649   -35.9578 C.2     
  66 C66           -0.9190    -5.4575     9.0590 C.2     
  67 C67            0.1693    -8.1915     8.2529 C.2     
  68 C68           -1.0786    -8.0615     7.4181 C.3     
  69 C69          -20.0305    -1.9962   -36.0882 C.3     
  70 C70          -18.6700    -2.9859   -31.5912 C.3     
  71 C71          -17.2992    -2.8870   -32.2634 C.3     
  72 C72           -1.9619    -3.3375     8.4628 C.3     
  73 C73           -2.1309    -9.0544     7.9159 C.3     
  74 C74          -19.7891    -0.4861   -36.1366 C.3     
  75 C75          -18.5280    -2.7063   -30.1171 C.2     
  76 C76          -17.4261    -3.2699   -33.7393 C.3     
  77 C77          -17.5972    -3.2151   -27.9235 C.3     
  78 C78           -2.9768    -3.6971     7.3758 C.3     
  79 C79          -16.0373    -3.2954   -34.3808 C.3     
  80 C80           -1.5251    -7.8329     5.0337 C.2     
  81 C81           -2.4606    -2.1479     9.2420 C.2     
  82 C82          -18.7416    -3.8893   -27.1640 C.3     
  83 C83           -1.1982    -8.1278     3.5924 C.3     
  84 C84          -20.0705    -3.2496   -27.5711 C.3     
  85 C85          -16.2800    -3.7591   -27.4337 C.2     
  86 C86           -3.1765     0.1777     9.3701 C.3     
  87 C87            0.2083    -7.6170     3.2736 C.3     
  88 C88          -21.2148    -3.9237   -26.8116 C.3     
  89 C89          -14.6545    -4.1526   -25.6617 C.3     
  90 C90           -1.9884     0.9151     9.9910 C.3     
  91 C91           -3.4138    -7.2494     0.5967 C.3     
  92 C92           -2.4146    -7.9389     1.4896 C.2     
  93 C93          -13.5523    -3.1211   -25.9109 C.3     
  94 C94           -4.7865    -7.2489     1.2724 C.3     
  95 C95           -3.9181     1.1086     8.4457 C.2     
  96 C96          -22.5437    -3.2841   -27.2187 C.3     
  97 C97          -14.7479    -4.4411   -24.1855 C.2     
  98 C98          -15.0347    -3.7498   -36.5805 C.2     
  99 C99           -5.7719    -6.4417     0.4248 C.3     
 100 C100          -1.1450    -0.0696    10.8034 C.3     
 101 C101         -13.7728    -5.2186   -22.0922 C.3     
 102 C102         -13.3725    -2.9206   -27.4171 C.3     
 103 C103         -14.3678    -6.6123   -21.8817 C.3     
 104 C104          -7.1446    -6.4412     1.1005 C.3     
 105 C105         -15.8107    -6.6331   -22.3903 C.3     
 106 C106          -3.9884    -8.0394    -3.1047 C.3     
 107 C107          -3.9009    -7.3080    -1.7901 C.2     
 108 C108          -8.1299    -5.6339     0.2530 C.3     
 109 C109         -12.3963    -5.1625   -21.4813 C.2     
 110 C110          -2.6087    -8.5857    -3.4772 C.3     
 111 C111          -5.4478     2.9663     8.0637 C.3     
 112 C112         -12.2869    -1.9046   -27.6626 C.2     
 113 C113         -16.3646    -8.0561   -22.2950 C.3     
 114 C114         -16.6659    -5.6946   -21.5365 C.3     
 115 C115          -2.7212    -9.4330    -4.7463 C.3     
 116 C116         -10.8964    -5.3353   -19.5689 C.3     
 117 C117          -1.3414    -9.9793    -5.1188 C.3     
 118 C118          -5.0730    -7.5942    -5.2407 C.2     
 119 C119          -6.1496     4.0259     8.8735 C.2     
 120 C120          -5.5440    -6.6457    -6.3129 C.3     
 121 C121          -9.3372    -5.0267     2.2350 C.3     
 122 C122         -10.3940    -4.8584     0.0881 C.3     
 123 C123         -10.8654    -6.1810   -18.3218 C.2     
 124 C124          -9.6992    -7.1035   -16.3916 C.3     
 125 C125         -10.5555    -3.8872   -19.2116 C.3     
 126 C126          -7.6494    -6.3451   -13.2499 C.3     
 127 C127          -7.7692    -4.8503   -12.9465 C.3     
 128 C128          -9.4159    -8.5589   -16.7692 C.3     
 129 C129          -8.6152    -6.6030   -15.4720 C.2     
 130 C130          -6.5461    -5.6565    -5.7145 C.3     
 131 C131          -7.5624    -4.0503   -14.2342 C.3     
 132 C132          -6.9012    -7.6783    -9.7403 C.3     
 133 C133          -7.7305    -7.1268   -11.9640 C.2     
 134 C134          -6.2375    -6.8977    -8.6351 C.2     
 135 C135          -7.6822    -2.5555   -13.9307 C.3     
 136 C136          -7.6371     5.9477     9.0500 C.3     
 137 C137          -9.5039    -9.4365   -15.5190 C.3     
 138 C138          -0.3299   -11.3890    -6.8623 C.2     
 139 C139          -6.1896    -9.0216    -9.9142 C.3     
 140 C140          -7.4754    -1.7555   -15.2184 C.3     
 141 C141          -8.4693     6.8096     8.1359 C.2     
 142 H142         -21.0441    -0.4636   -33.8100 H       
 143 H143         -22.3057    -1.5114   -31.5623 H       
 144 H144         -22.9964    -0.1875   -32.5571 H       
 145 H145          -1.6943    -7.1444    10.1246 H       
 146 H146         -23.5756    -3.1989   -32.7244 H       
 147 H147         -24.7437    -1.8350   -32.7350 H       
 148 H148         -24.1162    -1.1655   -34.9574 H       
 149 H149         -23.9977    -2.9472   -35.0850 H       
 150 H150          -0.4244    -5.0816    11.4935 H       
 151 H151          -0.6368    -6.7312    12.1664 H       
 152 H152           1.8035    -5.5660    10.7106 H       
 153 H153           1.7626    -6.5340    12.2225 H       
 154 H154           1.2043    -8.5561    11.0476 H       
 155 H155           2.3138    -7.7720     9.8817 H       
 156 H156         -19.5101    -1.0683   -31.9453 H       
 157 H157          -1.4679    -7.0469     7.5021 H       
 158 H158         -19.5070    -2.4205   -35.2315 H       
 159 H159         -19.0731    -3.9885   -31.7336 H       
 160 H160          -2.3051    -4.5259    10.1885 H       
 161 H161         -16.9283    -1.8652   -32.1838 H       
 162 H162         -16.6030    -3.5657   -31.7705 H       
 163 H163          -1.0053    -3.0939     8.0004 H       
 164 H164          -1.7059   -10.0580     7.9292 H       
 165 H165          -2.4430    -8.7785     8.9232 H       
 166 H166          -2.9936    -9.0339     7.2498 H       
 167 H167         -20.2120    -0.0799   -37.0555 H       
 168 H168         -20.2660    -0.0142   -35.2775 H       
 169 H169         -18.7175    -0.2885   -36.1113 H       
 170 H170          -0.0005    -8.9089     5.7970 H       
 171 H171         -17.8821    -4.2566   -33.8207 H       
 172 H172         -18.0499    -2.5379   -34.2522 H       
 173 H173         -18.5388    -2.4461   -37.4339 H       
 174 H174         -19.7332    -3.5999   -37.3444 H       
 175 H175         -17.6320    -2.1391   -27.7528 H       
 176 H176         -17.2562    -4.2288   -29.7578 H       
 177 H177          -3.9333    -3.9407     7.8381 H       
 178 H178          -3.1040    -2.8493     6.7027 H       
 179 H179          -2.6160    -4.5575     6.8122 H       
 180 H180         -15.4135    -4.0274   -33.8679 H       
 181 H181         -15.5813    -2.3087   -34.2993 H       
 182 H182         -18.7611    -4.9521   -27.4048 H       
 183 H183         -18.5906    -3.7623   -26.0920 H       
 184 H184          -1.2411    -9.2037     3.4229 H       
 185 H185         -20.0510    -2.1867   -27.3303 H       
 186 H186         -20.2215    -3.3765   -28.6431 H       
 187 H187          -2.5368    -0.9030     7.6580 H       
 188 H188          -3.8472    -0.1606    10.1599 H       
 189 H189         -17.0325    -3.8429   -36.1747 H       
 190 H190           0.4109    -7.7498     2.2108 H       
 191 H191           0.9393    -8.1782     3.8557 H       
 192 H192          -2.6363    -6.6673     3.0383 H       
 193 H193         -21.2343    -4.9866   -27.0524 H       
 194 H194         -21.0638    -3.7968   -25.7395 H       
 195 H195         -16.5346    -3.1761   -25.5206 H       
 196 H196         -14.4193    -5.0722   -26.1975 H       
 197 H197          -2.3538     1.7066    10.6454 H       
 198 H198          -3.0953    -6.2220     0.4203 H       
 199 H199         -13.8301    -2.1737   -25.4489 H       
 200 H200         -12.6174    -3.4763   -25.4775 H       
 201 H201          -5.1446    -8.2739     1.3683 H       
 202 H202          -4.7044    -6.7987     2.2616 H       
 203 H203         -22.6947    -3.4110   -28.2907 H       
 204 H204         -22.5243    -2.2212   -26.9778 H       
 205 H205          -5.4138    -5.4166     0.3289 H       
 206 H206          -5.8540    -6.8919    -0.5644 H       
 207 H207          -0.6939    -0.8009    10.1328 H       
 208 H208          -0.3601     0.4729    11.3303 H       
 209 H209          -1.7802    -0.5822    11.5258 H       
 210 H210         -14.4121    -4.4750   -21.6164 H       
 211 H211          -3.2658    -8.9008    -0.7297 H       
 212 H212         -13.0947    -3.8680   -27.8790 H       
 213 H213         -14.3074    -2.5654   -27.8505 H       
 214 H214         -12.8547    -5.1100   -24.0036 H       
 215 H215           1.1646    -5.8387     3.4296 H       
 216 H216         -13.7782    -7.3460   -22.4315 H       
 217 H217         -14.3534    -6.8569   -20.8196 H       
 218 H218          -7.5027    -7.4662     1.1965 H       
 219 H219          -7.0624    -5.9909     2.0898 H       
 220 H220          -4.6219     2.3077     9.9056 H       
 221 H221         -15.8347    -6.3026   -23.4287 H       
 222 H222          -4.6940    -8.8653    -3.0148 H       
 223 H223          -1.6586     2.1214     8.3981 H       
 224 H224         -23.4925    -3.8836   -25.4927 H       
 225 H225         -24.5316    -3.5262   -26.7411 H       
 226 H226          -8.2121    -6.0841    -0.7362 H       
 227 H227          -7.7718    -4.6089     0.1571 H       
 228 H228          -1.9248    -7.7556    -3.6541 H       
 229 H229          -2.2294    -9.2015    -2.6617 H       
 230 H230         -13.7160    -3.2506   -35.1052 H       
 231 H231         -13.0033    -3.5553   -36.5959 H       
 232 H232          -4.8023     3.4415     7.3252 H       
 233 H233          -6.1877     2.3480     7.5554 H       
 234 H234         -14.3497    -4.1378   -38.3928 H       
 235 H235         -16.3406    -8.3866   -21.2566 H       
 236 H236         -17.3925    -8.0708   -22.6574 H       
 237 H237         -15.7553    -8.7246   -22.9033 H       
 238 H238         -16.2712    -4.6809   -21.6044 H       
 239 H239         -17.6938    -5.7094   -21.8988 H       
 240 H240         -16.6419    -6.0251   -20.4981 H       
 241 H241          -3.4050   -10.2632    -4.5694 H       
 242 H242          -3.1005    -8.8172    -5.5618 H       
 243 H243          -4.2982    -6.1636    -4.0500 H       
 244 H244         -13.0040    -5.5896   -19.6070 H       
 245 H245         -10.1660    -5.7148   -20.2834 H       
 246 H246          -0.9622   -10.5950    -4.3032 H       
 247 H247          -0.6576    -9.1491    -5.2956 H       
 248 H248          -4.6907    -6.0998    -6.7155 H       
 249 H249         -10.4761    -5.3086    -0.9012 H       
 250 H250         -11.3719    -4.8580     0.5694 H       
 251 H251         -10.0359    -3.8333    -0.0078 H       
 252 H252          -8.9791    -4.0017     2.1391 H       
 253 H253         -10.3151    -5.0263     2.7164 H       
 254 H254          -8.6352    -5.6018     2.8388 H       
 255 H255         -11.2545    -0.9124   -29.0818 H       
 256 H256         -12.4119    -1.9769   -29.6735 H       
 257 H257         -10.6626    -7.0403   -15.8857 H       
 258 H258         -11.2859    -3.5077   -18.4971 H       
 259 H259          -9.5600    -3.8466   -18.7698 H       
 260 H260         -10.5779    -3.2756   -20.1136 H       
 261 H261          -6.6933    -6.5419   -13.7350 H       
 262 H262          -8.9315    -5.8095   -17.8897 H       
 263 H263          -8.7596    -4.6397   -12.5430 H       
 264 H264          -7.0114    -4.5659   -12.2164 H       
 265 H265          -8.4164    -8.6353   -17.1972 H       
 266 H266          -7.0828     4.8773     7.3022 H       
 267 H267          -6.5815    -8.2718    -7.2005 H       
 268 H268          -2.3102   -10.9055    -6.7655 H       
 269 H269          -7.3993    -6.2024    -5.3119 H       
 270 H270          -6.0661    -5.0919    -4.9151 H       
 271 H271          -6.8867    -4.9704    -6.4900 H       
 272 H272          -9.5538    -7.1287   -13.7670 H       
 273 H273          -6.5720    -4.2609   -14.6377 H       
 274 H274          -8.3202    -4.3348   -14.9642 H       
 275 H275          -7.9468    -7.8513    -9.4856 H       
 276 H276          -6.1164    -6.2653   -11.1171 H       
 277 H277          -8.6727    -2.3449   -13.5273 H       
 278 H278          -6.9245    -2.2711   -13.2007 H       
 279 H279         -10.5152    -9.3929   -15.1149 H       
 280 H280          -9.2611   -10.4665   -15.7803 H       
 281 H281          -8.7979    -9.0753   -14.7712 H       
 282 H282          -8.2827     5.4725     9.7886 H       
 283 H283          -6.8973     6.5660     9.5584 H       
 284 H284          -6.2483    -9.5869    -8.9842 H       
 285 H285          -6.6696    -9.5862   -10.7136 H       
 286 H286          -5.1440    -8.8485   -10.1689 H       
 287 H287          -8.2332    -2.0400   -15.9485 H       
 288 H288          -6.4850    -1.9661   -15.6219 H       
 289 H289         -10.3805    -8.4857   -18.5484 H       
 290 H290          -1.2921   -12.2653    -8.4343 H       
 291 H291           0.3586   -12.5726    -8.3755 H       
 292 H292          -7.4577     0.2300   -15.7623 H       
 293 H293          -8.4762    -0.1095   -14.4922 H       
 294 H294           1.6167   -11.6569    -6.6551 H       
 295 H295          -9.7053     8.3501     8.0151 H       
 296 C296          -9.9305    -7.0149     1.0310 C.3     
 297 H297          -9.2285    -7.5900     1.6348 H       
 298 H298         -10.9085    -7.0145     1.5124 H       
 299 H299         -10.0127    -7.4651     0.0418 H       
@<TRIPOS>BOND
   1    1   64 2
   2    2   65 2
   3    3   66 2
   4    4   67 2
   5    5   75 2
   6    6   80 2
   7    7   81 2
   8    8   85 2
   9    9   87 1
  10    9  215 1
  11   10  223 1
  12   10   90 1
  13   11   92 2
  14   12   95 2
  15   13   97 2
  16   14  107 2
  17   15  109 2
  18   16  112 2
  19   17  118 2
  20   18  119 2
  21   19  123 2
  22   20  289 1
  23   20  128 1
  24   21  129 2
  25   22  133 2
  26   23  134 2
  27   24  141 1
  28   24  295 1
  29   25  141 2
  30   26   56 1
  31   26   60 1
  32   26   65 am
  33   27   58 1
  34   27   63 1
  35   27   67 am
  36   28   64 am
  37   28  156 1
  38   28   70 1
  39   29   66 am
  40   29  160 1
  41   29   72 1
  42   30   80 am
  43   30  170 1
  44   30   68 1
  45   31  173 1
  46   31  174 1
  47   31   69 1
  48   32   75 am
  49   32  176 1
  50   32   77 1
  51   33   81 am
  52   33  187 1
  53   33   86 1
  54   34   79 1
  55   34   98 1
  56   34  189 1
  57   35   92 am
  58   35  192 1
  59   35   83 1
  60   36   85 am
  61   36  195 1
  62   36   89 1
  63   37  107 am
  64   37  211 1
  65   37   91 1
  66   38   97 am
  67   38  214 1
  68   38  101 1
  69   39   95 am
  70   39  111 1
  71   39  220 1
  72   40   96 1
  73   40  224 1
  74   40  225 1
  75   41   98 1
  76   41  230 1
  77   41  231 1
  78   42   98 2
  79   42  234 1
  80   43  118 am
  81   43  243 1
  82   43  106 1
  83   44  108 1
  84   44  121 1
  85   44  122 1
  86   44  296 1
  87   45  109 am
  88   45  244 1
  89   45  116 1
  90   46  112 am
  91   46  255 1
  92   46  256 1
  93   47  123 am
  94   47  262 1
  95   47  124 1
  96   48  119 am
  97   48  136 1
  98   48  266 1
  99   49  134 am
 100   49  267 1
 101   49  120 1
 102   50  117 1
 103   50  138 1
 104   50  268 1
 105   51  129 am
 106   51  272 1
 107   51  126 1
 108   52  133 am
 109   52  276 1
 110   52  132 1
 111   53  138 1
 112   53  290 1
 113   53  291 1
 114   54  140 1
 115   54  292 1
 116   54  293 1
 117   55  138 2
 118   55  294 1
 119   56   57 1
 120   56   64 1
 121   56  142 1
 122   57   59 1
 123   57  143 1
 124   57  144 1
 125   58   61 1
 126   58   66 1
 127   58  145 1
 128   59   60 1
 129   59  146 1
 130   59  147 1
 131   60  148 1
 132   60  149 1
 133   61   62 1
 134   61  150 1
 135   61  151 1
 136   62   63 1
 137   62  152 1
 138   62  153 1
 139   63  154 1
 140   63  155 1
 141   65   69 1
 142   67   68 1
 143   68   73 1
 144   68  157 1
 145   69   74 1
 146   69  158 1
 147   70   71 1
 148   70   75 1
 149   70  159 1
 150   71   76 1
 151   71  161 1
 152   71  162 1
 153   72   78 1
 154   72   81 1
 155   72  163 1
 156   73  164 1
 157   73  165 1
 158   73  166 1
 159   74  167 1
 160   74  168 1
 161   74  169 1
 162   76   79 1
 163   76  171 1
 164   76  172 1
 165   77   82 1
 166   77   85 1
 167   77  175 1
 168   78  177 1
 169   78  178 1
 170   78  179 1
 171   79  180 1
 172   79  181 1
 173   80   83 1
 174   82   84 1
 175   82  182 1
 176   82  183 1
 177   83   87 1
 178   83  184 1
 179   84   88 1
 180   84  185 1
 181   84  186 1
 182   86   90 1
 183   86   95 1
 184   86  188 1
 185   87  190 1
 186   87  191 1
 187   88   96 1
 188   88  193 1
 189   88  194 1
 190   89   93 1
 191   89   97 1
 192   89  196 1
 193   90  100 1
 194   90  197 1
 195   91   92 1
 196   91   94 1
 197   91  198 1
 198   93  102 1
 199   93  199 1
 200   93  200 1
 201   94   99 1
 202   94  201 1
 203   94  202 1
 204   96  203 1
 205   96  204 1
 206   99  104 1
 207   99  205 1
 208   99  206 1
 209  100  207 1
 210  100  208 1
 211  100  209 1
 212  101  103 1
 213  101  109 1
 214  101  210 1
 215  102  112 1
 216  102  212 1
 217  102  213 1
 218  103  105 1
 219  103  216 1
 220  103  217 1
 221  104  108 1
 222  104  218 1
 223  104  219 1
 224  105  113 1
 225  105  114 1
 226  105  221 1
 227  106  107 1
 228  106  110 1
 229  106  222 1
 230  108  226 1
 231  108  227 1
 232  110  115 1
 233  110  228 1
 234  110  229 1
 235  111  119 1
 236  111  232 1
 237  111  233 1
 238  113  235 1
 239  113  236 1
 240  113  237 1
 241  114  238 1
 242  114  239 1
 243  114  240 1
 244  115  117 1
 245  115  241 1
 246  115  242 1
 247  116  123 1
 248  116  125 1
 249  116  245 1
 250  117  246 1
 251  117  247 1
 252  118  120 1
 253  120  130 1
 254  120  248 1
 255  121  252 1
 256  121  253 1
 257  121  254 1
 258  122  249 1
 259  122  250 1
 260  122  251 1
 261  124  128 1
 262  124  129 1
 263  124  257 1
 264  125  258 1
 265  125  259 1
 266  125  260 1
 267  126  127 1
 268  126  133 1
 269  126  261 1
 270  127  131 1
 271  127  263 1
 272  127  264 1
 273  128  137 1
 274  128  265 1
 275  130  269 1
 276  130  270 1
 277  130  271 1
 278  131  135 1
 279  131  273 1
 280  131  274 1
 281  132  134 1
 282  132  139 1
 283  132  275 1
 284  135  140 1
 285  135  277 1
 286  135  278 1
 287  136  141 1
 288  136  282 1
 289  136  283 1
 290  137  279 1
 291  137  280 1
 292  137  281 1
 293  139  284 1
 294  139  285 1
 295  139  286 1
 296  140  287 1
 297  140  288 1
 298  296  297 1
 299  296  298 1
 300  296  299 1

#	End of record

