#	Name: ASD13010031
#	Creating user name:	WinNT
#	Creation time:	15. 06. 2019 21:30

#	Modifying user name:	WinNT
#	Modification time:	15. 06. 2019 21:30

#	Program:	/corina/corina34_cracker 3.40 0067  02.08.2006

@<TRIPOS>MOLECULE
ASD13010031
  52   55    0    0    0
SMALL
NO_CHARGES


@<TRIPOS>ATOM
   1 C1             0.3489     1.3998    -0.4952 C.ar    
   2 C2             0.2748     0.0552    -0.2866 C.ar    
   3 C3             1.4077    -0.7566    -0.4460 C.ar    
   4 C4             2.6230    -0.1935    -0.8203 C.ar    
   5 C5             1.5568     1.9853    -0.8713 C.ar    
   6 N6             1.9362     3.2743    -1.1460 N.pl3   
   7 C7             2.7033     1.1810    -1.0351 C.ar    
   8 C8             3.7869     2.0860    -1.4261 C.2     
   9 N9             3.2942     3.2940    -1.4784 N.2     
  10 C10            1.0997     4.3888    -1.1017 C.ar    
  11 O11            5.0720     1.7322    -1.6873 O.3     
  12 C12            5.9450     2.7129    -2.0380 C.ar    
  13 C13            6.1074     3.0546    -3.3744 C.ar    
  14 C14            6.6714     3.3784    -1.0616 C.ar    
  15 C15            7.5585     4.3751    -1.4208 C.ar    
  16 C16            7.7228     4.7098    -2.7519 C.ar    
  17 C17            6.9961     4.0523    -3.7277 C.ar    
  18 C18           -0.5631     6.6042    -1.0136 C.ar    
  19 C19           -1.0644     5.3680    -1.4327 C.ar    
  20 C20           -0.2358     4.2699    -1.4753 C.ar    
  21 C21            1.6006     5.6165    -0.6785 C.ar    
  22 C22            0.7776     6.7188    -0.6336 C.ar    
  23 C23           -1.4477     7.7830    -0.9672 C.2     
  24 O24           -2.6137     7.6809    -1.2934 O.2     
  25 O25           -0.9630     8.9736    -0.5629 O.3     
  26 C26            1.3097    -2.2117    -0.2155 C.2     
  27 O27            0.3507    -2.8304    -0.6346 O.2     
  28 Cl28           5.1957     2.2290    -4.5994 Cl      
  29 C29            6.4929     3.0150     0.3900 C.3     
  30 N30            2.2835    -2.8540     0.4595 N.am    
  31 C31            2.1444    -4.2799     0.7659 C.3     
  32 C32            3.4811    -2.1265     0.8869 C.3     
  33 H33           -0.5317     2.0129    -0.3731 H       
  34 H34           -0.6652    -0.3898     0.0046 H       
  35 H35            3.4969    -0.8160    -0.9431 H       
  36 H36            8.1238     4.8936    -0.6605 H       
  37 H37            8.4165     5.4894    -3.0300 H       
  38 H38            7.1234     4.3185    -4.7667 H       
  39 H39           -2.0995     5.2760    -1.7266 H       
  40 H40           -0.6222     3.3149    -1.7993 H       
  41 H41            2.6362     5.7042    -0.3848 H       
  42 H42            1.1680     7.6721    -0.3093 H       
  43 H43           -1.5808     9.7174    -0.5492 H       
  44 H44            7.1998     2.2297     0.6575 H       
  45 H45            6.6740     3.8934     1.0094 H       
  46 H46            5.4756     2.6590     0.5530 H       
  47 H47            2.5700    -4.8692    -0.0463 H       
  48 H48            2.6710    -4.5054     1.6931 H       
  49 H49            1.0885    -4.5259     0.8786 H       
  50 H50            3.3621    -1.0667     0.6615 H       
  51 H51            3.6214    -2.2562     1.9600 H       
  52 H52            4.3507    -2.5152     0.3572 H       
@<TRIPOS>BOND
   1    1    2 ar
   2    1    5 ar
   3    1   33 1
   4    2    3 ar
   5    2   34 1
   6    3    4 ar
   7    3   26 1
   8    4    7 ar
   9    4   35 1
  10    5    7 ar
  11    5    6 1
  12    6    9 1
  13    6   10 1
  14    7    8 1
  15    8    9 2
  16    8   11 1
  17   10   21 ar
  18   10   20 ar
  19   11   12 1
  20   12   14 ar
  21   12   13 ar
  22   13   17 ar
  23   13   28 1
  24   14   15 ar
  25   14   29 1
  26   15   16 ar
  27   15   36 1
  28   16   17 ar
  29   16   37 1
  30   17   38 1
  31   18   19 ar
  32   18   22 ar
  33   18   23 1
  34   19   20 ar
  35   19   39 1
  36   20   40 1
  37   21   22 ar
  38   21   41 1
  39   22   42 1
  40   23   24 2
  41   23   25 1
  42   25   43 1
  43   26   27 2
  44   26   30 am
  45   29   44 1
  46   29   45 1
  47   29   46 1
  48   30   31 1
  49   30   32 1
  50   31   47 1
  51   31   48 1
  52   31   49 1
  53   32   50 1
  54   32   51 1
  55   32   52 1

#	End of record

