#	Name: ASD10610138
#	Creating user name:	WinNT
#	Creation time:	15. 06. 2019 21:28

#	Modifying user name:	WinNT
#	Modification time:	15. 06. 2019 21:28

#	Program:	/corina/corina34_cracker 3.40 0067  02.08.2006

@<TRIPOS>MOLECULE
ASD10610138
  52   53    0    0    0
SMALL
NO_CHARGES


@<TRIPOS>ATOM
   1 C1             0.8115     1.3087    -0.1885 C.2     
   2 N2             0.6939    -0.0338    -0.1685 N.am    
   3 O3             1.9125     1.8218    -0.2196 O.2     
   4 O4            -0.2912     2.0812    -0.1797 O.3     
   5 C5             1.8937    -0.8744    -0.1842 C.3     
   6 C6             2.3516    -1.0827    -1.6292 C.3     
   7 C7             1.0024    -4.6631     1.5892 C.ar    
   8 C8             2.3117    -4.1861     1.5838 C.ar    
   9 C9             2.5952    -2.9610     1.0100 C.ar    
  10 C10            1.5798    -2.2094     0.4407 C.ar    
  11 C11            0.2797    -2.6798     0.4444 C.ar    
  12 C12           -0.0139    -3.9018     1.0153 C.ar    
  13 C13            0.6927    -5.9798     2.1980 C.ar    
  14 C14            1.0389    -6.2371     3.5276 C.ar    
  15 C15            0.7459    -7.4704     4.0892 C.ar    
  16 C16            0.1135    -8.4422     3.3351 C.ar    
  17 C17           -0.2305    -8.1899     2.0181 C.ar    
  18 C18            0.0505    -6.9629     1.4489 C.ar    
  19 F19            3.8638    -2.4964     1.0034 F       
  20 O20            1.6610    -5.2818     4.2672 O.3     
  21 C21            0.8267    -4.3920     5.0116 C.3     
  22 C22            1.6994    -3.4614     5.8562 C.3     
  23 F23            2.4743    -4.2219     6.7384 F       
  24 F24            2.5392    -2.7210     5.0173 F       
  25 Cl25          -1.0235    -9.4172     1.0807 Cl      
  26 Cl26           1.1737    -7.7953     5.7400 Cl      
  27 C27           -0.0891     3.5189    -0.2024 C.3     
  28 C28            0.6744     3.9066    -1.4704 C.3     
  29 C29           -1.4463     4.2250    -0.1883 C.3     
  30 C30            0.7178     3.9400     1.0275 C.3     
  31 H31           -0.1850    -0.4434    -0.1438 H       
  32 H32            2.6870    -0.3859     0.3815 H       
  33 H33            1.5582    -1.5712    -2.1949 H       
  34 H34            2.5785    -0.1172    -2.0812 H       
  35 H35            3.2442    -1.7082    -1.6409 H       
  36 H36            3.1031    -4.7720     2.0275 H       
  37 H37           -0.5080    -2.0898    -0.0004 H       
  38 H38           -1.0302    -4.2673     1.0175 H       
  39 H39           -0.1126    -9.4021     3.7756 H       
  40 H40           -0.2233    -6.7678     0.4225 H       
  41 H41            0.2230    -3.7995     4.3243 H       
  42 H42            0.1724    -4.9689     5.6652 H       
  43 H43            1.0630    -2.7827     6.4240 H       
  44 H44            0.0996     3.6066    -2.3466 H       
  45 H45            0.8261     4.9858    -1.4875 H       
  46 H46            1.6413     3.4035    -1.4805 H       
  47 H47           -1.9902     3.9488     0.7150 H       
  48 H48           -1.2946     5.3043    -0.2054 H       
  49 H49           -2.0211     3.9250    -1.0645 H       
  50 H50            1.6847     3.4369     1.0174 H       
  51 H51            0.8695     5.0192     1.0104 H       
  52 H52            0.1739     3.6638     1.9308 H       
@<TRIPOS>BOND
   1    1    2 am
   2    1    3 2
   3    1    4 1
   4    2    5 1
   5    2   31 1
   6    4   27 1
   7    5    6 1
   8    5   10 1
   9    5   32 1
  10    6   33 1
  11    6   34 1
  12    6   35 1
  13    7    8 ar
  14    7   12 ar
  15    7   13 1
  16    8    9 ar
  17    8   36 1
  18    9   10 ar
  19    9   19 1
  20   10   11 ar
  21   11   12 ar
  22   11   37 1
  23   12   38 1
  24   13   14 ar
  25   13   18 ar
  26   14   15 ar
  27   14   20 1
  28   15   16 ar
  29   15   26 1
  30   16   17 ar
  31   16   39 1
  32   17   18 ar
  33   17   25 1
  34   18   40 1
  35   20   21 1
  36   21   22 1
  37   21   41 1
  38   21   42 1
  39   22   23 1
  40   22   24 1
  41   22   43 1
  42   27   28 1
  43   27   30 1
  44   27   29 1
  45   28   44 1
  46   28   45 1
  47   28   46 1
  48   29   47 1
  49   29   48 1
  50   29   49 1
  51   30   50 1
  52   30   51 1
  53   30   52 1

#	End of record

