#	Name: ASD10420080
#	Creating user name:	WinNT
#	Creation time:	15. 06. 2019 21:27

#	Modifying user name:	WinNT
#	Modification time:	15. 06. 2019 21:27

#	Program:	/corina/corina34_cracker 3.40 0067  02.08.2006

@<TRIPOS>MOLECULE
ASD10420080
  38   40    0    0    0
SMALL
NO_CHARGES


@<TRIPOS>ATOM
   1 C1            -0.0172     1.4139     0.0098 C.2     
   2 C2             0.0021    -0.0041     0.0020 C.2     
   3 C3             1.2881    -0.3970    -0.0123 C.2     
   4 N4             2.1052     0.7025    -0.0142 N.pl3   
   5 C5             3.4673     0.8148    -0.0273 C.2     
   6 C6             4.0602     2.0279    -0.0267 C.2     
   7 C7             3.2843     3.1965    -0.0131 C.2     
   8 C8             1.9242     3.0981    -0.0004 C.2     
   9 C9             1.3274     1.8291    -0.0008 C.2     
  10 C10           -1.1632     2.2475     0.0200 C.2     
  11 O11           -1.6501     2.5998     1.0784 O.2     
  12 O12           -1.7146     2.6508    -1.1440 O.3     
  13 C13           -1.2031    -0.9088     0.0091 C.3     
  14 C14           -1.6932    -1.1038    -1.4026 C.ar    
  15 C15           -1.1292    -2.0810    -2.2009 C.ar    
  16 C16           -1.5799    -2.2602    -3.4976 C.ar    
  17 C17           -2.5955    -1.4598    -3.9932 C.ar    
  18 C18           -3.1578    -0.4835    -3.1933 C.ar    
  19 C19           -2.7104    -0.3090    -1.8967 C.ar    
  20 C20           -0.0237    -2.9508    -1.6602 C.3     
  21 F21           -1.0290    -3.2148    -4.2789 F       
  22 C22           -2.8683     3.4899    -1.0589 C.3     
  23 H23            1.6253    -1.4230    -0.0207 H       
  24 H24            4.0763    -0.0770    -0.0378 H       
  25 H25            5.1378     2.0989    -0.0364 H       
  26 H26            3.7601     4.1661    -0.0123 H       
  27 H27            1.3129     3.9884     0.0098 H       
  28 H28           -0.9303    -1.8741     0.4355 H       
  29 H29           -1.9932    -0.4569     0.6088 H       
  30 H30           -2.9476    -1.5985    -5.0047 H       
  31 H31           -3.9499     0.1408    -3.5797 H       
  32 H32           -3.1536     0.4514    -1.2707 H       
  33 H33           -0.4539    -3.8371    -1.1938 H       
  34 H34            0.6335    -3.2522    -2.4759 H       
  35 H35            0.5489    -2.3923    -0.9198 H       
  36 H36           -3.6608     2.9649    -0.5257 H       
  37 H37           -2.6138     4.4043    -0.5231 H       
  38 H38           -3.2101     3.7404    -2.0631 H       
@<TRIPOS>BOND
   1    1    2 1
   2    1    9 2
   3    1   10 1
   4    2    3 2
   5    2   13 1
   6    3    4 1
   7    3   23 1
   8    4    5 1
   9    4    9 1
  10    5    6 2
  11    5   24 1
  12    6    7 1
  13    6   25 1
  14    7    8 2
  15    7   26 1
  16    8    9 1
  17    8   27 1
  18   10   11 2
  19   10   12 1
  20   12   22 1
  21   13   14 1
  22   13   28 1
  23   13   29 1
  24   14   15 ar
  25   14   19 ar
  26   15   16 ar
  27   15   20 1
  28   16   17 ar
  29   16   21 1
  30   17   18 ar
  31   17   30 1
  32   18   19 ar
  33   18   31 1
  34   19   32 1
  35   20   33 1
  36   20   34 1
  37   20   35 1
  38   22   36 1
  39   22   37 1
  40   22   38 1

#	End of record

