#	Name: ASD10160246
#	Creating user name:	WinNT
#	Creation time:	15. 06. 2019 21:25

#	Modifying user name:	WinNT
#	Modification time:	15. 06. 2019 21:25

#	Program:	/corina/corina34_cracker 3.40 0067  02.08.2006

@<TRIPOS>MOLECULE
ASD10160246
  43   45    0    0    0
SMALL
NO_CHARGES


@<TRIPOS>ATOM
   1 C1             0.0336     1.4724     0.0021 C.2     
   2 C2             0.0400    -0.0040    -0.0048 C.ar    
   3 C3             1.2412    -0.6949    -0.1538 C.ar    
   4 C4             1.2414    -2.0875    -0.1597 C.ar    
   5 C5             0.0313    -2.7852    -0.0154 C.ar    
   6 C6            -1.1595    -2.0865     0.1323 C.ar    
   7 C7            -1.1589    -0.7093     0.1438 C.ar    
   8 O8             1.0761     2.0855    -0.1221 O.2     
   9 N9            -1.1287     2.1406     0.1406 N.am    
  10 O10            0.0256    -4.1406    -0.0209 O.3     
  11 C11            0.2478    -4.7833     1.1533 C.ar    
  12 C12            0.1590    -6.1666     1.2055 C.ar    
  13 C13            0.3907    -6.8133     2.4198 C.ar    
  14 C14            0.7041    -6.0317     3.5372 C.ar    
  15 C15            0.7725    -4.6618     3.4006 C.ar    
  16 N16            0.5522    -4.0839     2.2344 N.ar    
  17 C17            0.3064    -8.2911     2.5237 C.ar    
  18 C18            0.5407    -8.9207     3.7445 C.ar    
  19 C19            0.4610   -10.2956     3.8354 C.ar    
  20 C20            0.1496   -11.0483     2.7175 C.ar    
  21 C21           -0.0840   -10.4285     1.5031 C.ar    
  22 C22           -0.0131    -9.0538     1.4022 C.ar    
  23 S23           -1.1359     3.7966     0.1485 S.o2    
  24 O24           -2.5020     4.1402     0.3353 O.2     
  25 O25           -0.1537     4.1467     1.1139 O.2     
  26 C26           -0.5851     4.2595    -1.5168 C.3     
  27 C27            2.4710    -2.8054    -0.3127 C.1     
  28 N28            3.4464    -3.3748    -0.4341 N.1     
  29 H29            2.1684    -0.1523    -0.2647 H       
  30 H30           -2.0891    -2.6250     0.2431 H       
  31 H31           -2.0880    -0.1719     0.2636 H       
  32 H32           -1.9609     1.6515     0.2357 H       
  33 H33           -0.0860    -6.7342     0.3199 H       
  34 H34            0.8897    -6.4958     4.4946 H       
  35 H35            1.0137    -4.0527     4.2592 H       
  36 H36            0.7846    -8.3340     4.6178 H       
  37 H37            0.6425   -10.7847     4.7811 H       
  38 H38            0.0890   -12.1239     2.7929 H       
  39 H39           -0.3268   -11.0210     0.6334 H       
  40 H40           -0.2000    -8.5706     0.4546 H       
  41 H41           -1.2770     3.8530    -2.2544 H       
  42 H42           -0.5598     5.3458    -1.6022 H       
  43 H43            0.4125     3.8577    -1.6943 H       
@<TRIPOS>BOND
   1    1    2 1
   2    1    8 2
   3    1    9 am
   4    2    3 ar
   5    2    7 ar
   6    3    4 ar
   7    3   29 1
   8    4    5 ar
   9    4   27 1
  10    5    6 ar
  11    5   10 1
  12    6    7 ar
  13    6   30 1
  14    7   31 1
  15    9   23 am
  16    9   32 1
  17   10   11 1
  18   11   12 ar
  19   11   16 ar
  20   12   13 ar
  21   12   33 1
  22   13   14 ar
  23   13   17 1
  24   14   15 ar
  25   14   34 1
  26   15   16 ar
  27   15   35 1
  28   17   18 ar
  29   17   22 ar
  30   18   19 ar
  31   18   36 1
  32   19   20 ar
  33   19   37 1
  34   20   21 ar
  35   20   38 1
  36   21   22 ar
  37   21   39 1
  38   22   40 1
  39   23   24 2
  40   23   25 2
  41   23   26 1
  42   26   41 1
  43   26   42 1
  44   26   43 1
  45   27   28 3

#	End of record

