#	Name: ASD10610003
#	Creating user name:	WinNT
#	Creation time:	15. 06. 2019 21:27

#	Modifying user name:	WinNT
#	Modification time:	15. 06. 2019 21:27

#	Program:	/corina/corina34_cracker 3.40 0067  02.08.2006

@<TRIPOS>MOLECULE
ASD10610003
  54   57    0    0    0
SMALL
NO_CHARGES


@<TRIPOS>ATOM
   1 C1             0.0332     1.3758    -0.1343 C.3     
   2 C2             0.1843    -0.1412    -0.2640 C.3     
   3 C3             1.4271     0.7497    -0.2112 C.3     
   4 C4            -0.4575     2.1319    -1.3420 C.2     
   5 O5            -0.3107     1.6641    -2.4513 O.2     
   6 N6            -1.0596     3.3280    -1.1894 N.am    
   7 C7            -1.4371     4.1136    -2.3669 C.3     
   8 C8            -2.6033     5.0648    -2.0247 C.3     
   9 C9            -1.8672     6.3589    -1.6179 C.3     
  10 C10           -0.5440     6.3094    -2.3518 C.ar    
  11 C11            0.3678     7.3140    -2.6196 C.ar    
  12 C12            1.5353     7.0287    -3.3225 C.ar    
  13 C13            1.7798     5.7262    -3.7543 C.ar    
  14 C14            0.8651     4.7311    -3.4827 C.ar    
  15 C15           -0.2964     5.0184    -2.7826 C.ar    
  16 C16            2.5138     8.1055    -3.6107 C.ar    
  17 C17            2.9166     8.3542    -4.9259 C.ar    
  18 C18            3.8313     9.3628    -5.1870 C.ar    
  19 C19            4.3431    10.1195    -4.1485 C.ar    
  20 C20            3.9462     9.8750    -2.8449 C.ar    
  21 C21            3.0308     8.8769    -2.5725 C.ar    
  22 O22            2.4137     7.6094    -5.9453 O.3     
  23 C23            1.2760     8.1344    -6.6324 C.3     
  24 C24            0.9317     7.2277    -7.8157 C.3     
  25 F25            2.0207     7.1711    -8.6921 F       
  26 F26            0.6417     5.9413    -7.3485 F       
  27 Cl27           4.5955    10.8305    -1.5492 Cl      
  28 Cl28           4.3350     9.6759    -6.8185 Cl      
  29 N29           -0.4006     1.9040     1.1614 N.am    
  30 C30           -1.6320     1.6173     1.6280 C.2     
  31 O31           -2.3474     0.8495     1.0198 O.2     
  32 C32           -2.1202     2.2505     2.9054 C.3     
  33 F33           -3.4162     1.8024     3.1824 F       
  34 F34           -1.2690     1.8949     3.9571 F       
  35 F35           -2.1286     3.6422     2.7624 F       
  36 H36           -0.0390    -0.7462     0.6148 H       
  37 H37           -0.0712    -0.5923    -1.2228 H       
  38 H38            1.9892     0.8847    -1.1353 H       
  39 H39            2.0214     0.7308     0.7023 H       
  40 H40           -1.2429     3.6688    -0.2999 H       
  41 H41           -1.7163     3.4531    -3.1878 H       
  42 H42           -3.2331     5.2354    -2.8978 H       
  43 H43           -3.1898     4.6749    -1.1928 H       
  44 H44           -2.4395     7.2330    -1.9285 H       
  45 H45           -1.7018     6.3773    -0.5407 H       
  46 H46            0.1738     8.3218    -2.2834 H       
  47 H47            2.6830     5.4972    -4.3003 H       
  48 H48            1.0545     3.7219    -3.8173 H       
  49 H49            5.0557    10.9042    -4.3554 H       
  50 H50            2.7198     8.6918    -1.5549 H       
  51 H51            0.4276     8.1785    -5.9495 H       
  52 H52            1.5020     9.1367    -6.9963 H       
  53 H53            0.0639     7.6281    -8.3398 H       
  54 H54            0.1985     2.4602     1.6836 H       
@<TRIPOS>BOND
   1    1    2 1
   2    1    3 1
   3    1    4 1
   4    1   29 1
   5    2    3 1
   6    2   36 1
   7    2   37 1
   8    3   38 1
   9    3   39 1
  10    4    5 2
  11    4    6 am
  12    6    7 1
  13    6   40 1
  14    7    8 1
  15    7   15 1
  16    7   41 1
  17    8    9 1
  18    8   42 1
  19    8   43 1
  20    9   10 1
  21    9   44 1
  22    9   45 1
  23   10   11 ar
  24   10   15 ar
  25   11   12 ar
  26   11   46 1
  27   12   13 ar
  28   12   16 1
  29   13   14 ar
  30   13   47 1
  31   14   15 ar
  32   14   48 1
  33   16   17 ar
  34   16   21 ar
  35   17   18 ar
  36   17   22 1
  37   18   19 ar
  38   18   28 1
  39   19   20 ar
  40   19   49 1
  41   20   21 ar
  42   20   27 1
  43   21   50 1
  44   22   23 1
  45   23   24 1
  46   23   51 1
  47   23   52 1
  48   24   25 1
  49   24   26 1
  50   24   53 1
  51   29   30 am
  52   29   54 1
  53   30   31 2
  54   30   32 1
  55   32   33 1
  56   32   34 1
  57   32   35 1

#	End of record

