#	Name: ASD10800026
#	Creating user name:	WinNT
#	Creation time:	15. 06. 2019 21:28

#	Modifying user name:	WinNT
#	Modification time:	15. 06. 2019 21:28

#	Program:	/corina/corina34_cracker 3.40 0067  02.08.2006

@<TRIPOS>MOLECULE
ASD10800026
  54   57    0    0    0
SMALL
NO_CHARGES


@<TRIPOS>ATOM
   1 N1             0.0766     1.4565    -0.0579 N.pl3   
   2 C2             0.0620    -0.0062     0.0233 C.3     
   3 C3             0.6273    -0.5945    -1.2710 C.3     
   4 C4             0.9061    -0.4532     1.1889 C.ar    
   5 C5             2.1510    -1.0027     0.9613 C.ar    
   6 C6             2.9256    -1.4137     2.0297 C.ar    
   7 C7             2.4474    -1.2742     3.3164 C.ar    
   8 C8             1.1940    -0.7228     3.5475 C.ar    
   9 C9             0.7308    -0.6078     4.9762 C.3     
  10 C10           -0.4250     0.3843     5.0880 C.3     
  11 C11           -1.4893     0.0060     4.0512 C.3     
  12 C12           -0.9371     0.3110     2.6603 C.3     
  13 C13            0.4268    -0.3033     2.4837 C.ar    
  14 C14           -0.2848    -0.2498    -2.4200 C.ar    
  15 C15           -0.0853     0.9163    -3.1351 C.ar    
  16 C16           -0.9221     1.2325    -4.1890 C.ar    
  17 C17           -1.9581     0.3825    -4.5281 C.ar    
  18 C18           -2.1571    -0.7840    -3.8135 C.ar    
  19 C19           -1.3177    -1.1024    -2.7624 C.ar    
  20 C20           -3.2868    -1.7105    -4.1829 C.3     
  21 C21           -0.7051     2.5042    -4.9680 C.3     
  22 S22            1.4347     3.8724    -0.4126 S.3     
  23 C23            1.2704     2.1257    -0.1974 C.2     
  24 N24            2.4301     1.5735    -0.1904 N.2     
  25 C25            3.6154     2.3867    -0.3466 C.3     
  26 C26            3.2545     3.8721    -0.5043 C.3     
  27 H27           -0.7558     1.9528    -0.0172 H       
  28 H28           -0.9623    -0.3522     0.1626 H       
  29 H29            1.6180    -0.1794    -1.4565 H       
  30 H30            0.6993    -1.6780    -1.1767 H       
  31 H31            2.5188    -1.1117    -0.0483 H       
  32 H32            3.9017    -1.8428     1.8579 H       
  33 H33            3.0527    -1.5968     4.1507 H       
  34 H34            0.4004    -1.5856     5.3268 H       
  35 H35            1.5594    -0.2656     5.5963 H       
  36 H36           -0.8542     0.3366     6.0888 H       
  37 H37           -0.0630     1.3933     4.8909 H       
  38 H38           -1.7177    -1.0569     4.1306 H       
  39 H39           -2.3934     0.5900     4.2234 H       
  40 H40           -1.6156    -0.0910     1.9080 H       
  41 H41           -0.8595     1.3908     2.5332 H       
  42 H42            0.7241     1.5804    -2.8702 H       
  43 H43           -2.6123     0.6299    -5.3510 H       
  44 H44           -1.4709    -2.0155    -2.2064 H       
  45 H45           -2.9367    -2.4355    -4.9176 H       
  46 H46           -3.6332    -2.2343    -3.2919 H       
  47 H47           -4.1077    -1.1317    -4.6062 H       
  48 H48           -0.0297     2.3093    -5.8011 H       
  49 H49           -1.6604     2.8631    -5.3511 H       
  50 H50           -0.2684     3.2601    -4.3154 H       
  51 H51            4.2506     2.2646     0.5307 H       
  52 H52            4.1618     2.0560    -1.2299 H       
  53 H53            3.5909     4.2491    -1.4701 H       
  54 H54            3.6806     4.4598     0.3087 H       
@<TRIPOS>BOND
   1    1    2 1
   2    1   23 1
   3    1   27 1
   4    2    3 1
   5    2    4 1
   6    2   28 1
   7    3   14 1
   8    3   29 1
   9    3   30 1
  10    4    5 ar
  11    4   13 ar
  12    5    6 ar
  13    5   31 1
  14    6    7 ar
  15    6   32 1
  16    7    8 ar
  17    7   33 1
  18    8    9 1
  19    8   13 ar
  20    9   10 1
  21    9   34 1
  22    9   35 1
  23   10   11 1
  24   10   36 1
  25   10   37 1
  26   11   12 1
  27   11   38 1
  28   11   39 1
  29   12   13 1
  30   12   40 1
  31   12   41 1
  32   14   15 ar
  33   14   19 ar
  34   15   16 ar
  35   15   42 1
  36   16   17 ar
  37   16   21 1
  38   17   18 ar
  39   17   43 1
  40   18   19 ar
  41   18   20 1
  42   19   44 1
  43   20   45 1
  44   20   46 1
  45   20   47 1
  46   21   48 1
  47   21   49 1
  48   21   50 1
  49   22   23 1
  50   22   26 1
  51   23   24 2
  52   24   25 1
  53   25   26 1
  54   25   51 1
  55   25   52 1
  56   26   53 1
  57   26   54 1

#	End of record

