#	Name: ASD14340001
#	Creating user name:	WinNT
#	Creation time:	15. 06. 2019 21:31

#	Modifying user name:	WinNT
#	Modification time:	15. 06. 2019 21:31

#	Program:	/corina/corina34_cracker 3.40 0067  02.08.2006

@<TRIPOS>MOLECULE
ASD14340001
  49   52    0    0    0
SMALL
NO_CHARGES


@<TRIPOS>ATOM
   1 C1            -0.0218     1.5209    -0.0904 C.2     
   2 C2            -0.0077     0.0169    -0.1216 C.3     
   3 C3             1.2663    -0.4843     0.5664 C.3     
   4 C4             2.4748     0.1388    -0.1359 C.3     
   5 C5             2.3746     1.6430    -0.0770 C.2     
   6 C6             1.1738     2.2598    -0.0633 C.2     
   7 C7             1.0815     3.7645    -0.0216 C.3     
   8 N8             3.5314     2.3737    -0.0351 N.pl3   
   9 C9             3.5224     3.6691     0.4040 C.2     
  10 C10            2.3773     4.3708     0.4309 C.2     
  11 C11            0.7492     4.2781    -1.3989 C.2     
  12 C12           -0.3395     4.9958    -1.7292 C.2     
  13 C13           -0.2493     5.2625    -3.1148 C.2     
  14 C14            0.8890     4.6917    -3.5482 C.2     
  15 O15            1.4926     4.1019    -2.5034 O.3     
  16 O16           -1.0857     2.1077    -0.0936 O.2     
  17 C17            4.8060     4.3134     0.8605 C.3     
  18 C18            2.3933     5.7087     0.8961 C.2     
  19 O19            3.4384     6.2122     1.2661 O.2     
  20 N20            1.2517     6.4243     0.9290 N.am    
  21 C21            1.2514     7.7160     1.4648 C.ar    
  22 C22            2.4159     9.7425     2.0012 C.ar    
  23 C23            2.4197     8.4668     1.4717 C.ar    
  24 C24            0.0812     8.2531     1.9862 C.ar    
  25 C25            0.0842     9.5291     2.5141 C.ar    
  26 C26            1.2507    10.2722     2.5241 C.ar    
  27 C27           -1.1903     7.4443     1.9752 C.3     
  28 H28           -0.8817    -0.3670     0.4046 H       
  29 H29           -0.0230    -0.3266    -1.1560 H       
  30 H30            1.2580    -0.1860     1.6148 H       
  31 H31            1.3196    -1.5705     0.4922 H       
  32 H32            3.3896    -0.1837     0.3613 H       
  33 H33            2.4953    -0.1831    -1.1770 H       
  34 H34            0.2897     4.0555     0.6687 H       
  35 H35            4.3658     1.9687    -0.3192 H       
  36 H36           -1.1309     5.3080    -1.0639 H       
  37 H37           -0.9585     5.8175    -3.7109 H       
  38 H38            1.2572     4.7084    -4.5634 H       
  39 H39            5.6239     3.5988     0.7687 H       
  40 H40            5.0147     5.1860     0.2417 H       
  41 H41            4.7077     4.6213     1.9015 H       
  42 H42            0.4303     6.0434     0.5811 H       
  43 H43            3.3241    10.3269     2.0068 H       
  44 H44            3.3303     8.0535     1.0637 H       
  45 H45           -0.8253     9.9473     2.9193 H       
  46 H46            1.2505    11.2696     2.9382 H       
  47 H47           -1.2611     6.8661     2.8965 H       
  48 H48           -2.0466     8.1146     1.9002 H       
  49 H49           -1.1829     6.7673     1.1210 H       
@<TRIPOS>BOND
   1    1    2 1
   2    1    6 1
   3    1   16 2
   4    2    3 1
   5    2   28 1
   6    2   29 1
   7    3    4 1
   8    3   30 1
   9    3   31 1
  10    4    5 1
  11    4   32 1
  12    4   33 1
  13    5    8 1
  14    5    6 2
  15    6    7 1
  16    7   10 1
  17    7   11 1
  18    7   34 1
  19    8    9 1
  20    8   35 1
  21    9   10 2
  22    9   17 1
  23   10   18 1
  24   11   12 2
  25   11   15 1
  26   12   13 1
  27   12   36 1
  28   13   14 2
  29   13   37 1
  30   14   15 1
  31   14   38 1
  32   17   39 1
  33   17   40 1
  34   17   41 1
  35   18   19 2
  36   18   20 am
  37   20   21 1
  38   20   42 1
  39   21   24 ar
  40   21   23 ar
  41   22   23 ar
  42   22   26 ar
  43   22   43 1
  44   23   44 1
  45   24   25 ar
  46   24   27 1
  47   25   26 ar
  48   25   45 1
  49   26   46 1
  50   27   47 1
  51   27   48 1
  52   27   49 1

#	End of record

