#	Name: ASD10160153
#	Creating user name:	WinNT
#	Creation time:	15. 06. 2019 21:25

#	Modifying user name:	WinNT
#	Modification time:	15. 06. 2019 21:25

#	Program:	/corina/corina34_cracker 3.40 0067  02.08.2006

@<TRIPOS>MOLECULE
ASD10160153
  47   49    0    0    0
SMALL
NO_CHARGES


@<TRIPOS>ATOM
   1 C1            -1.8071    -1.5231     4.5536 C.2     
   2 C2            -1.3169    -2.2114     3.3453 C.ar    
   3 C3             0.0002    -2.6825     3.2913 C.ar    
   4 C4             0.4544    -3.3263     2.1578 C.ar    
   5 C5            -0.3930    -3.5061     1.0727 C.ar    
   6 C6            -1.7039    -3.0388     1.1225 C.ar    
   7 C7            -2.1680    -2.4006     2.2521 C.ar    
   8 O8            -1.0669    -1.3640     5.5051 O.2     
   9 N9            -3.0739    -1.0654     4.6013 N.am    
  10 S10           -3.6244    -0.2923     5.9583 S.o2    
  11 O11           -4.9787     0.0176     5.6600 O.2     
  12 O12           -3.2917    -1.1731     7.0227 O.2     
  13 C13           -2.6304     1.2223     6.0511 C.3     
  14 F14           -2.5239    -3.2166     0.0635 F       
  15 F15            0.8254    -2.5071     4.3464 F       
  16 O16            0.0580    -4.1388    -0.0403 O.3     
  17 C17            2.4037    -3.9050    -0.3821 C.ar    
  18 C18            1.3098    -4.6692    -0.0102 C.ar    
  19 C19            1.5070    -5.9867     0.3954 C.ar    
  20 C20            2.7980    -6.4854     0.4113 C.ar    
  21 C21            3.8485    -5.6589     0.0240 C.ar    
  22 N22            3.6222    -4.4113    -0.3551 N.ar    
  23 N23            5.1520    -6.1498     0.0359 N.3     
  24 C24            6.1015    -5.1116     0.4564 C.3     
  25 C25            7.4976    -5.7224     0.5981 C.3     
  26 C26            7.9270    -6.3192    -0.7450 C.3     
  27 C27            6.8960    -7.3629    -1.1837 C.3     
  28 C28            5.5174    -6.7046    -1.2737 C.3     
  29 Cl29           3.1029    -8.1206     0.9084 Cl      
  30 H30            1.4703    -3.6902     2.1149 H       
  31 H31           -3.1863    -2.0430     2.2913 H       
  32 H32           -3.6631    -1.1888     3.8407 H       
  33 H33           -2.7893     1.8168     5.1514 H       
  34 H34           -2.9292     1.7999     6.9258 H       
  35 H35           -1.5755     0.9602     6.1318 H       
  36 H36            2.2573    -2.8839    -0.7020 H       
  37 H37            0.6721    -6.6048     0.6910 H       
  38 H38            6.1264    -4.3181    -0.2905 H       
  39 H39            5.7869    -4.6984     1.4147 H       
  40 H40            8.2051    -4.9482     0.8951 H       
  41 H41            7.4766    -6.5066     1.3548 H       
  42 H42            7.9857    -5.5285    -1.4929 H       
  43 H43            8.9025    -6.7935    -0.6376 H       
  44 H44            7.1737    -7.7608    -2.1597 H       
  45 H45            6.8656    -8.1730    -0.4550 H       
  46 H46            4.7786    -7.4483    -1.5721 H       
  47 H47            5.5450    -5.9036    -2.0125 H       
@<TRIPOS>BOND
   1    1    2 1
   2    1    8 2
   3    1    9 am
   4    2    3 ar
   5    2    7 ar
   6    3    4 ar
   7    3   15 1
   8    4    5 ar
   9    4   30 1
  10    5    6 ar
  11    5   16 1
  12    6    7 ar
  13    6   14 1
  14    7   31 1
  15    9   10 am
  16    9   32 1
  17   10   11 2
  18   10   12 2
  19   10   13 1
  20   13   33 1
  21   13   34 1
  22   13   35 1
  23   16   18 1
  24   17   18 ar
  25   17   22 ar
  26   17   36 1
  27   18   19 ar
  28   19   20 ar
  29   19   37 1
  30   20   21 ar
  31   20   29 1
  32   21   22 ar
  33   21   23 1
  34   23   24 1
  35   23   28 1
  36   24   25 1
  37   24   38 1
  38   24   39 1
  39   25   26 1
  40   25   40 1
  41   25   41 1
  42   26   27 1
  43   26   42 1
  44   26   43 1
  45   27   28 1
  46   27   44 1
  47   27   45 1
  48   28   46 1
  49   28   47 1

#	End of record

