#	Name: ASD10160124
#	Creating user name:	WinNT
#	Creation time:	15. 06. 2019 21:25

#	Modifying user name:	WinNT
#	Modification time:	15. 06. 2019 21:25

#	Program:	/corina/corina34_cracker 3.40 0067  02.08.2006

@<TRIPOS>MOLECULE
ASD10160124
  46   49    0    0    0
SMALL
NO_CHARGES


@<TRIPOS>ATOM
   1 C1            -2.2286    -2.6000     4.8606 C.2     
   2 C2            -1.6272    -3.0039     3.5763 C.ar    
   3 C3            -0.3025    -3.4551     3.5323 C.ar    
   4 C4             0.2555    -3.8319     2.3274 C.ar    
   5 C5            -0.4951    -3.7632     1.1611 C.ar    
   6 C6            -1.8120    -3.3148     1.2012 C.ar    
   7 C7            -2.3796    -2.9430     2.3997 C.ar    
   8 O8            -1.5740    -2.6585     5.8836 O.2     
   9 N9            -3.5022    -2.1608     4.8997 N.am    
  10 S10           -4.1777    -1.7072     6.3420 S.o2    
  11 O11           -5.5069    -1.3349     6.0047 O.2     
  12 O12           -3.9215    -2.8035     7.2091 O.2     
  13 C13           -3.2199    -0.2540     6.8532 C.3     
  14 F14            0.4281    -3.5211     4.6667 F       
  15 O15            0.0574    -4.1342    -0.0217 O.3     
  16 C16            2.4220    -3.8533    -0.1450 C.ar    
  17 C17            1.3072    -4.6674    -0.0027 C.ar    
  18 C18            1.4876    -6.0372     0.1601 C.ar    
  19 C19            2.7811    -6.5341     0.1735 C.ar    
  20 C20            3.8414    -5.6599     0.0258 C.ar    
  21 N21            3.6361    -4.3661    -0.1267 N.ar    
  22 C22            5.2512    -6.1922     0.0397 C.3     
  23 C23            6.1074    -5.9571    -1.2063 C.3     
  24 C24            6.3911    -5.1724     0.0762 C.3     
  25 C25            3.0288    -8.0104     0.3475 C.3     
  26 C26            2.5196    -8.6655     1.6330 C.3     
  27 C27            1.8148    -8.9405     0.3031 C.3     
  28 Cl28          -2.7434    -3.2307    -0.2614 Cl      
  29 H29            1.2772    -4.1801     2.2916 H       
  30 H30           -3.4032    -2.5997     2.4297 H       
  31 H31           -4.0231    -2.1103     4.0830 H       
  32 H32           -3.3120     0.5261     6.0976 H       
  33 H33           -3.6008     0.1157     7.8053 H       
  34 H34           -2.1714    -0.5304     6.9640 H       
  35 H35            2.2934    -2.7890    -0.2765 H       
  36 H36            0.6402    -6.6972     0.2737 H       
  37 H37            5.3951    -7.1279     0.5800 H       
  38 H38            6.8149    -6.7379    -1.4854 H       
  39 H39            5.6511    -5.4174    -2.0360 H       
  40 H40            6.1213    -4.1163     0.0901 H       
  41 H41            7.2852    -5.4369     0.6407 H       
  42 H42            3.9640    -8.3827    -0.0708 H       
  43 H43            3.1196    -9.4690     2.0602 H       
  44 H44            2.0055    -8.0287     2.3528 H       
  45 H45            0.8369    -8.4846     0.1481 H       
  46 H46            1.9511    -9.9250    -0.1445 H       
@<TRIPOS>BOND
   1    1    2 1
   2    1    8 2
   3    1    9 am
   4    2    3 ar
   5    2    7 ar
   6    3    4 ar
   7    3   14 1
   8    4    5 ar
   9    4   29 1
  10    5    6 ar
  11    5   15 1
  12    6    7 ar
  13    6   28 1
  14    7   30 1
  15    9   10 am
  16    9   31 1
  17   10   11 2
  18   10   12 2
  19   10   13 1
  20   13   32 1
  21   13   33 1
  22   13   34 1
  23   15   17 1
  24   16   17 ar
  25   16   21 ar
  26   16   35 1
  27   17   18 ar
  28   18   19 ar
  29   18   36 1
  30   19   20 ar
  31   19   25 1
  32   20   21 ar
  33   20   22 1
  34   22   23 1
  35   22   24 1
  36   22   37 1
  37   23   24 1
  38   23   38 1
  39   23   39 1
  40   24   40 1
  41   24   41 1
  42   25   26 1
  43   25   27 1
  44   25   42 1
  45   26   27 1
  46   26   43 1
  47   26   44 1
  48   27   45 1
  49   27   46 1

#	End of record

