#	Name: ASD11820009
#	Creating user name:	WinNT
#	Creation time:	15. 06. 2019 21:29

#	Modifying user name:	WinNT
#	Modification time:	15. 06. 2019 21:29

#	Program:	/corina/corina34_cracker 3.40 0067  02.08.2006

@<TRIPOS>MOLECULE
ASD11820009
  41   44    0    0    0
SMALL
NO_CHARGES


@<TRIPOS>ATOM
   1 C1            -0.0166     1.3764     0.0096 C.ar    
   2 C2             0.0021    -0.0041     0.0020 C.ar    
   3 C3             1.2141    -0.6895    -0.0132 C.ar    
   4 C4             2.4079    -0.0032    -0.0205 C.ar    
   5 C5             1.1881     2.0827     0.0019 C.ar    
   6 C6             1.5315     3.5068     0.0058 C.2     
   7 C7             2.4105     1.3875    -0.0130 C.ar    
   8 N8             3.4148     2.3325    -0.0167 N.pl3   
   9 C9             2.8715     3.5880    -0.0068 C.2     
  10 C10            0.5639     4.6620     0.0203 C.3     
  11 C11            0.1593     4.9606     1.4410 C.2     
  12 C12            0.8794     5.8116     2.3913 C.ar    
  13 C13           -0.9323     4.5017     2.0734 C.2     
  14 N14           -0.9676     4.9842     3.3529 N.pl3   
  15 C15            0.1282     5.7901     3.5800 C.ar    
  16 C16            2.0571     6.5593     2.3232 C.ar    
  17 C17            0.5672     6.5169     4.6814 C.ar    
  18 C18            1.7298     7.2507     4.6031 C.ar    
  19 C19            2.4759     7.2740     3.4276 C.ar    
  20 O20            3.6220     8.0035     3.3674 O.3     
  21 O21           -1.1679    -0.6972     0.0099 O.3     
  22 C22           -1.0771    -2.1233     0.0014 C.3     
  23 C23            3.9981     8.7194     4.5456 C.3     
  24 H24           -0.9574     1.9069     0.0170 H       
  25 H25            1.2178    -1.7695    -0.0191 H       
  26 H26            3.3421    -0.5450    -0.0316 H       
  27 H27            4.3647     2.1363    -0.0261 H       
  28 H28            3.4368     4.5082    -0.0079 H       
  29 H29            1.0406     5.5408    -0.4140 H       
  30 H30           -0.3201     4.4029    -0.5624 H       
  31 H31           -1.6730     3.8482     1.6366 H       
  32 H32           -1.6615     4.7909     4.0026 H       
  33 H33            2.6368     6.5780     1.4122 H       
  34 H34           -0.0039     6.5061     5.5980 H       
  35 H35            2.0660     7.8135     5.4613 H       
  36 H36           -0.5501    -2.4485    -0.8957 H       
  37 H37           -0.5324    -2.4580     0.8842 H       
  38 H38           -2.0795    -2.5513     0.0090 H       
  39 H39            3.2126     9.4289     4.8058 H       
  40 H40            4.1405     8.0175     5.3673 H       
  41 H41            4.9280     9.2578     4.3624 H       
@<TRIPOS>BOND
   1    1    2 ar
   2    1    5 ar
   3    1   24 1
   4    2    3 ar
   5    2   21 1
   6    3    4 ar
   7    3   25 1
   8    4    7 ar
   9    4   26 1
  10    5    7 ar
  11    5    6 1
  12    6    9 2
  13    6   10 1
  14    7    8 1
  15    8    9 1
  16    8   27 1
  17    9   28 1
  18   10   11 1
  19   10   29 1
  20   10   30 1
  21   11   13 2
  22   11   12 1
  23   12   15 ar
  24   12   16 ar
  25   13   14 1
  26   13   31 1
  27   14   15 1
  28   14   32 1
  29   15   17 ar
  30   16   19 ar
  31   16   33 1
  32   17   18 ar
  33   17   34 1
  34   18   19 ar
  35   18   35 1
  36   19   20 1
  37   20   23 1
  38   21   22 1
  39   22   36 1
  40   22   37 1
  41   22   38 1
  42   23   39 1
  43   23   40 1
  44   23   41 1

#	End of record

