#	Name: ASD10160137
#	Creating user name:	WinNT
#	Creation time:	15. 06. 2019 21:25

#	Modifying user name:	WinNT
#	Modification time:	15. 06. 2019 21:25

#	Program:	/corina/corina34_cracker 3.40 0067  02.08.2006

@<TRIPOS>MOLECULE
ASD10160137
  50   52    0    0    0
SMALL
NO_CHARGES


@<TRIPOS>ATOM
   1 C1            -2.1989    -2.5334     4.8509 C.2     
   2 C2            -1.6054    -2.9549     3.5688 C.ar    
   3 C3            -0.2835    -3.4136     3.5241 C.ar    
   4 C4             0.2677    -3.8071     2.3213 C.ar    
   5 C5            -0.4869    -3.7480     1.1573 C.ar    
   6 C6            -1.8023    -3.2923     1.1975 C.ar    
   7 C7            -2.3629    -2.9032     2.3946 C.ar    
   8 O8            -1.5400    -2.5838     5.8717 O.2     
   9 N9            -3.4699    -2.0869     4.8906 N.am    
  10 S10           -4.1366    -1.6134     6.3307 S.o2    
  11 O11           -5.4653    -1.2378     5.9951 O.2     
  12 O12           -3.8824    -2.7012     7.2090 O.2     
  13 C13           -3.1688    -0.1596     6.8212 C.3     
  14 F14           -2.5317    -3.2369     0.0617 F       
  15 F15            0.4516    -3.4706     4.6562 F       
  16 O16            0.0592    -4.1350    -0.0235 O.3     
  17 C17            2.4207    -3.8547    -0.1619 C.ar    
  18 C18            1.3102    -4.6678    -0.0040 C.ar    
  19 C19            1.4901    -6.0370     0.1752 C.ar    
  20 C20            2.7809    -6.5363     0.1888 C.ar    
  21 C21            3.8485    -5.6589     0.0240 C.ar    
  22 N22            3.6384    -4.3631    -0.1436 N.ar    
  23 N23            5.1520    -6.1498     0.0359 N.3     
  24 C24            5.8016    -5.9499    -1.2658 C.3     
  25 C25            7.1736    -6.6279    -1.2623 C.3     
  26 C26            8.0314    -6.0273    -0.1452 C.3     
  27 C27            7.3101    -6.2058     1.1936 C.3     
  28 C28            5.9341    -5.5400     1.1189 C.3     
  29 C29            9.3828    -6.7431    -0.0973 C.3     
  30 Cl30           3.0645    -8.2347     0.4092 Cl      
  31 H31            1.2874    -4.1612     2.2855 H       
  32 H32           -3.3846    -2.5546     2.4253 H       
  33 H33           -3.9942    -2.0429     4.0757 H       
  34 H34           -3.2602     0.6124     6.0571 H       
  35 H35           -3.5435     0.2228     7.7707 H       
  36 H36           -2.1213    -0.4405     6.9305 H       
  37 H37            2.2881    -2.7926    -0.3059 H       
  38 H38            0.6421    -6.6940     0.3011 H       
  39 H39            5.1833    -6.3852    -2.0509 H       
  40 H40            5.9244    -4.8827    -1.4503 H       
  41 H41            7.0505    -7.6974    -1.0916 H       
  42 H42            7.6620    -6.4660    -2.2232 H       
  43 H43            8.1871    -4.9656    -0.3364 H       
  44 H44            7.1892    -7.2686     1.4029 H       
  45 H45            7.8960    -5.7423     1.9873 H       
  46 H46            6.0563    -4.4747     0.9232 H       
  47 H47            5.4122    -5.6776     2.0658 H       
  48 H48            9.8931    -6.6203    -1.0526 H       
  49 H49            9.9927    -6.3149     0.6981 H       
  50 H50            9.2253    -7.8041     0.0967 H       
@<TRIPOS>BOND
   1    1    2 1
   2    1    8 2
   3    1    9 am
   4    2    3 ar
   5    2    7 ar
   6    3    4 ar
   7    3   15 1
   8    4    5 ar
   9    4   31 1
  10    5    6 ar
  11    5   16 1
  12    6    7 ar
  13    6   14 1
  14    7   32 1
  15    9   10 am
  16    9   33 1
  17   10   11 2
  18   10   12 2
  19   10   13 1
  20   13   34 1
  21   13   35 1
  22   13   36 1
  23   16   18 1
  24   17   18 ar
  25   17   22 ar
  26   17   37 1
  27   18   19 ar
  28   19   20 ar
  29   19   38 1
  30   20   21 ar
  31   20   30 1
  32   21   22 ar
  33   21   23 1
  34   23   24 1
  35   23   28 1
  36   24   25 1
  37   24   39 1
  38   24   40 1
  39   25   26 1
  40   25   41 1
  41   25   42 1
  42   26   27 1
  43   26   29 1
  44   26   43 1
  45   27   28 1
  46   27   44 1
  47   27   45 1
  48   28   46 1
  49   28   47 1
  50   29   48 1
  51   29   49 1
  52   29   50 1

#	End of record

