#	Name: ASD10420056
#	Creating user name:	WinNT
#	Creation time:	15. 06. 2019 21:27

#	Modifying user name:	WinNT
#	Modification time:	15. 06. 2019 21:27

#	Program:	/corina/corina34_cracker 3.40 0067  02.08.2006

@<TRIPOS>MOLECULE
ASD10420056
  56   57    0    0    0
SMALL
NO_CHARGES


@<TRIPOS>ATOM
   1 N1             0.0074     1.5038    -0.0145 N.am    
   2 C2            -0.0108     0.0347     0.0216 C.3     
   3 C3             0.7960    -0.4949    -1.1704 C.3     
   4 N4             2.0923     0.1968    -1.2045 N.am    
   5 C5             2.1105     1.6659    -1.2406 C.3     
   6 C6             1.3036     2.1954    -0.0486 C.3     
   7 C7            -1.1441     2.2041    -0.0219 C.2     
   8 O8            -2.2075     1.6238    -0.1179 O.2     
   9 O9            -1.1163     3.5465     0.0771 O.3     
  10 C10            3.2438    -0.5036    -1.2022 C.2     
  11 O11            3.2161    -1.7181    -1.1717 O.2     
  12 O12            4.4247     0.1423    -1.2336 O.3     
  13 C13           -1.4543    -0.4635    -0.0734 C.3     
  14 C14           -2.1802    -0.1475     1.2088 C.2     
  15 O15           -1.6024     0.4181     2.1066 O.2     
  16 O16           -3.4688    -0.4944     1.3536 O.3     
  17 C17           -4.1042    -0.1584     2.6152 C.3     
  18 C18            5.6240    -0.6762    -1.2291 C.3     
  19 C19            6.8396     0.2138    -1.2670 C.ar    
  20 C20            7.4128     0.6516    -0.0877 C.ar    
  21 C21            8.5278     1.4679    -0.1225 C.ar    
  22 C22            9.0699     1.8461    -1.3366 C.ar    
  23 C23            8.4972     1.4075    -2.5159 C.ar    
  24 C24            7.3848     0.5877    -2.4810 C.ar    
  25 C25           -2.3945     4.2352     0.0624 C.3     
  26 C26           -3.2467     3.7539     1.2384 C.3     
  27 C27           -2.1630     5.7427     0.1837 C.3     
  28 C28           -3.1207     3.9347    -1.2503 C.3     
  29 H29            0.4386    -0.3140     0.9514 H       
  30 H30            0.9563    -1.5670    -1.0562 H       
  31 H31            0.2530    -0.3001    -2.0952 H       
  32 H32            3.1389     2.0208    -1.1729 H       
  33 H33            1.6610     2.0145    -2.1704 H       
  34 H34            1.1434     3.2675    -0.1627 H       
  35 H35            1.8467     2.0006     0.8762 H       
  36 H36           -1.9552     0.0309    -0.9058 H       
  37 H37           -1.4568    -1.5412    -0.2362 H       
  38 H38           -3.5749    -0.6508     3.4310 H       
  39 H39           -4.0734     0.9213     2.7615 H       
  40 H40           -5.1413    -0.4936     2.6003 H       
  41 H41            5.6462    -1.2832    -0.3240 H       
  42 H42            5.6229    -1.3272    -2.1032 H       
  43 H43            6.9892     0.3561     0.8608 H       
  44 H44            8.9752     1.8105     0.7988 H       
  45 H45            9.9406     2.4845    -1.3638 H       
  46 H46            8.9206     1.7033    -3.4644 H       
  47 H47            6.9396     0.2420    -3.4023 H       
  48 H48           -2.7293     3.9679     2.1736 H       
  49 H49           -4.2062     4.2709     1.2274 H       
  50 H50           -3.4116     2.6799     1.1520 H       
  51 H51           -1.5559     6.0856    -0.6541 H       
  52 H52           -3.1225     6.2597     0.1727 H       
  53 H53           -1.6456     5.9568     1.1189 H       
  54 H54           -3.2857     2.8607    -1.3367 H       
  55 H55           -4.0802     4.4517    -1.2613 H       
  56 H56           -2.5136     4.2776    -2.0881 H       
@<TRIPOS>BOND
   1    1    2 1
   2    1    6 1
   3    1    7 am
   4    2    3 1
   5    2   13 1
   6    2   29 1
   7    3    4 1
   8    3   30 1
   9    3   31 1
  10    4    5 1
  11    4   10 am
  12    5    6 1
  13    5   32 1
  14    5   33 1
  15    6   34 1
  16    6   35 1
  17    7    8 2
  18    7    9 1
  19    9   25 1
  20   10   11 2
  21   10   12 1
  22   12   18 1
  23   13   14 1
  24   13   36 1
  25   13   37 1
  26   14   15 2
  27   14   16 1
  28   16   17 1
  29   17   38 1
  30   17   39 1
  31   17   40 1
  32   18   19 1
  33   18   41 1
  34   18   42 1
  35   19   20 ar
  36   19   24 ar
  37   20   21 ar
  38   20   43 1
  39   21   22 ar
  40   21   44 1
  41   22   23 ar
  42   22   45 1
  43   23   24 ar
  44   23   46 1
  45   24   47 1
  46   25   26 1
  47   25   28 1
  48   25   27 1
  49   26   48 1
  50   26   49 1
  51   26   50 1
  52   27   51 1
  53   27   52 1
  54   27   53 1
  55   28   54 1
  56   28   55 1
  57   28   56 1

#	End of record

