#	Name: ASD10160046
#	Creating user name:	WinNT
#	Creation time:	15. 06. 2019 21:25

#	Modifying user name:	WinNT
#	Modification time:	15. 06. 2019 21:25

#	Program:	/corina/corina34_cracker 3.40 0067  02.08.2006

@<TRIPOS>MOLECULE
ASD10160046
  42   43    0    0    0
SMALL
NO_CHARGES


@<TRIPOS>ATOM
   1 C1            -1.9666     1.0749     0.3932 C.2     
   2 C2            -1.4344    -0.2943     0.2842 C.ar    
   3 C3            -0.7422    -0.8671     1.3591 C.ar    
   4 C4            -0.2461    -2.1512     1.2510 C.ar    
   5 C5            -0.4329    -2.8748     0.0774 C.ar    
   6 C6            -1.1183    -2.3105    -0.9910 C.ar    
   7 C7            -1.6234    -1.0302    -0.8919 C.ar    
   8 O8            -1.2811     2.0222     0.0588 O.2     
   9 N9            -3.2153     1.2774     0.8582 N.am    
  10 S10           -3.8137     2.8167     0.9807 S.o2    
  11 O11           -5.1169     2.6441     1.5203 O.2     
  12 O12           -2.8122     3.5261     1.6969 O.2     
  13 C13           -3.9070     3.4038    -0.7332 C.3     
  14 F14           -2.2945    -0.4855    -1.9303 F       
  15 F15            0.4222    -2.7055     2.2860 F       
  16 F16           -0.5601    -0.1647     2.4987 F       
  17 O17            0.0567    -4.1367    -0.0240 O.3     
  18 C18           -1.1559    -5.5569    -1.5036 C.ar    
  19 C19           -0.0512    -4.7688    -1.2230 C.ar    
  20 C20            0.9466    -4.6318    -2.1841 C.ar    
  21 C21            0.7946    -5.2933    -3.3911 C.ar    
  22 C22           -0.3410    -6.0663    -3.6010 C.ar    
  23 N23           -1.2685    -6.1729    -2.6650 N.ar    
  24 O24           -0.4999    -6.7190    -4.7810 O.3     
  25 C25           -1.6880    -7.4976    -4.9368 C.3     
  26 C26           -2.0878    -7.5281    -6.4133 C.3     
  27 C27           -1.4305    -8.9245    -4.4485 C.3     
  28 Cl28           2.0069    -5.1582    -4.6263 Cl      
  29 H29           -1.2600    -2.8768    -1.8996 H       
  30 H30           -3.7635     0.5216     1.1211 H       
  31 H31           -4.5699     2.7537    -1.3043 H       
  32 H32           -4.2956     4.4221    -0.7478 H       
  33 H33           -2.9117     3.3883    -1.1773 H       
  34 H34           -1.9320    -5.6716    -0.7613 H       
  35 H35            1.8185    -4.0237    -1.9929 H       
  36 H36           -2.4930    -7.0530    -4.3515 H       
  37 H37           -1.2828    -7.9727    -6.9985 H       
  38 H38           -2.9940    -8.1220    -6.5321 H       
  39 H39           -2.2713    -6.5116    -6.7612 H       
  40 H40           -2.3367    -9.5183    -4.5673 H       
  41 H41           -0.6255    -9.3690    -5.0337 H       
  42 H42           -1.1457    -8.9027    -3.3965 H       
@<TRIPOS>BOND
   1    1    2 1
   2    1    8 2
   3    1    9 am
   4    2    3 ar
   5    2    7 ar
   6    3    4 ar
   7    3   16 1
   8    4    5 ar
   9    4   15 1
  10    5    6 ar
  11    5   17 1
  12    6    7 ar
  13    6   29 1
  14    7   14 1
  15    9   10 am
  16    9   30 1
  17   10   11 2
  18   10   12 2
  19   10   13 1
  20   13   31 1
  21   13   32 1
  22   13   33 1
  23   17   19 1
  24   18   19 ar
  25   18   23 ar
  26   18   34 1
  27   19   20 ar
  28   20   21 ar
  29   20   35 1
  30   21   22 ar
  31   21   28 1
  32   22   23 ar
  33   22   24 1
  34   24   25 1
  35   25   26 1
  36   25   27 1
  37   25   36 1
  38   26   37 1
  39   26   38 1
  40   26   39 1
  41   27   40 1
  42   27   41 1
  43   27   42 1

#	End of record

