#	Name: ASD10220048
#	Creating user name:	WinNT
#	Creation time:	15. 06. 2019 21:26

#	Modifying user name:	WinNT
#	Modification time:	15. 06. 2019 21:26

#	Program:	/corina/corina34_cracker 3.40 0067  02.08.2006

@<TRIPOS>MOLECULE
ASD10220048
  43   45    0    0    0
SMALL
NO_CHARGES


@<TRIPOS>ATOM
   1 C1            -0.0062     1.4650    -0.1698 C.2     
   2 C2             0.0238     0.0549    -0.3169 C.2     
   3 C3            -1.1119    -0.6712    -0.3730 C.2     
   4 C4            -2.4332    -0.0539    -0.2863 C.2     
   5 C5            -2.5487     1.3201    -0.1411 C.2     
   6 C6            -1.3378     2.1522    -0.0688 C.2     
   7 O7            -3.6770    -0.5695    -0.3191 O.3     
   8 C8            -4.6032     0.3844    -0.2040 C.2     
   9 C9            -3.9873     1.6024    -0.0874 C.2     
  10 O10           -1.4126     3.3563     0.0581 O.2     
  11 O11            1.0254     2.1043    -0.1214 O.2     
  12 C12           -4.6331     2.9180     0.0603 C.2     
  13 O13           -3.9567     3.9080     0.2634 O.2     
  14 C14           -6.1032     3.0348    -0.0385 C.ar    
  15 Cl15           1.5555    -0.7547    -0.4277 Cl      
  16 C16           -1.0144    -2.1667    -0.5306 C.3     
  17 C17           -6.7746     4.0455     0.6530 C.ar    
  18 C18           -8.1466     4.1487     0.5564 C.ar    
  19 C19           -8.8578     3.2537    -0.2235 C.ar    
  20 C20           -8.1989     2.2496    -0.9111 C.ar    
  21 C21           -6.8266     2.1387    -0.8284 C.ar    
  22 C22          -10.3567     3.3728    -0.3242 C.3     
  23 C23           -1.6697    -2.8398     0.6479 C.2     
  24 C24           -1.7119    -2.5847    -1.7994 C.2     
  25 O25           -2.5899    -2.3019     1.2156 O.2     
  26 C26           -1.1766    -4.1840     1.1179 C.3     
  27 C27           -1.3141    -3.8625    -2.4921 C.3     
  28 O28           -2.5895    -1.8955    -2.2611 O.2     
  29 H29           -5.6709     0.2216    -0.2035 H       
  30 H30            0.0344    -2.4594    -0.5792 H       
  31 H31           -6.2208     4.7443     1.2624 H       
  32 H32           -8.6671     4.9295     1.0910 H       
  33 H33           -8.7601     1.5541    -1.5174 H       
  34 H34           -6.3136     1.3546    -1.3654 H       
  35 H35          -10.6141     4.0250    -1.1587 H       
  36 H36          -10.7894     2.3858    -0.4875 H       
  37 H37          -10.7507     3.7937     0.6009 H       
  38 H38           -0.1290    -4.1054     1.4085 H       
  39 H39           -1.7677    -4.5088     1.9741 H       
  40 H40           -1.2763    -4.9101     0.3110 H       
  41 H41           -1.9141    -4.6868    -2.1066 H       
  42 H42           -1.4814    -3.7618    -3.5645 H       
  43 H43           -0.2590    -4.0633    -2.3063 H       
@<TRIPOS>BOND
   1    1    2 1
   2    1   11 2
   3    1    6 1
   4    2    3 2
   5    2   15 1
   6    3    4 1
   7    3   16 1
   8    4    5 2
   9    4    7 1
  10    5    6 1
  11    5    9 1
  12    6   10 2
  13    7    8 1
  14    8    9 2
  15    8   29 1
  16    9   12 1
  17   12   13 2
  18   12   14 1
  19   14   17 ar
  20   14   21 ar
  21   16   23 1
  22   16   24 1
  23   16   30 1
  24   17   18 ar
  25   17   31 1
  26   18   19 ar
  27   18   32 1
  28   19   20 ar
  29   19   22 1
  30   20   21 ar
  31   20   33 1
  32   21   34 1
  33   22   35 1
  34   22   36 1
  35   22   37 1
  36   23   25 2
  37   23   26 1
  38   24   27 1
  39   24   28 2
  40   26   38 1
  41   26   39 1
  42   26   40 1
  43   27   41 1
  44   27   42 1
  45   27   43 1

#	End of record

