#	Name: ASD11000331
#	Creating user name:	WinNT
#	Creation time:	15. 06. 2019 21:29

#	Modifying user name:	WinNT
#	Modification time:	15. 06. 2019 21:29

#	Program:	/corina/corina34_cracker 3.40 0067  02.08.2006

@<TRIPOS>MOLECULE
ASD11000331
  32   33    0    0    0
SMALL
NO_CHARGES


@<TRIPOS>ATOM
   1 C1            -0.0179     1.4698     0.0101 C.2     
   2 C2             0.0021    -0.0041     0.0020 C.ar    
   3 C3             1.2216    -0.6997    -0.0134 C.ar    
   4 C4             1.1926    -2.0677    -0.0200 C.ar    
   5 C5            -0.0364    -2.7260    -0.0113 C.ar    
   6 N6            -1.1743    -2.0451     0.0032 N.ar    
   7 C7            -1.1913    -0.7286     0.0154 C.ar    
   8 O8             1.0260     2.0916     0.0035 O.2     
   9 O9            -1.1939     2.1276     0.0193 O.3     
  10 N10           -0.0693    -4.1098    -0.0184 N.pl3   
  11 C11            1.1816    -4.8722    -0.0349 C.3     
  12 C12            0.8710    -6.3469    -0.0397 C.ar    
  13 C13            0.7168    -7.0165    -1.2393 C.ar    
  14 C14            0.4323    -8.3699    -1.2442 C.ar    
  15 C15            0.3020    -9.0536    -0.0470 C.ar    
  16 C16            0.4566    -8.3822     1.1522 C.ar    
  17 C17            0.7463    -7.0303     1.1552 C.ar    
  18 Cl18          -0.0557   -10.7523    -0.0514 Cl      
  19 Cl19           0.2379    -9.2111    -2.7503 Cl      
  20 C20           -1.1376     3.5785     0.0269 C.3     
  21 H21            2.1612    -0.1672    -0.0202 H       
  22 H22            2.1132    -2.6323    -0.0321 H       
  23 H23           -2.1358    -0.2051     0.0318 H       
  24 H24           -0.9206    -4.5747    -0.0124 H       
  25 H25            1.7504    -4.6178    -0.9292 H       
  26 H26            1.7681    -4.6273     0.8506 H       
  27 H27            0.8182    -6.4826    -2.1727 H       
  28 H28            0.3552    -8.9147     2.0863 H       
  29 H29            0.8710    -6.5072     2.0918 H       
  30 H30           -0.6059     3.9168     0.9162 H       
  31 H31           -0.6143     3.9265    -0.8637 H       
  32 H32           -2.1504     3.9814     0.0339 H       
@<TRIPOS>BOND
   1    1    2 1
   2    1    8 2
   3    1    9 1
   4    2    3 ar
   5    2    7 ar
   6    3    4 ar
   7    3   21 1
   8    4    5 ar
   9    4   22 1
  10    5    6 ar
  11    5   10 1
  12    6    7 ar
  13    7   23 1
  14    9   20 1
  15   10   11 1
  16   10   24 1
  17   11   12 1
  18   11   25 1
  19   11   26 1
  20   12   13 ar
  21   12   17 ar
  22   13   14 ar
  23   13   27 1
  24   14   15 ar
  25   14   19 1
  26   15   16 ar
  27   15   18 1
  28   16   17 ar
  29   16   28 1
  30   17   29 1
  31   20   30 1
  32   20   31 1
  33   20   32 1

#	End of record

