#	Name: ASD13210005
#	Creating user name:	WinNT
#	Creation time:	15. 06. 2019 21:30

#	Modifying user name:	WinNT
#	Modification time:	15. 06. 2019 21:30

#	Program:	/corina/corina34_cracker 3.40 0067  02.08.2006

@<TRIPOS>MOLECULE
ASD13210005
  39   40    0    0    0
SMALL
NO_CHARGES


@<TRIPOS>ATOM
   1 N1            -0.0167     1.3819     0.0096 N.pl3   
   2 C2             0.0021    -0.0041     0.0020 C.2     
   3 N3            -1.0507    -0.7613     0.0024 N.2     
   4 C4            -0.8473    -2.0667    -0.0061 C.2     
   5 C5             0.4361    -2.4279    -0.0139 C.2     
   6 S6             1.4165    -0.9643    -0.0166 S.3     
   7 H7             0.8166     1.8783     0.0043 H       
   8 H8            -0.8633     1.8554     0.0162 H       
   9 H9            -1.6553    -2.7834    -0.0062 H       
  10 H10            0.8096    -3.4413    -0.0214 H       
  11 O11            7.1138    12.7479     7.1694 O.3     
  12 C12            7.1012    11.3912     7.1631 C.ar    
  13 C13            7.0841    10.7008     5.9609 C.ar    
  14 C14            7.0714     9.3198     5.9554 C.ar    
  15 C15            7.0760     8.6141     7.1483 C.ar    
  16 Cl16           7.0598     6.8783     7.1257 Cl      
  17 C17            7.0939     9.2851     8.3532 C.ar    
  18 C18            7.1113    10.6817     8.3720 C.ar    
  19 C19            7.1351    11.4059     9.6569 C.2     
  20 O20            7.1460    12.6218     9.6694 O.2     
  21 N21            7.1448    10.7200    10.8170 N.am    
  22 C22            7.2521    11.4036    12.0330 C.ar    
  23 C23            6.8287    12.7222    12.1296 C.ar    
  24 C24            6.9356    13.3944    13.3318 C.ar    
  25 C25            7.4635    12.7558    14.4386 C.ar    
  26 C26            7.8869    11.4423    14.3466 C.ar    
  27 C27            7.7777    10.7622    13.1487 C.ar    
  28 Cl28           8.3026     9.1113    13.0355 Cl      
  29 N29            7.5762    13.4796    15.7248 N.pl3   
  30 O30            7.2041    14.6364    15.8073 O.2     
  31 O31            8.0410    12.9183    16.7008 O.2     
  32 H32            8.0007    13.1331     7.1591 H       
  33 H33            7.0804    11.2437     5.0273 H       
  34 H34            7.0574     8.7868     5.0162 H       
  35 H35            7.0974     8.7316     9.2806 H       
  36 H36            7.0773     9.7524    10.8089 H       
  37 H37            6.4165    13.2221    11.2656 H       
  38 H38            6.6066    14.4203    13.4071 H       
  39 H39            8.2995    10.9466    15.2128 H       
@<TRIPOS>BOND
   1    1    2 1
   2    1    7 1
   3    1    8 1
   4    2    6 1
   5    2    3 2
   6    3    4 1
   7    4    5 2
   8    4    9 1
   9    5    6 1
  10    5   10 1
  11   11   12 1
  12   11   32 1
  13   12   18 ar
  14   12   13 ar
  15   13   14 ar
  16   13   33 1
  17   14   15 ar
  18   14   34 1
  19   15   16 1
  20   15   17 ar
  21   17   18 ar
  22   17   35 1
  23   18   19 1
  24   19   20 2
  25   19   21 am
  26   21   22 1
  27   21   36 1
  28   22   27 ar
  29   22   23 ar
  30   23   24 ar
  31   23   37 1
  32   24   25 ar
  33   24   38 1
  34   25   26 ar
  35   25   29 1
  36   26   27 ar
  37   26   39 1
  38   27   28 1
  39   29   30 2
  40   29   31 2

#	End of record

