#	Name: ASD12600002
#	Creating user name:	WinNT
#	Creation time:	15. 06. 2019 21:30

#	Modifying user name:	WinNT
#	Modification time:	15. 06. 2019 21:30

#	Program:	/corina/corina34_cracker 3.40 0067  02.08.2006

@<TRIPOS>MOLECULE
ASD12600002
  41   43    0    0    0
SMALL
NO_CHARGES


@<TRIPOS>ATOM
   1 O1            -0.1221     1.3891    -0.1311 O.3     
   2 N2            -0.2913     0.1932    -0.1834 N.2     
   3 C3             0.8322    -0.4626    -0.0978 C.2     
   4 C4             1.8522     0.4997     0.0272 C.2     
   5 C5             1.1813     1.6955     0.0006 C.2     
   6 C6             1.4650     3.8966     1.2506 C.2     
   7 C7             1.7694     3.0440     0.0964 C.2     
   8 O8             1.9506     5.0099     1.3297 O.2     
   9 N9             0.6477     3.4472     2.2235 N.am    
  10 C10            1.0054    -1.9593    -0.1267 C.3     
  11 C11            0.4345     4.2197     3.3702 C.ar    
  12 C12            0.3836     5.6044     3.2767 C.ar    
  13 C13            0.1725     6.3646     4.4102 C.ar    
  14 C14            0.0117     5.7477     5.6385 C.ar    
  15 C15            0.0619     4.3681     5.7345 C.ar    
  16 C16            0.2675     3.6030     4.6033 C.ar    
  17 Cl17          -0.2529     6.7063     7.0614 Cl      
  18 C18            2.5973     3.4992    -0.8892 C.2     
  19 N19            2.8800     2.7075    -1.9610 N.pl3   
  20 C20            3.7277     3.1736    -2.9700 C.ar    
  21 C21            4.0168     2.3673    -4.0637 C.ar    
  22 C22            4.8546     2.8303    -5.0590 C.ar    
  23 C23            5.4063     4.0962    -4.9675 C.ar    
  24 C24            5.1204     4.9015    -3.8789 C.ar    
  25 C25            4.2780     4.4462    -2.8839 C.ar    
  26 Cl26           6.4596     4.6748    -6.2203 Cl      
  27 H27            2.9153     0.3347     0.1222 H       
  28 H28            0.2073     2.5881     2.1286 H       
  29 H29            1.1434    -2.2894    -1.1563 H       
  30 H30            1.8792    -2.2355     0.4635 H       
  31 H31            0.1189    -2.4358     0.2918 H       
  32 H32            0.5094     6.0863     2.3184 H       
  33 H33            0.1332     7.4415     4.3380 H       
  34 H34           -0.0638     3.8892     6.6943 H       
  35 H35            0.3026     2.5261     4.6782 H       
  36 H36            3.0282     4.4871    -0.8190 H       
  37 H37            2.4930     1.8203    -2.0240 H       
  38 H38            3.5870     1.3790    -4.1352 H       
  39 H39            5.0797     2.2039    -5.9094 H       
  40 H40            5.5527     5.8888    -3.8099 H       
  41 H41            4.0514     5.0769    -2.0370 H       
@<TRIPOS>BOND
   1    1    2 1
   2    1    5 1
   3    2    3 2
   4    3    4 1
   5    3   10 1
   6    4    5 2
   7    4   27 1
   8    5    7 1
   9    6    7 1
  10    6    8 2
  11    6    9 am
  12    7   18 2
  13    9   11 1
  14    9   28 1
  15   10   29 1
  16   10   30 1
  17   10   31 1
  18   11   12 ar
  19   11   16 ar
  20   12   13 ar
  21   12   32 1
  22   13   14 ar
  23   13   33 1
  24   14   15 ar
  25   14   17 1
  26   15   16 ar
  27   15   34 1
  28   16   35 1
  29   18   19 1
  30   18   36 1
  31   19   20 1
  32   19   37 1
  33   20   21 ar
  34   20   25 ar
  35   21   22 ar
  36   21   38 1
  37   22   23 ar
  38   22   39 1
  39   23   24 ar
  40   23   26 1
  41   24   25 ar
  42   24   40 1
  43   25   41 1

#	End of record

