#	Name: ASD10160330
#	Creating user name:	WinNT
#	Creation time:	15. 06. 2019 21:25

#	Modifying user name:	WinNT
#	Modification time:	15. 06. 2019 21:25

#	Program:	/corina/corina34_cracker 3.40 0067  02.08.2006

@<TRIPOS>MOLECULE
ASD10160330
  23   23    0    0    0
SMALL
NO_CHARGES


@<TRIPOS>ATOM
   1 C1            -0.0167     1.3793     0.0096 C.ar    
   2 C2             0.0021    -0.0041     0.0020 C.ar    
   3 C3             1.2229    -0.6630    -0.0132 C.ar    
   4 C4             2.3826     0.0969    -0.0203 C.ar    
   5 C5             2.2849     1.4753    -0.0119 C.ar    
   6 N6             1.1072     2.0686     0.0026 N.ar    
   7 C7            -1.3366     2.1064     0.0198 C.3     
   8 C8            -1.7765     2.3446     1.4657 C.3     
   9 C9            -3.0514     3.1905     1.4782 C.3     
  10 C10           -2.0496     1.0005     2.1438 C.3     
  11 Cl11          -1.4826    -0.9037     0.0120 Cl      
  12 H12            1.2688    -1.7420    -0.0191 H       
  13 H13            3.3503    -0.3825    -0.0318 H       
  14 H14            3.1838     2.0739    -0.0170 H       
  15 H15           -1.2278     3.0640    -0.4893 H       
  16 H16           -2.0867     1.5050    -0.4938 H       
  17 H17           -0.9871     2.8693     2.0039 H       
  18 H18           -3.8408     2.6658     0.9400 H       
  19 H19           -3.3648     3.3602     2.5083 H       
  20 H20           -2.8568     4.1480     0.9951 H       
  21 H21           -2.3630     1.1703     3.1739 H       
  22 H22           -2.8390     0.4759     1.6056 H       
  23 H23           -1.1413     0.3980     2.1349 H       
@<TRIPOS>BOND
   1    1    2 ar
   2    1    6 ar
   3    1    7 1
   4    2    3 ar
   5    2   11 1
   6    3    4 ar
   7    3   12 1
   8    4    5 ar
   9    4   13 1
  10    5    6 ar
  11    5   14 1
  12    7    8 1
  13    7   15 1
  14    7   16 1
  15    8    9 1
  16    8   10 1
  17    8   17 1
  18    9   18 1
  19    9   19 1
  20    9   20 1
  21   10   21 1
  22   10   22 1
  23   10   23 1

#	End of record

