#	Name: ASD15500005
#	Creating user name:	WinNT
#	Creation time:	15. 06. 2019 21:31

#	Modifying user name:	WinNT
#	Modification time:	15. 06. 2019 21:31

#	Program:	/corina/corina34_cracker 3.40 0067  02.08.2006

@<TRIPOS>MOLECULE
ASD15500005
  44   46    0    0    0
SMALL
NO_CHARGES


@<TRIPOS>ATOM
   1 C1            -0.0167     1.3767     0.0096 C.ar    
   2 C2             0.0021    -0.0041     0.0020 C.ar    
   3 C3             1.2087    -0.6823    -0.0131 C.ar    
   4 C4             2.4042     0.0184    -0.0203 C.ar    
   5 C5             2.3994     1.3967    -0.0124 C.ar    
   6 C6             1.1860     2.0882     0.0019 C.ar    
   7 C7             1.1740     3.5652     0.0095 C.2     
   8 N8             2.3356     4.2486     0.0021 N.am    
   9 C9             2.3238     5.7135     0.0096 C.3     
  10 C10            3.6332     6.2327     0.6099 C.3     
  11 C11            3.6407     7.7623     0.5592 C.3     
  12 N12            3.5094     8.2078    -0.8339 N.3     
  13 C13            2.2378     7.7610    -1.4167 C.3     
  14 C14            2.1884     6.2315    -1.4250 C.3     
  15 C15            3.6516     9.6663    -0.9358 C.3     
  16 C16            3.7577    10.0606    -2.3864 C.ar    
  17 C17            2.6158    10.3535    -3.1083 C.ar    
  18 C18            2.7130    10.7151    -4.4390 C.ar    
  19 C19            3.9522    10.7842    -5.0476 C.ar    
  20 C20            5.0942    10.4922    -4.3255 C.ar    
  21 C21            4.9973    10.1348    -2.9937 C.ar    
  22 Cl22          -1.5304     2.2264     0.0214 Cl      
  23 Cl23           1.2243    -2.4182    -0.0226 Cl      
  24 O24            0.1163     4.1644     0.0224 O.2     
  25 H25           -0.9263    -0.5558     0.0083 H       
  26 H26            3.3422    -0.5169    -0.0318 H       
  27 H27            3.3322     1.9410    -0.0173 H       
  28 H28            3.1796     3.7704    -0.0082 H       
  29 H29            1.4835     6.0679     0.6067 H       
  30 H30            3.7149     5.9026     1.6455 H       
  31 H31            4.4753     5.8455     0.0363 H       
  32 H32            2.8064     8.1491     1.1444 H       
  33 H33            4.5779     8.1347     0.9729 H       
  34 H34            1.4101     8.1479    -0.8223 H       
  35 H35            2.1560     8.1326    -2.4381 H       
  36 H36            3.0077     5.8442    -2.0306 H       
  37 H37            1.2378     5.9003    -1.8432 H       
  38 H38            2.7810    10.1482    -0.4910 H       
  39 H39            4.5511     9.9815    -0.4069 H       
  40 H40            1.6476    10.2995    -2.6328 H       
  41 H41            1.8208    10.9433    -5.0031 H       
  42 H42            4.0282    11.0660    -6.0874 H       
  43 H43            6.0624    10.5458    -4.8011 H       
  44 H44            5.8898     9.9102    -2.4285 H       
@<TRIPOS>BOND
   1    1    2 ar
   2    1    6 ar
   3    1   22 1
   4    2    3 ar
   5    2   25 1
   6    3    4 ar
   7    3   23 1
   8    4    5 ar
   9    4   26 1
  10    5    6 ar
  11    5   27 1
  12    6    7 1
  13    7    8 am
  14    7   24 2
  15    8    9 1
  16    8   28 1
  17    9   10 1
  18    9   14 1
  19    9   29 1
  20   10   11 1
  21   10   30 1
  22   10   31 1
  23   11   12 1
  24   11   32 1
  25   11   33 1
  26   12   13 1
  27   12   15 1
  28   13   14 1
  29   13   34 1
  30   13   35 1
  31   14   36 1
  32   14   37 1
  33   15   16 1
  34   15   38 1
  35   15   39 1
  36   16   17 ar
  37   16   21 ar
  38   17   18 ar
  39   17   40 1
  40   18   19 ar
  41   18   41 1
  42   19   20 ar
  43   19   42 1
  44   20   21 ar
  45   20   43 1
  46   21   44 1

#	End of record

