#	Name: ASD10370002
#	Creating user name:	WinNT
#	Creation time:	15. 06. 2019 21:26

#	Modifying user name:	WinNT
#	Modification time:	15. 06. 2019 21:26

#	Program:	/corina/corina34_cracker 3.40 0067  02.08.2006

@<TRIPOS>MOLECULE
ASD10370002
  57   60    0    0    0
SMALL
NO_CHARGES


@<TRIPOS>ATOM
   1 C1             0.4085     1.3052     2.2767 C.2     
   2 C2             0.4712    -0.0671     2.3437 C.2     
   3 C3             1.5968    -0.7542     1.9016 C.2     
   4 C4             2.6954    -0.0579     1.3758 C.2     
   5 C5             2.6432     1.3606     1.3021 C.2     
   6 C6             1.4868     2.0399     1.7586 C.2     
   7 C7             3.8296    -0.7965     0.9303 C.2     
   8 C8             4.9103    -0.1062     0.4091 C.2     
   9 C9             4.8297     1.3382     0.3475 C.2     
  10 C10            3.7294     2.0816     0.7800 C.2     
  11 C11            6.1535    -0.7111    -0.0972 C.2     
  12 C12            7.1811     0.2130    -0.6139 C.2     
  13 C13            7.0082     1.5553    -0.6283 C.2     
  14 C14            5.8313     2.1596    -0.1481 C.2     
  15 O15            1.4278     3.2619     1.7009 O.2     
  16 O16            1.6327    -2.1086     1.9799 O.3     
  17 N17            6.3395    -2.0137    -0.0888 N.2     
  18 C18            5.9108    -2.8074     1.0656 C.3     
  19 C19            7.1136    -3.5535     1.6465 C.3     
  20 C20            6.6659    -4.3824     2.8521 C.3     
  21 N21            7.8208    -5.0987     3.4099 N.4     
  22 O22            3.8501    -2.1471     1.0156 O.3     
  23 N23            4.0601     3.3908     0.5504 N.pl3   
  24 N24            5.3498     3.4412    -0.0196 N.pl3   
  25 C25            6.0603     4.6609    -0.4117 C.3     
  26 C26            5.7276     4.9998    -1.8661 C.3     
  27 N27            6.4400     6.2228    -2.2592 N.3     
  28 C28            6.1438     6.5796    -3.6531 C.3     
  29 C29            6.9020     7.8554    -4.0251 C.3     
  30 O30            8.3078     7.6014    -3.9904 O.3     
  31 H31           -0.4766     1.8199     2.6204 H       
  32 H32           -0.3655    -0.6191     2.7457 H       
  33 H33            8.1052    -0.1966    -0.9942 H       
  34 H34            7.7966     2.1811    -1.0197 H       
  35 H35            0.8331    -2.5022     2.3551 H       
  36 H36            6.7604    -2.4484    -0.8469 H       
  37 H37            5.4913    -2.1473     1.8248 H       
  38 H38            5.1544    -3.5266     0.7513 H       
  39 H39            7.5331    -4.2136     0.8873 H       
  40 H40            7.8700    -2.8343     1.9608 H       
  41 H41            6.2465    -3.7223     3.6113 H       
  42 H42            5.9095    -5.1015     2.5378 H       
  43 H43            7.5255    -5.6453     4.2049 H       
  44 H44            8.2091    -5.7097     2.7071 H       
  45 H45            8.5210    -4.4330     3.7008 H       
  46 H46            3.4327    -2.5949     0.2670 H       
  47 H47            3.4993     4.1575     0.7468 H       
  48 H48            5.7520     5.4841     0.2329 H       
  49 H49            7.1343     4.5038    -0.3117 H       
  50 H50            6.0359     4.1766    -2.5106 H       
  51 H51            4.6536     5.1568    -1.9660 H       
  52 H52            6.2201     6.9855    -1.6362 H       
  53 H53            6.4550     5.7674    -4.3100 H       
  54 H54            5.0727     6.7476    -3.7654 H       
  55 H55            6.6142     8.1696    -5.0284 H       
  56 H56            6.6576     8.6439    -3.3133 H       
  57 H57            8.8517     8.3683    -4.2163 H       
@<TRIPOS>BOND
   1    1    2 2
   2    1    6 1
   3    1   31 1
   4    2    3 1
   5    2   32 1
   6    3    4 2
   7    3   16 1
   8    4    5 1
   9    4    7 1
  10    5    6 1
  11    5   10 2
  12    6   15 2
  13    7    8 2
  14    7   22 1
  15    8    9 1
  16    8   11 1
  17    9   10 1
  18    9   14 2
  19   10   23 1
  20   11   12 1
  21   11   17 2
  22   12   13 2
  23   12   33 1
  24   13   14 1
  25   13   34 1
  26   14   24 1
  27   16   35 1
  28   17   18 1
  29   17   36 1
  30   18   19 1
  31   18   37 1
  32   18   38 1
  33   19   20 1
  34   19   39 1
  35   19   40 1
  36   20   21 1
  37   20   41 1
  38   20   42 1
  39   21   43 1
  40   21   44 1
  41   21   45 1
  42   22   46 1
  43   23   24 1
  44   23   47 1
  45   24   25 1
  46   25   26 1
  47   25   48 1
  48   25   49 1
  49   26   27 1
  50   26   50 1
  51   26   51 1
  52   27   28 1
  53   27   52 1
  54   28   29 1
  55   28   53 1
  56   28   54 1
  57   29   30 1
  58   29   55 1
  59   29   56 1
  60   30   57 1

#	End of record

