#	Name: ASD11530005
#	Creating user name:	WinNT
#	Creation time:	15. 06. 2019 21:29

#	Modifying user name:	WinNT
#	Modification time:	15. 06. 2019 21:29

#	Program:	/corina/corina34_cracker 3.40 0067  02.08.2006

@<TRIPOS>MOLECULE
ASD11530005
  32   33    0    0    0
SMALL
NO_CHARGES


@<TRIPOS>ATOM
   1 C1             0.1217     1.2136    -0.2484 C.3     
   2 N2             0.0632    -0.2531    -0.1660 N.3     
   3 O3             2.2152     1.0265    -1.4384 O.3     
   4 C4             1.5853     1.6573    -0.3200 C.3     
   5 N5            -1.2271    -0.6856    -0.0472 N.pl3   
   6 O6            -3.8792    -0.2525    -0.2726 O.2     
   7 C7             2.1771    -0.4023    -1.3902 C.3     
   8 N8            -3.9631    -1.3455     0.2584 N.pl3   
   9 O9            -4.8803    -2.0935    -0.0293 O.2     
  10 C10            0.7196    -0.8668    -1.3295 C.3     
  11 C11           -1.6158    -1.4239     1.0729 C.ar    
  12 C12           -0.6698    -1.8144     2.0118 C.ar    
  13 C13           -1.0577    -2.5445     3.1183 C.ar    
  14 C14           -2.3860    -2.8868     3.2917 C.ar    
  15 C15           -2.8055    -3.6830     4.5005 C.3     
  16 C16           -3.3307    -2.4996     2.3587 C.ar    
  17 C17           -2.9506    -1.7646     1.2532 C.ar    
  18 F18           -1.6846    -3.9539     5.2925 F       
  19 F19           -3.7350    -2.9476     5.2437 F       
  20 F20           -3.3864    -4.8868     4.0873 F       
  21 H21           -0.4045     1.5492    -1.1420 H       
  22 H22           -0.3471     1.6468     0.6351 H       
  23 H23            1.6320     2.7398    -0.4387 H       
  24 H24            2.0984     1.3686     0.5973 H       
  25 H25           -1.8733    -0.4799    -0.7407 H       
  26 H26            2.6519    -0.8093    -2.2830 H       
  27 H27            2.7075    -0.7509    -0.5041 H       
  28 H28            0.6872    -1.9523    -1.2351 H       
  29 H29            0.2029    -0.5645    -2.2403 H       
  30 H30            0.3680    -1.5477     1.8767 H       
  31 H31           -0.3225    -2.8487     3.8486 H       
  32 H32           -4.3674    -2.7689     2.4970 H       
@<TRIPOS>BOND
   1    1    2 1
   2    1    4 1
   3    1   21 1
   4    1   22 1
   5    2    5 1
   6    2   10 1
   7    3    4 1
   8    3    7 1
   9    4   23 1
  10    4   24 1
  11    5   11 1
  12    5   25 1
  13    6    8 2
  14    7   10 1
  15    7   26 1
  16    7   27 1
  17    8    9 2
  18    8   17 1
  19   10   28 1
  20   10   29 1
  21   11   12 ar
  22   11   17 ar
  23   12   13 ar
  24   12   30 1
  25   13   14 ar
  26   13   31 1
  27   14   15 1
  28   14   16 ar
  29   15   18 1
  30   15   19 1
  31   15   20 1
  32   16   17 ar
  33   16   32 1

#	End of record

