#	Name: ASD10420008
#	Creating user name:	WinNT
#	Creation time:	15. 06. 2019 21:27

#	Modifying user name:	WinNT
#	Modification time:	15. 06. 2019 21:27

#	Program:	/corina/corina34_cracker 3.40 0067  02.08.2006

@<TRIPOS>MOLECULE
ASD10420008
  81   85    0    0    0
SMALL
NO_CHARGES


@<TRIPOS>ATOM
   1 N1            -0.1079     0.2796    -0.5681 N.pl3   
   2 C2            -0.5080    -0.9555    -1.0018 C.2     
   3 C3            -1.9132    -0.9628    -1.0627 C.2     
   4 C4            -2.3516     0.2966    -0.6555 C.2     
   5 C5            -1.2304     1.0549    -0.3588 C.2     
   6 C6             1.2204     0.5561    -0.4195 C.2     
   7 C7             2.1557    -0.3786    -0.6967 C.2     
   8 C8             1.7728    -1.6519    -1.1431 C.2     
   9 C9             0.4486    -1.9404    -1.2939 C.2     
  10 C10           -1.2357     2.3979     0.0926 C.2     
  11 N11           -1.2047     3.4085    -0.7986 N.am    
  12 C12           -1.0498     3.1422    -2.2368 C.3     
  13 C13            0.0938     4.0105    -2.7722 C.3     
  14 N14           -0.1581     5.4153    -2.4242 N.3     
  15 C15           -0.1704     5.6096    -0.9681 C.3     
  16 C16           -1.3309     4.8065    -0.3594 C.3     
  17 O17           -1.2684     2.6392     1.2860 O.2     
  18 C18           -3.7849     0.7525    -0.5611 C.3     
  19 C19           -4.3104     0.4741     0.8236 C.ar    
  20 C20           -4.4965     1.5147     1.7140 C.ar    
  21 C21           -4.6115    -0.8212     1.2008 C.ar    
  22 C22           -5.0937    -1.0781     2.4709 C.ar    
  23 C23           -5.2756    -0.0401     3.3645 C.ar    
  24 C24           -4.9793     1.2586     2.9860 C.ar    
  25 F25           -5.1564     2.2743     3.8590 F       
  26 C26           -4.1735     2.9274     1.3006 C.3     
  27 C27           -2.7682    -2.0973    -1.4813 C.ar    
  28 C28           -2.8000    -3.2675    -0.7227 C.ar    
  29 C29           -3.5989    -4.3208    -1.1177 C.ar    
  30 C30           -4.3670    -4.2182    -2.2639 C.ar    
  31 C31           -4.3394    -3.0604    -3.0208 C.ar    
  32 C32           -3.5493    -1.9979    -2.6328 C.ar    
  33 C33           -0.3591     7.0948    -0.6528 C.3     
  34 C34            0.8352     7.8692    -1.1480 C.2     
  35 N35            0.8895     9.2051    -0.9787 N.am    
  36 O36            1.7474     7.2901    -1.6989 O.2     
  37 C37            2.0505     9.9579    -1.4601 C.3     
  38 C38            1.8618    11.4431    -1.1448 C.3     
  39 C39            3.0561    12.2174    -1.6400 C.2     
  40 N40            3.1105    13.5534    -1.4707 N.am    
  41 O41            3.9683    11.6384    -2.1908 O.2     
  42 C42            0.5983    11.9553    -1.8391 C.3     
  43 C43            1.7242    11.6299     0.3675 C.3     
  44 H44            1.5272     1.5332    -0.0768 H       
  45 H45            3.2028    -0.1441    -0.5744 H       
  46 H46            2.5211    -2.3983    -1.3654 H       
  47 H47            0.1389    -2.9165    -1.6369 H       
  48 H48           -0.8131     2.0894    -2.3908 H       
  49 H49           -1.9742     3.3926    -2.7572 H       
  50 H50            1.0347     3.6883    -2.3261 H       
  51 H51            0.1509     3.9089    -3.8559 H       
  52 H52            0.5161     6.0234    -2.8644 H       
  53 H53            0.7742     5.2652    -0.5472 H       
  54 H54           -2.2803     5.2193    -0.7003 H       
  55 H55           -1.2775     4.8532     0.7283 H       
  56 H56           -3.8399     1.8223    -0.7623 H       
  57 H57           -4.3865     0.2137    -1.2932 H       
  58 H58           -4.4703    -1.6331     0.5027 H       
  59 H59           -5.3286    -2.0906     2.7645 H       
  60 H60           -5.6530    -0.2409     4.3563 H       
  61 H61           -5.0357     3.3647     0.7970 H       
  62 H62           -3.9306     3.5180     2.1839 H       
  63 H63           -3.3208     2.9214     0.6217 H       
  64 H64           -2.2004    -3.3490     0.1718 H       
  65 H65           -3.6245    -5.2273    -0.5312 H       
  66 H66           -4.9905    -5.0455    -2.5692 H       
  67 H67           -4.9409    -2.9865    -3.9147 H       
  68 H68           -3.5288    -1.0945    -3.2243 H       
  69 H69           -1.2592     7.4598    -1.1474 H       
  70 H70           -0.4571     7.2279     0.4245 H       
  71 H71            0.1599     9.6683    -0.5382 H       
  72 H72            2.9507     9.5929    -0.9655 H       
  73 H73            2.1486     9.8248    -2.5375 H       
  74 H74            2.3809    14.0165    -1.0301 H       
  75 H75            3.8792    14.0518    -1.7894 H       
  76 H76           -0.2655    11.3953    -1.4809 H       
  77 H77            0.4639    13.0134    -1.6144 H       
  78 H78            0.6964    11.8222    -2.9165 H       
  79 H79            2.6244    11.2650     0.8621 H       
  80 H80            1.5898    12.6880     0.5921 H       
  81 H81            0.8604    11.0699     0.7257 H       
@<TRIPOS>BOND
   1    1    2 1
   2    1    6 1
   3    1    5 1
   4    2    3 2
   5    2    9 1
   6    3    4 1
   7    3   27 1
   8    4    5 2
   9    4   18 1
  10    5   10 1
  11    6    7 2
  12    6   44 1
  13    7    8 1
  14    7   45 1
  15    8    9 2
  16    8   46 1
  17    9   47 1
  18   10   11 am
  19   10   17 2
  20   11   12 1
  21   11   16 1
  22   12   13 1
  23   12   48 1
  24   12   49 1
  25   13   14 1
  26   13   50 1
  27   13   51 1
  28   14   15 1
  29   14   52 1
  30   15   16 1
  31   15   33 1
  32   15   53 1
  33   16   54 1
  34   16   55 1
  35   18   19 1
  36   18   56 1
  37   18   57 1
  38   19   20 ar
  39   19   21 ar
  40   20   26 1
  41   20   24 ar
  42   21   22 ar
  43   21   58 1
  44   22   23 ar
  45   22   59 1
  46   23   24 ar
  47   23   60 1
  48   24   25 1
  49   26   61 1
  50   26   62 1
  51   26   63 1
  52   27   28 ar
  53   27   32 ar
  54   28   29 ar
  55   28   64 1
  56   29   30 ar
  57   29   65 1
  58   30   31 ar
  59   30   66 1
  60   31   32 ar
  61   31   67 1
  62   32   68 1
  63   33   34 1
  64   33   69 1
  65   33   70 1
  66   34   35 am
  67   34   36 2
  68   35   37 1
  69   35   71 1
  70   37   38 1
  71   37   72 1
  72   37   73 1
  73   38   39 1
  74   38   42 1
  75   38   43 1
  76   39   41 2
  77   39   40 am
  78   40   74 1
  79   40   75 1
  80   42   76 1
  81   42   77 1
  82   42   78 1
  83   43   79 1
  84   43   80 1
  85   43   81 1

#	End of record

