#	Name: ASD13370002
#	Creating user name:	WinNT
#	Creation time:	15. 06. 2019 21:30

#	Modifying user name:	WinNT
#	Modification time:	15. 06. 2019 21:30

#	Program:	/corina/corina34_cracker 3.40 0067  02.08.2006

@<TRIPOS>MOLECULE
ASD13370002
  39   40    0    0    0
SMALL
NO_CHARGES


@<TRIPOS>ATOM
   1 C1             0.0567     1.3529    -0.4101 C.ar    
   2 C2             0.0932    -0.0336    -0.4070 C.ar    
   3 C3             1.2873    -0.6940    -0.1971 C.ar    
   4 C4             2.4561     0.0202     0.0115 C.ar    
   5 C5             2.4382     1.3980     0.0117 C.ar    
   6 C6             1.2367     2.0791    -0.1994 C.ar    
   7 O7            -1.1149     2.0032    -0.6217 O.3     
   8 C8            -2.2752     1.1967    -0.8349 C.3     
   9 C9            -3.4907     2.0997    -1.0538 C.3     
  10 C10           -4.7330     1.2363    -1.2821 C.3     
  11 C11            1.2105     3.5540    -0.2010 C.2     
  12 O12            0.1629     4.1432    -0.3855 O.2     
  13 N13            2.3476     4.2484     0.0020 N.am    
  14 C14            2.3420     5.6439    -0.0965 C.ar    
  15 C15            1.2324     7.7445     0.2303 C.ar    
  16 C16            1.2353     6.3668     0.3288 C.ar    
  17 C17            3.4458     6.3092    -0.6147 C.ar    
  18 C18            3.4376     7.6867    -0.7109 C.ar    
  19 C19            2.3309     8.4044    -0.2915 C.ar    
  20 C20            4.6349     8.4092    -1.2725 C.3     
  21 F21            5.6187     7.4787    -1.6237 F       
  22 F22            4.2526     9.1341    -2.4064 F       
  23 F23            5.1449     9.2858    -0.3088 F       
  24 Cl24           2.3238    10.1360    -0.4143 Cl      
  25 H25           -0.8137    -0.5973    -0.5685 H       
  26 H26            1.3105    -1.7737    -0.1953 H       
  27 H27            3.3852    -0.5054     0.1751 H       
  28 H28            3.3517     1.9506     0.1751 H       
  29 H29           -2.1253     0.5697    -1.7138 H       
  30 H30           -2.4441     0.5653     0.0374 H       
  31 H31           -3.6406     2.7268    -0.1749 H       
  32 H32           -3.3218     2.7312    -1.9261 H       
  33 H33           -5.5990     1.8796    -1.4381 H       
  34 H34           -4.5832     0.6093    -2.1610 H       
  35 H35           -4.9019     0.6048    -0.4098 H       
  36 H36            3.1699     3.7806     0.2164 H       
  37 H37            0.3718     8.3072     0.5607 H       
  38 H38            0.3775     5.8522     0.7359 H       
  39 H39            4.3097     5.7497    -0.9418 H       
@<TRIPOS>BOND
   1    1    2 ar
   2    1    6 ar
   3    1    7 1
   4    2    3 ar
   5    2   25 1
   6    3    4 ar
   7    3   26 1
   8    4    5 ar
   9    4   27 1
  10    5    6 ar
  11    5   28 1
  12    6   11 1
  13    7    8 1
  14    8    9 1
  15    8   29 1
  16    8   30 1
  17    9   10 1
  18    9   31 1
  19    9   32 1
  20   10   33 1
  21   10   34 1
  22   10   35 1
  23   11   12 2
  24   11   13 am
  25   13   14 1
  26   13   36 1
  27   14   17 ar
  28   14   16 ar
  29   15   16 ar
  30   15   19 ar
  31   15   37 1
  32   16   38 1
  33   17   18 ar
  34   17   39 1
  35   18   19 ar
  36   18   20 1
  37   19   24 1
  38   20   21 1
  39   20   22 1
  40   20   23 1

#	End of record

