#	Name: ASD10610175
#	Creating user name:	WinNT
#	Creation time:	15. 06. 2019 21:28

#	Modifying user name:	WinNT
#	Modification time:	15. 06. 2019 21:28

#	Program:	/corina/corina34_cracker 3.40 0067  02.08.2006

@<TRIPOS>MOLECULE
ASD10610175
  75   80    0    0    0
SMALL
NO_CHARGES


@<TRIPOS>ATOM
   1 C1            -1.2129     0.2980     3.4015 C.ar    
   2 C2            -1.6116    -1.0479     3.5046 C.ar    
   3 C3            -0.7169    -1.9945     4.0089 C.ar    
   4 C4             0.5489    -1.6055     4.4019 C.ar    
   5 C5             0.9379    -0.2810     4.2998 C.ar    
   6 C6             0.0665     0.6685     3.8030 C.ar    
   7 C7            -2.1483     1.3132     2.8629 C.ar    
   8 C8            -2.4509     2.4515     3.6091 C.ar    
   9 C9            -3.3237     3.3949     3.1010 C.ar    
  10 C10           -3.8971     3.2098     1.8530 C.ar    
  11 C11           -3.5994     2.0821     1.1102 C.ar    
  12 C12           -2.7246     1.1364     1.6056 C.ar    
  13 C13           -2.9642    -1.4556     3.0836 C.2     
  14 O14           -3.1750    -1.7573     1.9256 O.2     
  15 O15           -3.9670    -1.4937     3.9831 O.3     
  16 F16           -3.6186     4.4987     3.8220 F       
  17 C17           -4.8490     4.2409     1.3038 C.3     
  18 C18           -4.0536     5.3693     0.6443 C.3     
  19 N19           -5.7256     3.6160     0.3101 N.am    
  20 C20           -7.0071     4.0173     0.1948 C.2     
  21 O21           -7.4141     4.9458     0.8605 O.2     
  22 O22           -9.5460     4.5904    -0.9991 O.3     
  23 C23           -9.4099     3.3230    -0.3434 C.3     
  24 C24           -7.9343     3.3122    -0.7614 C.3     
  25 C25           -8.4879     4.1990    -1.8835 C.3     
  26 N26           -7.4363     2.0076    -1.2044 N.am    
  27 C27           -6.3371     1.9341    -1.9808 C.2     
  28 O28           -5.7072     2.9407    -2.2389 O.2     
  29 O29           -5.9371     0.7455    -2.4706 O.3     
  30 C30           -4.7890     0.7515    -3.3596 C.3     
  31 C31           -4.5602    -0.6590    -3.9065 C.3     
  32 C32           -3.4594    -0.6437    -4.9386 C.ar    
  33 C33           -3.3330     0.0064    -6.1481 C.ar    
  34 C34           -2.1901    -0.1623    -6.9091 C.ar    
  35 C35           -1.1719    -0.9837    -6.4589 C.ar    
  36 C36           -1.2900    -1.6382    -5.2506 C.ar    
  37 C37           -2.4404    -1.4722    -4.4771 C.ar    
  38 C38           -2.8256    -2.0443    -3.1632 C.ar    
  39 C39           -2.1527    -2.9195    -2.3085 C.ar    
  40 C40           -2.7373    -3.3086    -1.1215 C.ar    
  41 C41           -3.9893    -2.8346    -0.7727 C.ar    
  42 C42           -4.6621    -1.9674    -1.6150 C.ar    
  43 C43           -4.0852    -1.5731    -2.8038 C.ar    
  44 Cl44          -1.1953    -3.6579     4.1421 Cl      
  45 C45           -5.2431    -2.0143     3.5260 C.3     
  46 H46            1.2391    -2.3391     4.7916 H       
  47 H47            1.9299     0.0119     4.6104 H       
  48 H48            0.3785     1.6996     3.7265 H       
  49 H49           -2.0046     2.5954     4.5819 H       
  50 H50           -4.0492     1.9430     0.1382 H       
  51 H51           -2.4902     0.2584     1.0221 H       
  52 H52           -5.4520     4.6477     2.1156 H       
  53 H53           -4.7421     6.1151     0.2470 H       
  54 H54           -3.4013     5.8342     1.3836 H       
  55 H55           -3.4506     4.9625    -0.1675 H       
  56 H56           -5.3838     2.9135    -0.2648 H       
  57 H57           -9.5536     3.3764     0.7358 H       
  58 H58           -9.9969     2.5304    -0.8075 H       
  59 H59           -8.8342     3.6352    -2.7497 H       
  60 H60           -7.8238     5.0200    -2.1537 H       
  61 H61           -7.8976     1.1967    -0.9388 H       
  62 H62           -4.9738     1.4365    -4.1870 H       
  63 H63           -3.9055     1.0758    -2.8097 H       
  64 H64           -5.4804    -1.0449    -4.3451 H       
  65 H65           -4.1267     0.6481    -6.5014 H       
  66 H66           -2.0926     0.3475    -7.8562 H       
  67 H67           -0.2814    -1.1131    -7.0560 H       
  68 H68           -0.4929    -2.2788    -4.9030 H       
  69 H69           -1.1752    -3.2920    -2.5769 H       
  70 H70           -2.2155    -3.9857    -0.4614 H       
  71 H71           -4.4423    -3.1421     0.1581 H       
  72 H72           -5.6396    -1.5987    -1.3411 H       
  73 H73           -5.5704    -1.4555     2.6493 H       
  74 H74           -5.1338    -3.0671     3.2659 H       
  75 H75           -5.9829    -1.9110     4.3198 H       
@<TRIPOS>BOND
   1    1    2 ar
   2    1    6 ar
   3    1    7 1
   4    2    3 ar
   5    2   13 1
   6    3    4 ar
   7    3   44 1
   8    4    5 ar
   9    4   46 1
  10    5    6 ar
  11    5   47 1
  12    6   48 1
  13    7    8 ar
  14    7   12 ar
  15    8    9 ar
  16    8   49 1
  17    9   10 ar
  18    9   16 1
  19   10   11 ar
  20   10   17 1
  21   11   12 ar
  22   11   50 1
  23   12   51 1
  24   13   14 2
  25   13   15 1
  26   15   45 1
  27   17   18 1
  28   17   19 1
  29   17   52 1
  30   18   53 1
  31   18   54 1
  32   18   55 1
  33   19   20 am
  34   19   56 1
  35   20   21 2
  36   20   24 1
  37   22   23 1
  38   22   25 1
  39   23   24 1
  40   23   57 1
  41   23   58 1
  42   24   25 1
  43   24   26 1
  44   25   59 1
  45   25   60 1
  46   26   27 am
  47   26   61 1
  48   27   28 2
  49   27   29 1
  50   29   30 1
  51   30   31 1
  52   30   62 1
  53   30   63 1
  54   31   32 1
  55   31   43 1
  56   31   64 1
  57   32   33 ar
  58   32   37 ar
  59   33   34 ar
  60   33   65 1
  61   34   35 ar
  62   34   66 1
  63   35   36 ar
  64   35   67 1
  65   36   37 ar
  66   36   68 1
  67   37   38 1
  68   38   39 ar
  69   38   43 ar
  70   39   40 ar
  71   39   69 1
  72   40   41 ar
  73   40   70 1
  74   41   42 ar
  75   41   71 1
  76   42   43 ar
  77   42   72 1
  78   45   73 1
  79   45   74 1
  80   45   75 1

#	End of record

