#	Name: ASD10800060
#	Creating user name:	WinNT
#	Creation time:	15. 06. 2019 21:28

#	Modifying user name:	WinNT
#	Modification time:	15. 06. 2019 21:28

#	Program:	/corina/corina34_cracker 3.40 0067  02.08.2006

@<TRIPOS>MOLECULE
ASD10800060
  62   65    0    0    0
SMALL
NO_CHARGES


@<TRIPOS>ATOM
   1 C1            -0.0168     1.3891     0.0097 C.ar    
   2 C2             0.0021    -0.0041     0.0020 C.ar    
   3 C3             1.1887    -0.7007    -0.0415 C.ar    
   4 C4             2.3744     0.0056    -0.0798 C.ar    
   5 C5             2.3576     1.3822    -0.0587 C.ar    
   6 C6             1.1573     2.1014     0.0023 C.ar    
   7 C7             3.6768     2.1116    -0.1047 C.3     
   8 C8             4.1240     2.4471     1.3195 C.3     
   9 N9             4.6831     1.2609    -0.7449 N.2     
  10 C10            5.2802     1.6628    -1.8326 C.2     
  11 S11            4.9860     3.2008    -2.6509 S.3     
  12 C12            6.1830     2.9386    -3.9963 C.3     
  13 C13            6.7875     1.5606    -3.7045 C.3     
  14 N14            6.2304     0.9664    -2.5107 N.pl3   
  15 C15            5.3777     3.2817     1.2689 C.ar    
  16 C16            5.2875     4.6597     1.2196 C.ar    
  17 C17            6.4405     5.4304     1.1725 C.ar    
  18 C18            7.6837     4.8168     1.1753 C.ar    
  19 C19            7.7716     3.4342     1.2252 C.ar    
  20 C20            6.6157     2.6680     1.2775 C.ar    
  21 C21            1.3350     3.6008     0.0922 C.3     
  22 C22           -1.3884     2.0079    -0.0075 C.3     
  23 O23            6.3512     6.7856     1.1231 O.3     
  24 C24            7.5788     7.5154     1.0763 C.3     
  25 C25            0.0770     4.4733     0.1750 C.3     
  26 C26           -0.6223     4.5349    -1.1798 C.3     
  27 C27           -0.5802     3.2770    -2.0290 C.3     
  28 C28           -1.7281     2.4814    -1.4201 C.3     
  29 O29            8.9888     2.8298     1.2276 O.3     
  30 C30           10.1357     3.6807     1.1772 C.3     
  31 H31           -0.9352    -0.5411     0.0322 H       
  32 H32            1.1934    -1.7807    -0.0450 H       
  33 H33            3.3166    -0.5210    -0.1266 H       
  34 H34            3.5629     3.0328    -0.6763 H       
  35 H35            3.3363     3.0051     1.8257 H       
  36 H36            4.3235     1.5245     1.8645 H       
  37 H37            5.6766     2.9357    -4.9615 H       
  38 H38            6.9563     3.7064    -3.9731 H       
  39 H39            6.5978     0.9034    -4.5531 H       
  40 H40            7.8646     1.6662    -3.5748 H       
  41 H41            6.5216     0.0929    -2.2056 H       
  42 H42            4.3188     5.1372     1.2174 H       
  43 H43            8.5822     5.4149     1.1383 H       
  44 H44            6.6836     1.5909     1.3164 H       
  45 H45            1.9306     3.8177     0.9785 H       
  46 H46            1.8886     3.9300    -0.7870 H       
  47 H47           -2.1161     1.2280     0.2758 H       
  48 H48           -1.4779     2.8064     0.7119 H       
  49 H49            8.1397     7.2264     0.1876 H       
  50 H50            7.3652     8.5837     1.0397 H       
  51 H51            8.1679     7.2930     1.9660 H       
  52 H52           -0.5829     4.1267     0.9516 H       
  53 H53            0.3965     5.4938     0.4346 H       
  54 H54           -1.6669     4.7984    -1.0064 H       
  55 H55           -0.1690     5.3473    -1.7521 H       
  56 H56           -0.7885     3.5134    -3.0798 H       
  57 H57            0.3697     2.7565    -1.9502 H       
  58 H58           -1.9343     1.6110    -2.0503 H       
  59 H59           -2.6253     3.1038    -1.3882 H       
  60 H60           10.1063     4.2763     0.2648 H       
  61 H61           10.1356     4.3424     2.0433 H       
  62 H62           11.0401     3.0723     1.1849 H       
@<TRIPOS>BOND
   1    1    2 ar
   2    1    6 ar
   3    1   22 1
   4    2    3 ar
   5    2   31 1
   6    3    4 ar
   7    3   32 1
   8    4    5 ar
   9    4   33 1
  10    5    6 ar
  11    5    7 1
  12    6   21 1
  13    7    8 1
  14    7    9 1
  15    7   34 1
  16    8   15 1
  17    8   35 1
  18    8   36 1
  19    9   10 2
  20   10   11 1
  21   10   14 1
  22   11   12 1
  23   12   13 1
  24   12   37 1
  25   12   38 1
  26   13   14 1
  27   13   39 1
  28   13   40 1
  29   14   41 1
  30   15   16 ar
  31   15   20 ar
  32   16   17 ar
  33   16   42 1
  34   17   18 ar
  35   17   23 1
  36   18   19 ar
  37   18   43 1
  38   19   20 ar
  39   19   29 1
  40   20   44 1
  41   21   25 1
  42   21   45 1
  43   21   46 1
  44   22   28 1
  45   22   47 1
  46   22   48 1
  47   23   24 1
  48   24   49 1
  49   24   50 1
  50   24   51 1
  51   25   26 1
  52   25   52 1
  53   25   53 1
  54   26   27 1
  55   26   54 1
  56   26   55 1
  57   27   28 1
  58   27   56 1
  59   27   57 1
  60   28   58 1
  61   28   59 1
  62   29   30 1
  63   30   60 1
  64   30   61 1
  65   30   62 1

#	End of record

