#	Name: ASD15180002
#	Creating user name:	WinNT
#	Creation time:	15. 06. 2019 21:31

#	Modifying user name:	WinNT
#	Modification time:	15. 06. 2019 21:31

#	Program:	/corina/corina34_cracker 3.40 0067  02.08.2006

@<TRIPOS>MOLECULE
ASD15180002
  36   38    0    0    0
SMALL
NO_CHARGES


@<TRIPOS>ATOM
   1 C1            -0.0119     1.3149    -0.3091 C.ar    
   2 C2             2.3764     1.2844    -0.2026 C.ar    
   3 C3             4.8294     1.3462    -0.0989 C.2     
   4 C4             5.0984     3.5519    -0.2392 C.2     
   5 C5            -0.2487    -3.9710    -0.5001 C.ar    
   6 C6            -3.7544    -4.7486     0.4354 C.1     
   7 C7            -2.5053    -4.0582     0.3184 C.ar    
   8 C8            -2.3391    -2.8047     0.9145 C.ar    
   9 C9            -1.1368    -2.1440     0.8005 C.ar    
  10 C10           -0.0872    -2.7229     0.0937 C.ar    
  11 C11            1.1506    -0.6695    -0.1171 C.ar    
  12 C12            1.1965     2.0100    -0.3057 C.ar    
  13 C13            5.7627     2.3247    -0.1282 C.2     
  14 C14            5.7546     4.9069    -0.3060 C.3     
  15 C15           -1.4485    -4.6371    -0.3905 C.ar    
  16 N16           -4.7453    -5.2963     0.5281 N.1     
  17 N17            1.1288    -2.0514    -0.0193 N.pl3   
  18 N18            0.0049    -0.0116    -0.2140 N.ar    
  19 N19           -1.2144     1.9970    -0.4044 N.pl3   
  20 N20            3.6100     1.9382    -0.1947 N.pl3   
  21 N21            3.8117     3.3216    -0.2851 N.2     
  22 N22            2.3160    -0.0410    -0.1109 N.ar    
  23 O23            7.1737     4.7528    -0.2384 O.3     
  24 H24            5.0192     0.2861    -0.0185 H       
  25 H25            0.5666    -4.4156    -1.0514 H       
  26 H26           -3.1532    -2.3549     1.4635 H       
  27 H27           -1.0079    -1.1754     1.2605 H       
  28 H28            1.2147     3.0871    -0.3819 H       
  29 H29            6.8321     2.1840    -0.0747 H       
  30 H30            5.4863     5.3947    -1.2431 H       
  31 H31            5.4151     5.5167     0.5313 H       
  32 H32           -1.5733    -5.6055    -0.8519 H       
  33 H33            1.9599    -2.5515    -0.0294 H       
  34 H34           -2.0515     1.5070    -0.4021 H       
  35 H35           -1.2190     2.9646    -0.4735 H       
  36 H36            7.6621     5.5865    -0.2761 H       
@<TRIPOS>BOND
   1    1   18 ar
   2    1   12 ar
   3    1   19 1
   4    2   22 ar
   5    2   20 1
   6    2   12 ar
   7    3   13 2
   8    3   24 1
   9    3   20 1
  10    4   14 1
  11    4   13 1
  12    4   21 2
  13    5   10 ar
  14    5   15 ar
  15    5   25 1
  16    6   16 3
  17    6    7 1
  18    7    8 ar
  19    7   15 ar
  20    8   26 1
  21    8    9 ar
  22    9   27 1
  23    9   10 ar
  24   10   17 1
  25   11   17 1
  26   11   22 ar
  27   11   18 ar
  28   12   28 1
  29   13   29 1
  30   14   30 1
  31   14   31 1
  32   14   23 1
  33   15   32 1
  34   17   33 1
  35   19   34 1
  36   19   35 1
  37   20   21 1
  38   23   36 1

#	End of record

