#	Name: ASD10800064
#	Creating user name:	WinNT
#	Creation time:	15. 06. 2019 21:28

#	Modifying user name:	WinNT
#	Modification time:	15. 06. 2019 21:28

#	Program:	/corina/corina34_cracker 3.40 0067  02.08.2006

@<TRIPOS>MOLECULE
ASD10800064
  51   54    0    0    0
SMALL
NO_CHARGES


@<TRIPOS>ATOM
   1 C1            -0.0168     1.3858     0.0097 C.ar    
   2 C2             0.0021    -0.0041     0.0020 C.ar    
   3 C3             1.1996    -0.6889     0.0046 C.ar    
   4 C4             2.3901     0.0134     0.0148 C.ar    
   5 C5             2.3716     1.3925     0.0136 C.ar    
   6 C6             1.1650     2.0842     0.0021 C.ar    
   7 C7             3.6704     2.1567     0.0253 C.3     
   8 C8             4.0326     2.5247     1.4655 C.3     
   9 N9             4.7316     1.3249    -0.5478 N.2     
  10 C10            5.3743     1.7275    -1.6089 C.2     
  11 S11            5.0827     3.2449    -2.4656 S.3     
  12 C12            6.3556     2.9965    -3.7421 C.3     
  13 C13            6.9805     1.6401    -3.3974 C.3     
  14 N14            6.3773     1.0479    -2.2252 N.pl3   
  15 C15            5.2645     3.3928     1.4675 C.ar    
  16 C16            5.1413     4.7672     1.3919 C.ar    
  17 C17            6.2723     5.5640     1.3937 C.ar    
  18 C18            7.5257     4.9846     1.4712 C.ar    
  19 C19            7.6480     3.6097     1.5468 C.ar    
  20 C20            6.5176     2.8144     1.5507 C.ar    
  21 Br21           6.1044     7.4446     1.2897 Br      
  22 C22            1.2403     3.5910    -0.0421 C.3     
  23 C23           -1.3624     2.0602     0.0504 C.3     
  24 C24            0.0280     4.2303     0.6329 C.3     
  25 C25           -1.0518     4.4651    -0.4251 C.3     
  26 C26           -1.4685     3.1316    -1.0383 C.3     
  27 H27           -0.9284    -0.5523    -0.0057 H       
  28 H28            1.2069    -1.7689    -0.0009 H       
  29 H29            3.3314    -0.5159     0.0240 H       
  30 H30            3.5623     3.0660    -0.5659 H       
  31 H31            3.2046     3.0680     1.9209 H       
  32 H32            4.2277     1.6158     2.0347 H       
  33 H33            5.9012     2.9658    -4.7324 H       
  34 H34            7.1058     3.7856    -3.6906 H       
  35 H35            6.8536     0.9657    -4.2443 H       
  36 H36            8.0460     1.7772    -3.2131 H       
  37 H37            6.6753     0.1872    -1.8916 H       
  38 H38            4.1623     5.2191     1.3310 H       
  39 H39            8.4089     5.6063     1.4723 H       
  40 H40            8.6268     3.1572     1.6073 H       
  41 H41            6.6134     1.7402     1.6097 H       
  42 H42            2.1461     3.9178     0.4685 H       
  43 H43            1.2817     3.9155    -1.0818 H       
  44 H44           -2.1421     1.3142    -0.1036 H       
  45 H45           -1.5006     2.5258     1.0263 H       
  46 H46           -0.3552     3.5631     1.4050 H       
  47 H47            0.3169     5.1822     1.0785 H       
  48 H48           -1.9177     4.9374     0.0389 H       
  49 H49           -0.6591     5.1165    -1.2059 H       
  50 H50           -0.8048     2.8830    -1.8664 H       
  51 H51           -2.4966     3.1948    -1.3948 H       
@<TRIPOS>BOND
   1    1    2 ar
   2    1    6 ar
   3    1   23 1
   4    2    3 ar
   5    2   27 1
   6    3    4 ar
   7    3   28 1
   8    4    5 ar
   9    4   29 1
  10    5    6 ar
  11    5    7 1
  12    6   22 1
  13    7    8 1
  14    7    9 1
  15    7   30 1
  16    8   15 1
  17    8   31 1
  18    8   32 1
  19    9   10 2
  20   10   11 1
  21   10   14 1
  22   11   12 1
  23   12   13 1
  24   12   33 1
  25   12   34 1
  26   13   14 1
  27   13   35 1
  28   13   36 1
  29   14   37 1
  30   15   16 ar
  31   15   20 ar
  32   16   17 ar
  33   16   38 1
  34   17   18 ar
  35   17   21 1
  36   18   19 ar
  37   18   39 1
  38   19   20 ar
  39   19   40 1
  40   20   41 1
  41   22   24 1
  42   22   42 1
  43   22   43 1
  44   23   26 1
  45   23   44 1
  46   23   45 1
  47   24   25 1
  48   24   46 1
  49   24   47 1
  50   25   26 1
  51   25   48 1
  52   25   49 1
  53   26   50 1
  54   26   51 1

#	End of record

