#	Name: ASD13650003
#	Creating user name:	WinNT
#	Creation time:	15. 06. 2019 21:30

#	Modifying user name:	WinNT
#	Modification time:	15. 06. 2019 21:30

#	Program:	/corina/corina34_cracker 3.40 0067  02.08.2006

@<TRIPOS>MOLECULE
ASD13650003
  63   68    0    0    0
SMALL
NO_CHARGES


@<TRIPOS>ATOM
   1 C1            -0.4940     1.2410    -0.3358 C.3     
   2 C2            -0.5415    -0.2602    -0.4826 C.ar    
   3 C3             0.7668    -0.7306    -0.4073 C.ar    
   4 C4             0.9627     1.5977    -0.1685 C.ar    
   5 C5            -1.5876    -1.1398    -0.6623 C.ar    
   6 C6            -1.3407    -2.4974    -0.7684 C.ar    
   7 C7            -0.0447    -2.9744    -0.6944 C.ar    
   8 C8             1.0084    -2.1011    -0.5156 C.ar    
   9 C9             1.6061     2.8045     0.0049 C.ar    
  10 C10            1.6927     0.4128    -0.2140 C.ar    
  11 C11            3.0814     0.4593    -0.0824 C.ar    
  12 C12            3.7170     1.6715     0.0908 C.ar    
  13 C13            2.9834     2.8430     0.1348 C.ar    
  14 C14           -1.0597     1.9110    -1.5895 C.3     
  15 O15           -1.1170     3.3476    -1.3866 O.3     
  16 C16           -1.5949     4.0900    -2.4031 C.2     
  17 N17           -1.6747     5.4297    -2.2798 N.am    
  18 O18           -1.9543     3.5521    -3.4317 O.2     
  19 C19           -2.8193     7.9369    -1.6443 C.3     
  20 C20           -2.3798     6.9778    -0.5303 C.3     
  21 C21           -1.2383     6.0951    -1.0446 C.3     
  22 C22           -2.1939     6.2532    -3.3802 C.3     
  23 C23           -3.3267     7.1344    -2.8446 C.3     
  24 C24           -3.9194     8.8307    -1.1322 C.ar    
  25 C25           -1.6461     8.7802    -2.0725 C.2     
  26 O26           -1.7757     9.6411    -3.0942 O.3     
  27 O27           -0.5887     8.6814    -1.4962 O.2     
  28 C28           -5.9848    10.4720    -0.2086 C.ar    
  29 C29           -4.7173    10.5552     0.3928 C.ar    
  30 C30           -5.1608     8.7740    -1.6870 C.ar    
  31 C31           -6.1905     9.5927    -1.2268 C.ar    
  32 C32           -3.2265    11.5045     2.0041 C.ar    
  33 C33           -2.1979    10.6826     1.5467 C.ar    
  34 C34           -2.4026     9.8063     0.5258 C.ar    
  35 C35           -3.6701     9.7230    -0.0754 C.ar    
  36 C36           -4.4667    11.4512     1.4462 C.ar    
  37 H37           -1.0594     1.5502     0.5433 H       
  38 H38           -2.6004    -0.7693    -0.7199 H       
  39 H39           -2.1613    -3.1854    -0.9088 H       
  40 H40            0.1438    -4.0346    -0.7770 H       
  41 H41            2.0190    -2.4777    -0.4587 H       
  42 H42            1.0350     3.7205     0.0391 H       
  43 H43            3.6581    -0.4533    -0.1158 H       
  44 H44            4.7916     1.7056     0.1929 H       
  45 H45            3.4860     3.7892     0.2706 H       
  46 H46           -0.4167     1.6898    -2.4414 H       
  47 H47           -2.0629     1.5312    -1.7833 H       
  48 H48           -2.0410     7.5523     0.3318 H       
  49 H49           -3.2205     6.3474    -0.2403 H       
  50 H50           -0.9896     5.3450    -0.2938 H       
  51 H51           -0.3639     6.7121    -1.2513 H       
  52 H52           -1.3959     6.8829    -3.7735 H       
  53 H53           -2.5760     5.6075    -4.1709 H       
  54 H54           -4.1590     6.5027    -2.5342 H       
  55 H55           -3.6599     7.8186    -3.6250 H       
  56 H56           -0.9955    10.1603    -3.3325 H       
  57 H57           -6.7923    11.1000     0.1377 H       
  58 H58           -5.3507     8.0845    -2.4963 H       
  59 H59           -7.1665     9.5281    -1.6848 H       
  60 H60           -3.0376    12.1910     2.8161 H       
  61 H61           -1.2229    10.7448     2.0070 H       
  62 H62           -1.5951     9.1785     0.1792 H       
  63 H63           -5.2540    12.0943     1.8107 H       
@<TRIPOS>BOND
   1    1    2 1
   2    1    4 1
   3    1   14 1
   4    1   37 1
   5    2    3 ar
   6    2    5 ar
   7    3   10 1
   8    3    8 ar
   9    4   10 ar
  10    4    9 ar
  11    5    6 ar
  12    5   38 1
  13    6    7 ar
  14    6   39 1
  15    7    8 ar
  16    7   40 1
  17    8   41 1
  18    9   13 ar
  19    9   42 1
  20   10   11 ar
  21   11   12 ar
  22   11   43 1
  23   12   13 ar
  24   12   44 1
  25   13   45 1
  26   14   15 1
  27   14   46 1
  28   14   47 1
  29   15   16 1
  30   16   17 am
  31   16   18 2
  32   17   22 1
  33   17   21 1
  34   19   20 1
  35   19   23 1
  36   19   24 1
  37   19   25 1
  38   20   21 1
  39   20   48 1
  40   20   49 1
  41   21   50 1
  42   21   51 1
  43   22   23 1
  44   22   52 1
  45   22   53 1
  46   23   54 1
  47   23   55 1
  48   24   30 ar
  49   24   35 ar
  50   25   26 1
  51   25   27 2
  52   26   56 1
  53   28   29 ar
  54   28   31 ar
  55   28   57 1
  56   29   36 ar
  57   29   35 ar
  58   30   31 ar
  59   30   58 1
  60   31   59 1
  61   32   33 ar
  62   32   36 ar
  63   32   60 1
  64   33   34 ar
  65   33   61 1
  66   34   35 ar
  67   34   62 1
  68   36   63 1

#	End of record

