#	Name: ASD10220040
#	Creating user name:	WinNT
#	Creation time:	15. 06. 2019 21:26

#	Modifying user name:	WinNT
#	Modification time:	15. 06. 2019 21:26

#	Program:	/corina/corina34_cracker 3.40 0067  02.08.2006

@<TRIPOS>MOLECULE
ASD10220040
  33   36    0    0    0
SMALL
NO_CHARGES


@<TRIPOS>ATOM
   1 C1             0.0033     1.5151     0.4064 C.2     
   2 C2             0.0492     0.2250     0.9854 C.2     
   3 C3            -1.0784    -0.4256     1.3487 C.2     
   4 C4            -2.4053     0.1605     1.1666 C.2     
   5 C5            -2.5345     1.4217     0.6063 C.2     
   6 C6            -1.3330     2.1688     0.2019 C.2     
   7 O7            -3.6418    -0.2927     1.4479 O.3     
   8 C8            -4.5762     0.5964     1.1056 C.2     
   9 C9            -3.9734     1.7032     0.5692 C.2     
  10 O10           -1.4199     3.2740    -0.2906 O.2     
  11 O11            1.0268     2.0857     0.0852 O.2     
  12 C12           -4.6316     2.9203     0.0625 C.2     
  13 O13           -3.9616     3.8735    -0.2873 O.2     
  14 C14           -6.1035     2.9830    -0.0205 C.ar    
  15 C15           -6.8447     1.8151    -0.2230 C.ar    
  16 C16           -8.2179     1.8771    -0.3015 C.ar    
  17 C17           -8.8726     3.0979    -0.1804 C.ar    
  18 C18           -8.1401     4.2650     0.0245 C.ar    
  19 C19           -6.7613     4.2092     0.1088 C.ar    
  20 Br20           1.7252    -0.6077     1.2565 Br      
  21 Br21          -0.9353    -2.1480     2.1160 Br      
  22 O22          -10.2287     3.1359    -0.2688 O.3     
  23 C23          -10.8741     4.3122     0.2302 C.3     
  24 C24          -10.1214     5.5378    -0.3049 C.3     
  25 O25           -8.7668     5.4668     0.1531 O.3     
  26 H26           -5.6407     0.4639     1.2313 H       
  27 H27           -6.3404     0.8648    -0.3182 H       
  28 H28           -8.7889     0.9739    -0.4582 H       
  29 H29           -6.1924     5.1138     0.2655 H       
  30 H30          -11.9084     4.3374    -0.1129 H       
  31 H31          -10.8478     4.3116     1.3199 H       
  32 H32          -10.1417     5.5347    -1.3948 H       
  33 H33          -10.5888     6.4486     0.0694 H       
@<TRIPOS>BOND
   1    1    2 1
   2    1   11 2
   3    1    6 1
   4    2    3 2
   5    2   20 1
   6    3    4 1
   7    3   21 1
   8    4    5 2
   9    4    7 1
  10    5    6 1
  11    5    9 1
  12    6   10 2
  13    7    8 1
  14    8    9 2
  15    8   26 1
  16    9   12 1
  17   12   13 2
  18   12   14 1
  19   14   15 ar
  20   14   19 ar
  21   15   16 ar
  22   15   27 1
  23   16   17 ar
  24   16   28 1
  25   17   18 ar
  26   17   22 1
  27   18   19 ar
  28   18   25 1
  29   19   29 1
  30   22   23 1
  31   23   24 1
  32   23   30 1
  33   23   31 1
  34   24   25 1
  35   24   32 1
  36   24   33 1

#	End of record

