#	Name: ASD11920032
#	Creating user name:	WinNT
#	Creation time:	15. 06. 2019 21:29

#	Modifying user name:	WinNT
#	Modification time:	15. 06. 2019 21:29

#	Program:	/corina/corina34_cracker 3.40 0067  02.08.2006

@<TRIPOS>MOLECULE
ASD11920032
  35   37    0    0    0
SMALL
NO_CHARGES


@<TRIPOS>ATOM
   1 Cl1           -1.8665    -0.9815    -0.2505 Cl      
   2 Cl2            0.7837     3.7144    -0.7177 Cl      
   3 C3            -0.3950     1.2820    -0.5031 C.ar    
   4 N4            -3.0884     2.9561     1.0826 N.ar    
   5 C5            -0.3847    -0.1058    -0.4771 C.ar    
   6 N6            -2.7107     2.9619     3.3537 N.ar    
   7 C7             0.8068    -0.7900    -0.6315 C.ar    
   8 N8            -1.1943     1.9681     1.9345 N.ar    
   9 C9             1.9873    -0.0932    -0.8116 C.ar    
  10 N10           -0.7849     1.9604     4.2454 N.pl3   
  11 C11            1.9802     1.2891    -0.8374 C.ar    
  12 N12           -4.6515     3.9769     2.5077 N.pl3   
  13 C13            0.7917     1.9787    -0.6840 C.ar    
  14 N14           -6.8612     5.1689     8.7554 N.1     
  15 O15           -1.5659     1.9573    -0.3572 O.3     
  16 C16           -1.9520     2.2962     0.8947 C.ar    
  17 C17           -3.4687     3.2895     2.3124 C.ar    
  18 C18           -1.5730     2.3007     3.1648 C.ar    
  19 C19           -5.1089     4.2237     3.8012 C.ar    
  20 C20           -4.8890     3.2864     4.8058 C.ar    
  21 C21           -5.3393     3.5269     6.0843 C.ar    
  22 C22           -6.0178     4.7146     6.3728 C.ar    
  23 C23           -6.2366     5.6542     5.3611 C.ar    
  24 C24           -5.7793     5.4093     4.0859 C.ar    
  25 C25           -6.4881     4.9679     7.7014 C.1     
  26 H26            0.8154    -1.8697    -0.6110 H       
  27 H27            2.9168    -0.6298    -0.9319 H       
  28 H28           -1.0610     2.2037     5.1429 H       
  29 H29            0.0452     1.4780     4.1074 H       
  30 H30            2.9040     1.8308    -0.9779 H       
  31 H31           -5.1635     4.2876     1.7446 H       
  32 H32           -4.3647     2.3691     4.5822 H       
  33 H33           -5.1689     2.7987     6.8635 H       
  34 H34           -6.7605     6.5728     5.5805 H       
  35 H35           -5.9447     6.1364     3.3046 H       
@<TRIPOS>BOND
   1    1    5 1
   2    2   13 1
   3    3    5 ar
   4    3   13 ar
   5    3   15 1
   6    4   16 ar
   7    4   17 ar
   8    5    7 ar
   9    6   17 ar
  10    6   18 ar
  11    7    9 ar
  12    7   26 1
  13    8   16 ar
  14    8   18 ar
  15    9   11 ar
  16    9   27 1
  17   10   18 1
  18   10   28 1
  19   10   29 1
  20   11   13 ar
  21   11   30 1
  22   12   17 1
  23   12   19 1
  24   12   31 1
  25   14   25 3
  26   15   16 1
  27   19   20 ar
  28   19   24 ar
  29   20   21 ar
  30   20   32 1
  31   21   22 ar
  32   21   33 1
  33   22   23 ar
  34   22   25 1
  35   23   24 ar
  36   23   34 1
  37   24   35 1

#	End of record

