#	Name: ASD10950036
#	Creating user name:	WinNT
#	Creation time:	15. 06. 2019 21:28

#	Modifying user name:	WinNT
#	Modification time:	15. 06. 2019 21:28

#	Program:	/corina/corina34_cracker 3.40 0067  02.08.2006

@<TRIPOS>MOLECULE
ASD10950036
  54   57    0    0    0
SMALL
NO_CHARGES


@<TRIPOS>ATOM
   1 C1            -0.9182     1.1550     0.0570 C.3     
   2 O2            -0.7210    -0.2790     0.1714 O.3     
   3 C3            -1.5899    -1.0703    -0.4870 C.2     
   4 O4            -2.4877    -0.5759    -1.1389 O.2     
   5 C5            -1.4508    -2.5394    -0.4162 C.ar    
   6 C6            -0.4198    -3.1104     0.3323 C.ar    
   7 C7            -0.2930    -4.4830     0.3960 C.ar    
   8 C8            -1.1838    -5.2961    -0.2797 C.ar    
   9 C9            -2.2122    -4.7375    -1.0272 C.ar    
  10 C10           -2.3531    -3.3619    -1.0928 C.ar    
  11 O11           -3.0847    -5.5420    -1.6897 O.3     
  12 C12           -1.0380    -6.7942    -0.2053 C.3     
  13 N13            0.3412    -7.1830    -0.5219 N.am    
  14 C14            1.0394    -6.9292    -1.7846 C.3     
  15 C15            1.7395    -5.5705    -1.7161 C.3     
  16 C16            2.4089    -5.2833    -3.0354 C.2     
  17 C17            3.6905    -5.5287    -3.3506 C.2     
  18 N18            3.9377    -5.1357    -4.6378 N.pl3   
  19 C19            2.7921    -4.6147    -5.1963 C.ar    
  20 C20            1.7830    -4.6893    -4.2191 C.ar    
  21 C21            0.4973    -4.2277    -4.5086 C.ar    
  22 C22            0.2259    -3.7053    -5.7415 C.ar    
  23 C23            1.2182    -3.6299    -6.7095 C.ar    
  24 C24            2.4924    -4.0824    -6.4463 C.ar    
  25 C25            0.8516    -7.8131     0.5515 C.2     
  26 O26            1.9767    -8.2651     0.6251 O.2     
  27 C27           -0.1600    -7.8732     1.6297 C.2     
  28 C28           -1.2985    -7.2718     1.2042 C.2     
  29 C29           -2.4986    -7.1208     1.9385 C.2     
  30 O30           -2.5392    -7.4431     3.1080 O.2     
  31 C31           -3.7264    -6.5598     1.2685 C.3     
  32 O32            0.0218    -8.4371     2.8445 O.3     
  33 H33           -0.1525     1.6742     0.6334 H       
  34 H34           -0.8467     1.4491    -0.9901 H       
  35 H35           -1.9035     1.4181     0.4418 H       
  36 H36            0.2783    -2.4782     0.8608 H       
  37 H37            0.5050    -4.9235     0.9753 H       
  38 H38           -3.1527    -2.9263    -1.6735 H       
  39 H39           -3.8250    -5.8492    -1.1487 H       
  40 H40           -1.7305    -7.2725    -0.8979 H       
  41 H41            1.7796    -7.7112    -1.9540 H       
  42 H42            0.3200    -6.9264    -2.6034 H       
  43 H43            1.0049    -4.7935    -1.5047 H       
  44 H44            2.4887    -5.5873    -0.9246 H       
  45 H45            4.4188    -5.9703    -2.6865 H       
  46 H46            4.7927    -5.2124    -5.0894 H       
  47 H47           -0.2798    -4.2839    -3.7608 H       
  48 H48           -0.7686    -3.3485    -5.9650 H       
  49 H49            0.9882    -3.2146    -7.6796 H       
  50 H50            3.2575    -4.0194    -7.2059 H       
  51 H51           -4.2538    -7.3593     0.7482 H       
  52 H52           -4.3823    -6.1211     2.0205 H       
  53 H53           -3.4311    -5.7931     0.5522 H       
  54 H54            0.9007    -8.8191     2.9733 H       
@<TRIPOS>BOND
   1    1    2 1
   2    1   33 1
   3    1   34 1
   4    1   35 1
   5    2    3 1
   6    3    4 2
   7    3    5 1
   8    5    6 ar
   9    5   10 ar
  10    6    7 ar
  11    6   36 1
  12    7    8 ar
  13    7   37 1
  14    8    9 ar
  15    8   12 1
  16    9   10 ar
  17    9   11 1
  18   10   38 1
  19   11   39 1
  20   12   13 1
  21   12   28 1
  22   12   40 1
  23   13   14 1
  24   13   25 am
  25   14   15 1
  26   14   41 1
  27   14   42 1
  28   15   16 1
  29   15   43 1
  30   15   44 1
  31   16   17 2
  32   16   20 1
  33   17   18 1
  34   17   45 1
  35   18   19 1
  36   18   46 1
  37   19   20 ar
  38   19   24 ar
  39   20   21 ar
  40   21   22 ar
  41   21   47 1
  42   22   23 ar
  43   22   48 1
  44   23   24 ar
  45   23   49 1
  46   24   50 1
  47   25   26 2
  48   25   27 1
  49   27   28 2
  50   27   32 1
  51   28   29 1
  52   29   30 2
  53   29   31 1
  54   31   51 1
  55   31   52 1
  56   31   53 1
  57   32   54 1

#	End of record

