#	Name: ASD10160142
#	Creating user name:	WinNT
#	Creation time:	15. 06. 2019 21:25

#	Modifying user name:	WinNT
#	Modification time:	15. 06. 2019 21:25

#	Program:	/corina/corina34_cracker 3.40 0067  02.08.2006

@<TRIPOS>MOLECULE
ASD10160142
  48   51    0    0    0
SMALL
NO_CHARGES


@<TRIPOS>ATOM
   1 C1            -2.6301    -3.5853     4.8733 C.2     
   2 C2            -1.9228    -3.7293     3.5876 C.ar    
   3 C3            -0.6222    -4.2461     3.5558 C.ar    
   4 C4             0.0356    -4.3795     2.3496 C.ar    
   5 C5            -0.5911    -4.0020     1.1695 C.ar    
   6 C6            -1.8849    -3.4874     1.1969 C.ar    
   7 C7            -2.5513    -3.3556     2.3958 C.ar    
   8 O8            -2.0836    -3.9156     5.9082 O.2     
   9 N9            -3.8801    -3.0823     4.9021 N.am    
  10 S10           -4.6745    -2.9205     6.3461 S.o2    
  11 O11           -5.9455    -2.3943     5.9898 O.2     
  12 O12           -4.5555    -4.1981     6.9566 O.2     
  13 C13           -3.7077    -1.6863     7.2587 C.3     
  14 F14           -2.4897    -3.1217     0.0455 F       
  15 F15           -0.0117    -4.6133     4.7037 F       
  16 O16            0.0594    -4.1344    -0.0143 O.3     
  17 C17            2.4232    -3.8459    -0.0739 C.ar    
  18 C18            1.3103    -4.6675     0.0007 C.ar    
  19 C19            1.4876    -6.0458     0.0918 C.ar    
  20 C20            2.7784    -6.5451     0.1044 C.ar    
  21 C21            3.8485    -5.6588     0.0260 C.ar    
  22 N22            3.6409    -4.3546    -0.0591 N.ar    
  23 Cl23           3.0589    -8.2546     0.2170 Cl      
  24 C24            5.4942    -6.7302     1.3729 C.3     
  25 N25            5.1521    -6.1498     0.0378 N.3     
  26 C26            6.1303    -5.0653    -0.2143 C.3     
  27 C27            7.0686    -5.0623     1.0324 C.3     
  28 C28            6.1673    -4.5114     2.1813 C.3     
  29 C29            5.1093    -5.6187     2.3964 C.3     
  30 C30            7.0575    -6.5969     1.3697 C.3     
  31 H31            1.0391    -4.7778     2.3238 H       
  32 H32           -3.5563    -2.9606     2.4152 H       
  33 H33           -4.3145    -2.8151     4.0769 H       
  34 H34           -3.6891    -0.7520     6.6976 H       
  35 H35           -4.1643    -1.5156     8.2336 H       
  36 H36           -2.6890    -2.0498     7.3932 H       
  37 H37            2.2927    -2.7765    -0.1493 H       
  38 H38            0.6378    -6.7095     0.1517 H       
  39 H39            5.0887    -7.7215     1.5757 H       
  40 H40            6.7028    -5.2751    -1.1178 H       
  41 H41            5.6180    -4.1075    -0.3043 H       
  42 H42            8.0395    -4.5830     0.9073 H       
  43 H43            6.7536    -4.3624     3.0881 H       
  44 H44            5.6889    -3.5802     1.8778 H       
  45 H45            4.1104    -5.2367     2.1856 H       
  46 H46            5.1633    -6.0039     3.4147 H       
  47 H47            7.4905    -6.8065     2.3478 H       
  48 H48            7.5200    -7.1944     0.5841 H       
@<TRIPOS>BOND
   1    1    2 1
   2    1    8 2
   3    1    9 am
   4    2    3 ar
   5    2    7 ar
   6    3    4 ar
   7    3   15 1
   8    4    5 ar
   9    4   31 1
  10    5    6 ar
  11    5   16 1
  12    6    7 ar
  13    6   14 1
  14    7   32 1
  15    9   10 am
  16    9   33 1
  17   10   11 2
  18   10   12 2
  19   10   13 1
  20   13   34 1
  21   13   35 1
  22   13   36 1
  23   16   18 1
  24   17   18 ar
  25   17   22 ar
  26   17   37 1
  27   18   19 ar
  28   19   20 ar
  29   19   38 1
  30   20   21 ar
  31   20   23 1
  32   21   22 ar
  33   21   25 1
  34   24   25 1
  35   24   29 1
  36   24   30 1
  37   24   39 1
  38   25   26 1
  39   26   27 1
  40   26   40 1
  41   26   41 1
  42   27   28 1
  43   27   30 1
  44   27   42 1
  45   28   29 1
  46   28   43 1
  47   28   44 1
  48   29   45 1
  49   29   46 1
  50   30   47 1
  51   30   48 1

#	End of record

