#	Name: ASD11550002
#	Creating user name:	WinNT
#	Creation time:	15. 06. 2019 21:29

#	Modifying user name:	WinNT
#	Modification time:	15. 06. 2019 21:29

#	Program:	/corina/corina34_cracker 3.40 0067  02.08.2006

@<TRIPOS>MOLECULE
ASD11550002
  24   23    0    0    0
SMALL
NO_CHARGES


@<TRIPOS>ATOM
   1 O1             0.0021    -0.0041     0.0020 O.2     
   2 C2            -0.0143     1.2034     0.0087 C.2     
   3 C3             1.2804     1.9746     0.0004 C.3     
   4 O4             2.3790     1.0609    -0.0150 O.3     
   5 C5             1.3376     2.8619    -1.2447 C.3     
   6 O6             0.2390     3.7756    -1.2293 O.3     
   7 C7             2.6520     3.6449    -1.2530 C.3     
   8 O8             2.7816     4.3713    -0.0292 O.3     
   9 C9             2.6556     4.6230    -2.4295 C.3     
  10 O10            2.5260     3.8967    -3.6533 O.3     
  11 C11            3.9700     5.4060    -2.4378 C.3     
  12 O12            3.9263     6.3993    -3.4642 O.3     
  13 H13           -0.9568     1.7306     0.0160 H       
  14 H14            1.3381     2.5972     0.8933 H       
  15 H15            2.3916     0.4739    -0.7833 H       
  16 H16            1.2799     2.2393    -2.1375 H       
  17 H17            0.2264     4.3626    -0.4609 H       
  18 H18            3.4872     2.9518    -1.3543 H       
  19 H19            2.0710     5.0082     0.1272 H       
  20 H20            1.8204     5.3162    -2.3282 H       
  21 H21            3.2366     3.2597    -3.8097 H       
  22 H22            4.1116     5.8887    -1.4708 H       
  23 H23            4.7983     4.7234    -2.6279 H       
  24 H24            4.7288     6.9351    -3.5275 H       
@<TRIPOS>BOND
   1    1    2 2
   2    2    3 1
   3    2   13 1
   4    3    4 1
   5    3    5 1
   6    3   14 1
   7    4   15 1
   8    5    6 1
   9    5    7 1
  10    5   16 1
  11    6   17 1
  12    7    8 1
  13    7    9 1
  14    7   18 1
  15    8   19 1
  16    9   10 1
  17    9   11 1
  18    9   20 1
  19   10   21 1
  20   11   12 1
  21   11   22 1
  22   11   23 1
  23   12   24 1

#	End of record

