#	Name: ASD10160316
#	Creating user name:	WinNT
#	Creation time:	15. 06. 2019 21:25

#	Modifying user name:	WinNT
#	Modification time:	15. 06. 2019 21:25

#	Program:	/corina/corina34_cracker 3.40 0067  02.08.2006

@<TRIPOS>MOLECULE
ASD10160316
  23   23    0    0    0
SMALL
NO_CHARGES


@<TRIPOS>ATOM
   1 C1            -0.0179     1.4703     0.0101 C.2     
   2 C2             0.0021    -0.0041     0.0020 C.ar    
   3 C3             1.2224    -0.6896    -0.0133 C.ar    
   4 C4             1.2357    -2.0700    -0.0204 C.ar    
   5 C5             0.0416    -2.7776    -0.0128 C.ar    
   6 C6            -1.1744    -2.0995     0.0020 C.ar    
   7 C7            -1.1978    -0.7218     0.0155 C.ar    
   8 O8             1.0268     2.0926     0.0035 O.2     
   9 N9            -1.1941     2.1282     0.0193 N.am    
  10 S10           -1.2166     3.7840     0.0284 S.o2    
  11 O11           -2.5980     4.1156     0.0625 O.2     
  12 O12           -0.3511     4.1404     1.0975 O.2     
  13 C13           -0.4880     4.2554    -1.5646 C.3     
  14 O14            0.0593    -4.1351    -0.0202 O.3     
  15 F15           -2.3335    -2.7937     0.0090 F       
  16 F16            2.3850    -0.0015    -0.0216 F       
  17 H17            2.1766    -2.6002    -0.0322 H       
  18 H18           -2.1416    -0.1970     0.0315 H       
  19 H19           -2.0275     1.6319     0.0205 H       
  20 H20           -1.0900     3.8447    -2.3752 H       
  21 H21           -0.4628     5.3421    -1.6453 H       
  22 H22            0.5266     3.8625    -1.6305 H       
  23 H23            0.0729    -4.5331     0.8610 H       
@<TRIPOS>BOND
   1    1    2 1
   2    1    8 2
   3    1    9 am
   4    2    3 ar
   5    2    7 ar
   6    3    4 ar
   7    3   16 1
   8    4    5 ar
   9    4   17 1
  10    5    6 ar
  11    5   14 1
  12    6    7 ar
  13    6   15 1
  14    7   18 1
  15    9   10 am
  16    9   19 1
  17   10   11 2
  18   10   12 2
  19   10   13 1
  20   13   20 1
  21   13   21 1
  22   13   22 1
  23   14   23 1

#	End of record

