#	Name: ASD10458003
#	Creating user name:	WinNT
#	Creation time:	15. 06. 2019 21:27

#	Modifying user name:	WinNT
#	Modification time:	15. 06. 2019 21:27

#	Program:	/corina/corina34_cracker 3.40 0067  02.08.2006

@<TRIPOS>MOLECULE
ASD10458003
  75   78    0    0    0
SMALL
NO_CHARGES


@<TRIPOS>ATOM
   1 C1             0.2089     1.9270    -0.0607 C.3     
   2 C2             1.6948     2.1868     0.0790 C.3     
   3 C3             2.2945     3.5514    -0.3201 C.3     
   4 C4             1.6742     4.8694    -0.9035 C.3     
   5 C5             0.9998     5.5812     0.3661 C.3     
   6 C6            -0.6419     5.6148     0.2811 C.3     
   7 C7            -0.9034     4.0104     0.1934 C.3     
   8 C8            -0.4420     1.5598    -1.3256 C.3     
   9 C9            -0.7490     2.8498    -2.0499 C.2     
  10 C10           -0.9164     3.8324    -1.2271 C.2     
  11 C11           -2.3072     3.4537     0.6000 C.3     
  12 C12           -1.9685     2.1525     1.2969 C.2     
  13 C13           -0.2029     3.6159     1.5135 C.3     
  14 C14           -0.4410     2.1041     1.3414 C.3     
  15 C15           -1.2057     6.2906     1.5172 C.3     
  16 O16            2.0980     1.9143     1.4586 O.3     
  17 C17            3.0082     5.7400    -1.0514 C.3     
  18 C18            1.1743     4.9151    -2.2602 C.2     
  19 C19            1.2363     3.8479    -3.0174 C.2     
  20 O20            1.4112     6.9771     0.3460 O.3     
  21 C21            3.3554     1.4862     1.6527 C.2     
  22 C22            3.8420     1.1851     3.0468 C.3     
  23 O23            4.0969     1.3423     0.7097 O.2     
  24 S24            5.5682     0.6318     2.9783 S.3     
  25 C25            5.9673     0.3234     4.7208 C.3     
  26 O26           -2.7318     1.3312     1.7245 O.2     
  27 O27           -3.0344     4.3078     1.4624 O.3     
  28 C28            0.4483     0.6619    -2.1802 C.3     
  29 C29            0.4827     0.4299     0.2706 C.3     
  30 C30            7.3723    -0.2764     4.8255 C.3     
  31 C31            7.7271    -0.4777     6.3005 C.3     
  32 N32            7.6730     0.8130     6.9988 N.3     
  33 C33            6.3217     1.3858     6.9523 C.3     
  34 C34            5.9249     1.6427     5.4967 C.3     
  35 H35            2.2364     1.4340    -0.5288 H       
  36 H36            2.8286     3.8903     0.5704 H       
  37 H37            3.0891     3.3070    -1.0285 H       
  38 H38            1.3374     5.1976     1.3106 H       
  39 H39           -0.9507     6.0958    -0.6429 H       
  40 H40           -1.3772     1.0298    -1.1068 H       
  41 H41           -0.8344     2.9538    -3.1062 H       
  42 H42           -1.2683     4.7051    -1.7685 H       
  43 H43           -2.8757     3.2466    -0.3112 H       
  44 H44            0.8552     3.7892     1.5247 H       
  45 H45           -0.7279     3.9789     2.3864 H       
  46 H46           -0.0385     1.4723     2.1063 H       
  47 H47           -0.8267     7.3107     1.5784 H       
  48 H48           -2.2938     6.3104     1.4561 H       
  49 H49           -0.9017     5.7362     2.4051 H       
  50 H50            3.6998     5.2337    -1.7248 H       
  51 H51            2.7590     6.7208    -1.4565 H       
  52 H52            3.4748     5.8588    -0.0735 H       
  53 H53            0.7499     5.8290    -2.6488 H       
  54 H54            0.8631     3.8820    -4.0303 H       
  55 H55            1.6607     2.9340    -2.6288 H       
  56 H56            2.3683     7.1059     0.3961 H       
  57 H57            3.7730     2.0850     3.6580 H       
  58 H58            3.2259     0.4000     3.4851 H       
  59 H59            5.2420    -0.3721     5.1430 H       
  60 H60           -3.9027     3.9652     1.7149 H       
  61 H61            0.4812    -0.3370    -1.7452 H       
  62 H62            0.0437     0.6050    -3.1907 H       
  63 H63            1.4558     1.0764    -2.2149 H       
  64 H64            0.7933     0.3390     1.3115 H       
  65 H65           -0.4264    -0.1498     0.1108 H       
  66 H66            1.2729     0.0527    -0.3786 H       
  67 H67            7.3973    -1.2369     4.3109 H       
  68 H68            8.0924     0.4015     4.3672 H       
  69 H69            7.0147    -1.1664     6.7547 H       
  70 H70            8.7325    -0.8913     6.3791 H       
  71 H71            7.9949     0.7229     7.9508 H       
  72 H72            5.6159     0.6883     7.4034 H       
  73 H73            6.3063     2.3256     7.5042 H       
  74 H74            6.6223     2.3508     5.0490 H       
  75 H75            4.9158     2.0533     5.4616 H       
@<TRIPOS>BOND
   1    1   29 1
   2    1    2 1
   3    1    8 1
   4    1   14 1
   5    2    3 1
   6    2   16 1
   7    2   35 1
   8    3    4 1
   9    3   36 1
  10    3   37 1
  11    4   17 1
  12    4   18 1
  13    4    5 1
  14    5    6 1
  15    5   20 1
  16    5   38 1
  17    6    7 1
  18    6   15 1
  19    6   39 1
  20    7   10 1
  21    7   13 1
  22    7   11 1
  23    8    9 1
  24    8   28 1
  25    8   40 1
  26    9   10 2
  27    9   41 1
  28   10   42 1
  29   11   12 1
  30   11   27 1
  31   11   43 1
  32   12   14 1
  33   12   26 2
  34   13   14 1
  35   13   44 1
  36   13   45 1
  37   14   46 1
  38   15   47 1
  39   15   48 1
  40   15   49 1
  41   16   21 1
  42   17   50 1
  43   17   51 1
  44   17   52 1
  45   18   19 2
  46   18   53 1
  47   19   54 1
  48   19   55 1
  49   20   56 1
  50   21   22 1
  51   21   23 2
  52   22   24 1
  53   22   57 1
  54   22   58 1
  55   24   25 1
  56   25   30 1
  57   25   34 1
  58   25   59 1
  59   27   60 1
  60   28   61 1
  61   28   62 1
  62   28   63 1
  63   29   64 1
  64   29   65 1
  65   29   66 1
  66   30   31 1
  67   30   67 1
  68   30   68 1
  69   31   32 1
  70   31   69 1
  71   31   70 1
  72   32   33 1
  73   32   71 1
  74   33   34 1
  75   33   72 1
  76   33   73 1
  77   34   74 1
  78   34   75 1

#	End of record

