#	Name: ASD10610128
#	Creating user name:	WinNT
#	Creation time:	15. 06. 2019 21:28

#	Modifying user name:	WinNT
#	Modification time:	15. 06. 2019 21:28

#	Program:	/corina/corina34_cracker 3.40 0067  02.08.2006

@<TRIPOS>MOLECULE
ASD10610128
  24   25    0    0    0
SMALL
NO_CHARGES


@<TRIPOS>ATOM
   1 C1            -0.0186     1.5231     0.0104 C.3     
   2 C2             0.0021    -0.0041     0.0020 C.3     
   3 C3             0.9335    -0.4809     1.1227 C.3     
   4 C4             2.3701    -0.1389     0.7330 C.3     
   5 C5             2.4805     1.3098     0.3354 C.ar    
   6 C6             3.7473     1.8790     0.3115 C.ar    
   7 C7             3.9157     3.2007    -0.0486 C.ar    
   8 C8             2.8139     3.9652    -0.3891 C.ar    
   9 C9             1.5555     3.4016    -0.3641 C.ar    
  10 C10            1.3842     2.0719    -0.0000 C.ar    
  11 N11           -0.7359     2.0044    -1.1778 N.3     
  12 Br12           5.6456     3.9640    -0.0759 Br      
  13 H13           -0.5339     1.8707     0.9059 H       
  14 H14           -1.0043    -0.3859     0.1737 H       
  15 H15            0.3717    -0.3610    -0.9593 H       
  16 H16            0.6757     0.0236     2.0539 H       
  17 H17            0.8341    -1.5590     1.2489 H       
  18 H18            3.0278    -0.3300     1.5809 H       
  19 H19            2.6741    -0.7658    -0.1053 H       
  20 H20            4.6076     1.2826     0.5773 H       
  21 H21            2.9389     4.9997    -0.6731 H       
  22 H22            0.6959     3.9990    -0.6298 H       
  23 H23           -0.7654     3.0127    -1.1986 H       
  24 H24           -0.3238     1.6371    -2.0224 H       
@<TRIPOS>BOND
   1    1    2 1
   2    1   10 1
   3    1   11 1
   4    1   13 1
   5    2    3 1
   6    2   14 1
   7    2   15 1
   8    3    4 1
   9    3   16 1
  10    3   17 1
  11    4    5 1
  12    4   18 1
  13    4   19 1
  14    5    6 ar
  15    5   10 ar
  16    6    7 ar
  17    6   20 1
  18    7    8 ar
  19    7   12 1
  20    8    9 ar
  21    8   21 1
  22    9   10 ar
  23    9   22 1
  24   11   23 1
  25   11   24 1

#	End of record

