#	Name: ASD10160217
#	Creating user name:	WinNT
#	Creation time:	15. 06. 2019 21:25

#	Modifying user name:	WinNT
#	Modification time:	15. 06. 2019 21:25

#	Program:	/corina/corina34_cracker 3.40 0067  02.08.2006

@<TRIPOS>MOLECULE
ASD10160217
  38   39    0    0    0
SMALL
NO_CHARGES


@<TRIPOS>ATOM
   1 C1            -0.3998     1.1098    -1.9477 C.2     
   2 C2            -0.2792    -0.2696    -1.4408 C.ar    
   3 C3             0.9047    -0.9896    -1.6395 C.ar    
   4 C4             1.0127    -2.2807    -1.1630 C.ar    
   5 C5            -0.0508    -2.8648    -0.4883 C.ar    
   6 C6            -1.2302    -2.1519    -0.2886 C.ar    
   7 C7            -1.3450    -0.8604    -0.7552 C.ar    
   8 O8             0.5301     1.6236    -2.5394 O.2     
   9 N9            -1.5426     1.7991    -1.7601 N.am    
  10 S10           -1.6780     3.3483    -2.3294 S.o2    
  11 O11           -2.9807     3.7547    -1.9330 O.2     
  12 O12           -0.5217     4.0071    -1.8312 O.2     
  13 C13           -1.5858     3.1774    -4.1330 C.3     
  14 F14           -2.2618    -2.7256     0.3687 F       
  15 F15            1.9397    -0.4220    -2.2967 F       
  16 O16            0.0593    -4.1350    -0.0222 O.3     
  17 C17            1.5495    -5.5226    -1.2628 C.ar    
  18 C18            1.2618    -4.7565    -0.1420 C.ar    
  19 C19            2.2223    -4.6336     0.8569 C.ar    
  20 C20            3.4335    -5.2856     0.6896 C.ar    
  21 C21            3.6464    -6.0307    -0.4550 C.ar    
  22 N22            2.7147    -6.1269    -1.3833 N.ar    
  23 C23            4.9612    -6.7423    -0.6448 C.3     
  24 C24            4.7044    -8.2293    -0.8975 C.3     
  25 H25            1.9256    -2.8372    -1.3157 H       
  26 H26           -2.2586    -0.3070    -0.5957 H       
  27 H27           -2.2858     1.3879    -1.2917 H       
  28 H28           -2.4018     2.5435    -4.4801 H       
  29 H29           -1.6676     4.1609    -4.5958 H       
  30 H30           -0.6327     2.7251    -4.4069 H       
  31 H31            0.8095    -5.6284    -2.0422 H       
  32 H32            2.0287    -4.0443     1.7410 H       
  33 H33            4.2024    -5.2121     1.4444 H       
  34 H34            5.4862    -6.3140    -1.4986 H       
  35 H35            5.5700    -6.6260     0.2518 H       
  36 H36            4.1794    -8.6576    -0.0436 H       
  37 H37            4.0955    -8.3456    -1.7940 H       
  38 H38            5.6553    -8.7440    -1.0348 H       
@<TRIPOS>BOND
   1    1    2 1
   2    1    8 2
   3    1    9 am
   4    2    3 ar
   5    2    7 ar
   6    3    4 ar
   7    3   15 1
   8    4    5 ar
   9    4   25 1
  10    5    6 ar
  11    5   16 1
  12    6    7 ar
  13    6   14 1
  14    7   26 1
  15    9   10 am
  16    9   27 1
  17   10   11 2
  18   10   12 2
  19   10   13 1
  20   13   28 1
  21   13   29 1
  22   13   30 1
  23   16   18 1
  24   17   18 ar
  25   17   22 ar
  26   17   31 1
  27   18   19 ar
  28   19   20 ar
  29   19   32 1
  30   20   21 ar
  31   20   33 1
  32   21   22 ar
  33   21   23 1
  34   23   24 1
  35   23   34 1
  36   23   35 1
  37   24   36 1
  38   24   37 1
  39   24   38 1

#	End of record

