#	Name: ASD13110003
#	Creating user name:	WinNT
#	Creation time:	15. 06. 2019 21:30

#	Modifying user name:	WinNT
#	Modification time:	15. 06. 2019 21:30

#	Program:	/corina/corina34_cracker 3.40 0067  02.08.2006

@<TRIPOS>MOLECULE
ASD13110003
  56   58    0    0    0
SMALL
NO_CHARGES


@<TRIPOS>ATOM
   1 C1            -0.8714     2.6963     0.8690 C.3     
   2 C2            -0.4365     1.2534     0.8605 C.2     
   3 O3             0.7324     0.9715     1.0186 O.2     
   4 Cl4            0.5826     3.6115    -1.6047 Cl      
   5 C5             1.0534     4.0471     0.0085 C.ar    
   6 C6             0.3281     3.5812     1.0904 C.ar    
   7 N7            -1.3465     0.2763     0.6772 N.am    
   8 C8            -0.9456    -1.1379     0.5926 C.3     
   9 C9            -1.5557    -1.8709     1.7863 C.3     
  10 C10           -3.0123    -1.5214     1.9427 C.ar    
  11 C11           -3.5745    -0.3947     1.3850 C.ar    
  12 C12           -2.7772     0.5782     0.5599 C.3     
  13 C13            0.7042     3.9283     2.3755 C.ar    
  14 C14            2.1575     4.8556     0.2126 C.ar    
  15 C15            2.5327     5.2021     1.4969 C.ar    
  16 C16            1.8053     4.7412     2.5781 C.ar    
  17 C17           -3.8055    -2.3853     2.6875 C.ar    
  18 C18           -5.1459    -2.1197     2.8774 C.ar    
  19 C19           -5.7070    -0.9845     2.3234 C.ar    
  20 C20           -4.9216    -0.1246     1.5821 C.ar    
  21 C21           -3.1965    -3.6236     3.2930 C.3     
  22 C22           -2.8357    -3.3521     4.7549 C.3     
  23 C23           -2.1703    -4.5923     5.3548 C.3     
  24 C24           -1.8696    -2.1681     4.8303 C.3     
  25 O25           -4.0226    -3.0459     5.4894 O.3     
  26 C26            0.5797    -1.2474     0.6424 C.3     
  27 C27           -3.2031     0.4649    -0.9053 C.3     
  28 O28            1.0425    -0.8670     1.9398 O.3     
  29 Cl29          -0.2057     3.3446     3.7339 Cl      
  30 H30           -1.3329     2.9423    -0.0874 H       
  31 H31           -1.5922     2.8538     1.6714 H       
  32 H32           -1.3171    -1.5717    -0.3357 H       
  33 H33           -1.4594    -2.9459     1.6343 H       
  34 H34           -1.0200    -1.5883     2.6925 H       
  35 H35           -2.9643     1.5919     0.9141 H       
  36 H36            2.7264     5.2158    -0.6318 H       
  37 H37            3.3945     5.8333     1.6558 H       
  38 H38            2.0990     5.0123     3.5815 H       
  39 H39           -5.7552    -2.7973     3.4570 H       
  40 H40           -6.7550    -0.7698     2.4717 H       
  41 H41           -5.3599     0.7622     1.1486 H       
  42 H42           -3.9131    -4.4433     3.2419 H       
  43 H43           -2.2963    -3.8931     2.7407 H       
  44 H44           -1.2650    -4.8259     4.7945 H       
  45 H45           -1.9133    -4.3989     6.3963 H       
  46 H46           -2.8586    -5.4358     5.3011 H       
  47 H47           -2.3746    -1.2647     4.4885 H       
  48 H48           -1.5405    -2.0328     5.8606 H       
  49 H49           -1.0053    -2.3634     4.1955 H       
  50 H50           -3.8689    -2.8622     6.4263 H       
  51 H51            0.8770    -2.2759     0.4377 H       
  52 H52            1.0160    -0.5871    -0.1070 H       
  53 H53           -3.0148    -0.5480    -1.2611 H       
  54 H54           -4.2662     0.6891    -0.9930 H       
  55 H55           -2.6317     1.1729    -1.5055 H       
  56 H56            2.0028    -0.9125     2.0438 H       
@<TRIPOS>BOND
   1    1    2 1
   2    1    6 1
   3    1   30 1
   4    1   31 1
   5    2    3 2
   6    2    7 am
   7    4    5 1
   8    5   14 ar
   9    5    6 ar
  10    6   13 ar
  11    7    8 1
  12    7   12 1
  13    8    9 1
  14    8   26 1
  15    8   32 1
  16    9   10 1
  17    9   33 1
  18    9   34 1
  19   10   11 ar
  20   10   17 ar
  21   11   12 1
  22   11   20 ar
  23   12   27 1
  24   12   35 1
  25   13   16 ar
  26   13   29 1
  27   14   15 ar
  28   14   36 1
  29   15   16 ar
  30   15   37 1
  31   16   38 1
  32   17   18 ar
  33   17   21 1
  34   18   19 ar
  35   18   39 1
  36   19   20 ar
  37   19   40 1
  38   20   41 1
  39   21   22 1
  40   21   42 1
  41   21   43 1
  42   22   23 1
  43   22   24 1
  44   22   25 1
  45   23   44 1
  46   23   45 1
  47   23   46 1
  48   24   47 1
  49   24   48 1
  50   24   49 1
  51   25   50 1
  52   26   28 1
  53   26   51 1
  54   26   52 1
  55   27   53 1
  56   27   54 1
  57   27   55 1
  58   28   56 1

#	End of record

