#	Name: ASD14740007
#	Creating user name:	WinNT
#	Creation time:	15. 06. 2019 21:31

#	Modifying user name:	WinNT
#	Modification time:	15. 06. 2019 21:31

#	Program:	/corina/corina34_cracker 3.40 0067  02.08.2006

@<TRIPOS>MOLECULE
ASD14740007
  78   83    0    0    0
SMALL
NO_CHARGES


@<TRIPOS>ATOM
   1 C1            -4.8687     8.6513    11.7810 C.ar    
   2 C2            -5.4671     8.6402    13.0388 C.ar    
   3 C3            -4.9177     7.8809    14.0583 C.ar    
   4 C4            -3.7718     7.1324    13.8248 C.ar    
   5 C5            -3.1768     7.1455    12.5700 C.ar    
   6 C6            -3.7241     7.9023    11.5517 C.ar    
   7 N7            -3.2160     6.3648    14.8543 N.3     
   8 C8            -2.0141     5.6562    14.3930 C.3     
   9 C9            -1.3929     4.8938    15.5658 C.3     
  10 N10           -2.3795     3.9513    16.1115 N.3     
  11 C11           -3.5815     4.6598    16.5728 C.3     
  12 C12           -4.2026     5.4223    15.4000 C.3     
  13 C13           -1.7961     3.1455    17.1923 C.3     
  14 N14           -5.4269     9.4155    10.7447 N.pl3   
  15 C15           -5.2148     9.0529     9.4256 C.ar    
  16 C16           -4.3376     7.5473     7.9119 C.ar    
  17 N17           -4.5747     7.9235     9.1596 N.ar    
  18 N18           -5.6617     9.8416     8.4565 N.ar    
  19 C19           -5.4702     9.5154     7.1902 C.ar    
  20 C20           -4.7697     8.3517     6.8732 C.ar    
  21 C21           -4.4585     7.9868     5.4493 C.3     
  22 C22           -6.0018     9.8279     4.8654 C.2     
  23 C23           -5.5776     8.4269     4.5027 C.3     
  24 N24           -5.9579    10.3008     6.1451 N.pl3   
  25 C25           -6.4233    11.5789     6.1788 C.2     
  26 C26           -6.7694    11.9499     4.9318 C.2     
  27 C27           -6.4967    10.7984     4.0598 C.2     
  28 C28           -6.7258    10.7112     2.6076 C.2     
  29 O29           -6.4621     9.6844     2.0109 O.2     
  30 N30           -7.2275    11.7689     1.9398 N.am    
  31 O31           -6.5890     9.3744    13.2655 O.3     
  32 C32           -7.1486     9.3154    14.5790 C.3     
  33 C33           -7.3812    11.7101     0.5420 C.2     
  34 C34           -6.3563    11.8327    -0.4075 C.2     
  35 C35           -8.5471    11.5189    -0.1267 C.2     
  36 N36           -8.2636    11.5267    -1.4551 N.pl3   
  37 N37           -6.8845    11.7249    -1.5996 N.2     
  38 C38           -4.8961    12.0518    -0.1062 C.3     
  39 C39           -4.1200    12.1908    -1.4174 C.3     
  40 C40           -9.9082    11.3312     0.4923 C.3     
  41 C41          -10.5305    12.6989     0.7802 C.3     
  42 H42           -5.3799     7.8712    15.0343 H       
  43 H43           -2.2852     6.5633    12.3899 H       
  44 H44           -3.2601     7.9108    10.5765 H       
  45 H45           -2.2861     4.9534    13.6055 H       
  46 H46           -1.2937     6.3765    14.0051 H       
  47 H47           -0.5177     4.3442    15.2194 H       
  48 H48           -1.0961     5.5993    16.3418 H       
  49 H49           -4.3018     3.9396    16.9607 H       
  50 H50           -3.3095     5.3627    17.3603 H       
  51 H51           -5.0779     5.9719    15.7464 H       
  52 H52           -4.4995     4.7167    14.6240 H       
  53 H53           -1.4596     3.8025    17.9943 H       
  54 H54           -2.5475     2.4565    17.5781 H       
  55 H55           -0.9482     2.5795    16.8065 H       
  56 H56           -5.9615    10.1978    10.9527 H       
  57 H57           -3.8137     6.6250     7.7086 H       
  58 H58           -3.5287     8.4718     5.1520 H       
  59 H59           -4.3347     6.9062     5.3771 H       
  60 H60           -5.2143     8.4100     3.4752 H       
  61 H61           -6.4270     7.7510     4.6024 H       
  62 H62           -6.5026    12.1952     7.0620 H       
  63 H63           -7.1699    12.9067     4.6309 H       
  64 H64           -7.4826    12.5707     2.4225 H       
  65 H65           -8.0374     9.9447    14.6240 H       
  66 H66           -7.4202     8.2859    14.8123 H       
  67 H67           -6.4150     9.6705    15.3028 H       
  68 H68           -8.9025    11.4124    -2.1759 H       
  69 H69           -4.7792    12.9612     0.4833 H       
  70 H70           -4.5096    11.2020     0.4564 H       
  71 H71           -4.2838    11.3057    -2.0321 H       
  72 H72           -4.4669    13.0744    -1.9531 H       
  73 H73           -3.0564    12.2913    -1.2012 H       
  74 H74          -10.5475    10.7788    -0.1965 H       
  75 H75           -9.8101    10.7733     1.4235 H       
  76 H76          -11.5150    12.5631     1.2279 H       
  77 H77           -9.8913    13.2512     1.4689 H       
  78 H78          -10.6287    13.2567    -0.1511 H       
@<TRIPOS>BOND
   1    1    2 ar
   2    1    6 ar
   3    1   14 1
   4    2    3 ar
   5    2   31 1
   6    3    4 ar
   7    3   42 1
   8    4    5 ar
   9    4    7 1
  10    5    6 ar
  11    5   43 1
  12    6   44 1
  13    7    8 1
  14    7   12 1
  15    8    9 1
  16    8   45 1
  17    8   46 1
  18    9   10 1
  19    9   47 1
  20    9   48 1
  21   10   11 1
  22   10   13 1
  23   11   12 1
  24   11   49 1
  25   11   50 1
  26   12   51 1
  27   12   52 1
  28   13   53 1
  29   13   54 1
  30   13   55 1
  31   14   15 1
  32   14   56 1
  33   15   18 ar
  34   15   17 ar
  35   16   17 ar
  36   16   20 ar
  37   16   57 1
  38   18   19 ar
  39   19   20 ar
  40   19   24 1
  41   20   21 1
  42   21   23 1
  43   21   58 1
  44   21   59 1
  45   22   23 1
  46   22   27 2
  47   22   24 1
  48   23   60 1
  49   23   61 1
  50   24   25 1
  51   25   26 2
  52   25   62 1
  53   26   27 1
  54   26   63 1
  55   27   28 1
  56   28   29 2
  57   28   30 am
  58   30   33 1
  59   30   64 1
  60   31   32 1
  61   32   65 1
  62   32   66 1
  63   32   67 1
  64   33   35 2
  65   33   34 1
  66   34   37 2
  67   34   38 1
  68   35   36 1
  69   35   40 1
  70   36   37 1
  71   36   68 1
  72   38   39 1
  73   38   69 1
  74   38   70 1
  75   39   71 1
  76   39   72 1
  77   39   73 1
  78   40   41 1
  79   40   74 1
  80   40   75 1
  81   41   76 1
  82   41   77 1
  83   41   78 1

#	End of record

