#	Name: ASD10410257
#	Creating user name:	WinNT
#	Creation time:	15. 06. 2019 21:27

#	Modifying user name:	WinNT
#	Modification time:	15. 06. 2019 21:27

#	Program:	/corina/corina34_cracker 3.40 0067  02.08.2006

@<TRIPOS>MOLECULE
ASD10410257
  54   58    0    0    0
SMALL
NO_CHARGES


@<TRIPOS>ATOM
   1 C1            -0.0348     1.4306    -0.0327 C.ar    
   2 C2            -0.0295     0.0461     0.0764 C.ar    
   3 C3             1.1754    -0.6391     0.1619 C.ar    
   4 C4             2.3681     0.0561     0.1384 C.ar    
   5 C5             2.3628     1.4406     0.0293 C.ar    
   6 C6             1.1579     2.1258    -0.0563 C.ar    
   7 N7             3.5725     2.1457     0.0059 N.pl3   
   8 C8             3.6649     3.3380    -0.6900 C.2     
   9 N9             4.7479     4.1695    -0.7078 N.pl3   
  10 N10            2.7287     3.8575    -1.4487 N.2     
  11 C11            3.1644     5.0210    -1.9672 C.2     
  12 C12            4.4192     5.2406    -1.5226 C.2     
  13 N13            2.4389     5.8599    -2.8263 N.pl3   
  14 N14           -1.2385    -0.6585     0.1007 N.3     
  15 C15           -1.0031    -2.1042     0.2206 C.3     
  16 C16           -2.3465    -2.8302     0.3237 C.3     
  17 N17           -3.1561    -2.5281    -0.8650 N.3     
  18 C18           -3.3915    -1.0825    -0.9849 C.3     
  19 C19           -2.0481    -0.3565    -1.0880 C.3     
  20 C20           -4.4251    -3.2677    -0.8395 C.3     
  21 C21            5.9483     3.9785    -0.0370 C.ar    
  22 N22            5.9661     3.6689     1.2510 N.ar    
  23 C23            7.1850     4.1034    -0.7116 C.ar    
  24 C24            8.3754     3.8963     0.0289 C.ar    
  25 N25            8.2791     3.5923     1.3308 N.ar    
  26 C26            7.1033     3.4841     1.9026 C.ar    
  27 C27            7.2618     4.4213    -2.0728 C.ar    
  28 C28            8.4841     4.5279    -2.6698 C.ar    
  29 C29            9.6555     4.3246    -1.9428 C.ar    
  30 C30            9.6143     4.0139    -0.6167 C.ar    
  31 Cl31           8.5813     4.9216    -4.3578 Cl      
  32 H32           -0.9717     1.9631    -0.1037 H       
  33 H33            1.1795    -1.7157     0.2472 H       
  34 H34            3.3051    -0.4768     0.2053 H       
  35 H35            1.1538     3.2024    -0.1415 H       
  36 H36            4.3456     1.7983     0.4775 H       
  37 H37            5.0463     6.0883    -1.7565 H       
  38 H38            1.5391     5.6174    -3.0953 H       
  39 H39            2.8372     6.6825    -3.1513 H       
  40 H40           -0.4645    -2.4590    -0.6580 H       
  41 H41           -0.4125    -2.3035     1.1147 H       
  42 H42           -2.1754    -3.9050     0.3836 H       
  43 H43           -2.8733    -2.4952     1.2172 H       
  44 H44           -3.9821    -0.8831    -1.8790 H       
  45 H45           -3.9301    -0.7276    -0.1062 H       
  46 H46           -2.2192     0.7184    -1.1478 H       
  47 H47           -1.5213    -0.6915    -1.9815 H       
  48 H48           -4.9910    -2.9879     0.0491 H       
  49 H49           -5.0046    -3.0258    -1.7304 H       
  50 H50           -4.2213    -4.3383    -0.8183 H       
  51 H51            7.0615     3.2383     2.9534 H       
  52 H52            6.3604     4.5807    -2.6460 H       
  53 H53           10.6110     4.4144    -2.4383 H       
  54 H54           10.5306     3.8595    -0.0661 H       
@<TRIPOS>BOND
   1    1    2 ar
   2    1    6 ar
   3    1   32 1
   4    2    3 ar
   5    2   14 1
   6    3    4 ar
   7    3   33 1
   8    4    5 ar
   9    4   34 1
  10    5    6 ar
  11    5    7 1
  12    6   35 1
  13    7    8 1
  14    7   36 1
  15    8    9 1
  16    8   10 2
  17    9   21 1
  18    9   12 1
  19   10   11 1
  20   11   12 2
  21   11   13 1
  22   12   37 1
  23   13   38 1
  24   13   39 1
  25   14   15 1
  26   14   19 1
  27   15   16 1
  28   15   40 1
  29   15   41 1
  30   16   17 1
  31   16   42 1
  32   16   43 1
  33   17   18 1
  34   17   20 1
  35   18   19 1
  36   18   44 1
  37   18   45 1
  38   19   46 1
  39   19   47 1
  40   20   48 1
  41   20   49 1
  42   20   50 1
  43   21   22 ar
  44   21   23 ar
  45   22   26 ar
  46   23   24 ar
  47   23   27 ar
  48   24   25 ar
  49   24   30 ar
  50   25   26 ar
  51   26   51 1
  52   27   28 ar
  53   27   52 1
  54   28   29 ar
  55   28   31 1
  56   29   30 ar
  57   29   53 1
  58   30   54 1

#	End of record

