#	Name: ASD11740015
#	Creating user name:	WinNT
#	Creation time:	15. 06. 2019 21:29

#	Modifying user name:	WinNT
#	Modification time:	15. 06. 2019 21:29

#	Program:	/corina/corina34_cracker 3.40 0067  02.08.2006

@<TRIPOS>MOLECULE
ASD11740015
  45   47    0    0    0
SMALL
NO_CHARGES


@<TRIPOS>ATOM
   1 C1             0.0824     1.0757    -0.0346 C.ar    
   2 C2             0.3839    -0.2706    -0.0409 C.ar    
   3 C3             1.6977    -0.6962     0.0773 C.ar    
   4 C4             2.7179     0.2208     0.2024 C.ar    
   5 C5             2.4293     1.5881     0.2100 C.ar    
   6 C6             1.0979     2.0159     0.0901 C.ar    
   7 N7             0.7971     3.3717     0.0957 N.am    
   8 S8            -0.5925     3.9086     0.8192 S.o2    
   9 O9            -0.5371     5.3282     0.7906 O.2     
  10 O10           -1.6571     3.1607     0.2478 O.2     
  11 C11            3.5161     2.5749     0.3440 C.2     
  12 N12            4.7930     2.1594     0.4597 N.am    
  13 O13            3.2606     3.7639     0.3501 O.2     
  14 C14            5.8335     3.0963     0.4990 C.ar    
  15 C15            7.0687     2.7953    -0.0770 C.ar    
  16 C16            8.0947     3.7282    -0.0347 C.ar    
  17 C17            7.8916     4.9514     0.5766 C.ar    
  18 C18            6.6681     5.2491     1.1475 C.ar    
  19 C19            5.6378     4.3276     1.1052 C.ar    
  20 S20            7.3244     1.2351    -0.8549 S.3     
  21 C21            9.0429     1.3405    -1.4258 C.3     
  22 C22           -0.5110     3.4415     2.5162 C.ar    
  23 C23            0.0574     4.2965     3.4418 C.ar    
  24 C24            0.1213     3.9301     4.7732 C.ar    
  25 C25           -0.3836     2.7088     5.1790 C.ar    
  26 C26           -0.9528     1.8543     4.2534 C.ar    
  27 C27           -1.0206     2.2226     2.9228 C.ar    
  28 H28           -0.9435     1.3992    -0.1313 H       
  29 H29           -0.4089    -0.9975    -0.1381 H       
  30 H30            1.9227    -1.7525     0.0716 H       
  31 H31            3.7397    -0.1165     0.2948 H       
  32 H32            1.4009     4.0042    -0.3241 H       
  33 H33            4.9915     1.2116     0.5157 H       
  34 H34            9.0519     3.4988    -0.4790 H       
  35 H35            8.6913     5.6766     0.6087 H       
  36 H36            6.5150     6.2061     1.6241 H       
  37 H37            4.6835     4.5637     1.5522 H       
  38 H38            9.1451     2.1758    -2.1186 H       
  39 H39            9.7010     1.4952    -0.5707 H       
  40 H40            9.3154     0.4140    -1.9311 H       
  41 H41            0.4518     5.2506     3.1248 H       
  42 H42            0.5660     4.5977     5.4963 H       
  43 H43           -0.3330     2.4222     6.2190 H       
  44 H44           -1.3469     0.9000     4.5704 H       
  45 H45           -1.4687     1.5565     2.2003 H       
@<TRIPOS>BOND
   1    1    2 ar
   2    1    6 ar
   3    1   28 1
   4    2    3 ar
   5    2   29 1
   6    3    4 ar
   7    3   30 1
   8    4    5 ar
   9    4   31 1
  10    5    6 ar
  11    5   11 1
  12    6    7 1
  13    7    8 am
  14    7   32 1
  15    8    9 2
  16    8   10 2
  17    8   22 1
  18   11   12 am
  19   11   13 2
  20   12   14 1
  21   12   33 1
  22   14   15 ar
  23   14   19 ar
  24   15   16 ar
  25   15   20 1
  26   16   17 ar
  27   16   34 1
  28   17   18 ar
  29   17   35 1
  30   18   19 ar
  31   18   36 1
  32   19   37 1
  33   20   21 1
  34   21   38 1
  35   21   39 1
  36   21   40 1
  37   22   23 ar
  38   22   27 ar
  39   23   24 ar
  40   23   41 1
  41   24   25 ar
  42   24   42 1
  43   25   26 ar
  44   25   43 1
  45   26   27 ar
  46   26   44 1
  47   27   45 1

#	End of record

