#	Name: ASD13640001
#	Creating user name:	WinNT
#	Creation time:	15. 06. 2019 21:30

#	Modifying user name:	WinNT
#	Modification time:	15. 06. 2019 21:30

#	Program:	/corina/corina34_cracker 3.40 0067  02.08.2006

@<TRIPOS>MOLECULE
ASD13640001
 159  159    0    0    0
SMALL
NO_CHARGES


@<TRIPOS>ATOM
   1 C1            -8.3081    -2.4297     2.6292 C.3     
   2 C2            -7.5525    -3.5097     1.8522 C.3     
   3 C3            -6.0561    -3.4007     2.1517 C.3     
   4 C4            -5.8208    -3.5924     3.6513 C.3     
   5 C5            -6.5763    -2.5124     4.4282 C.3     
   6 C6            -8.0728    -2.6214     4.1288 C.3     
   7 O7            -8.0247    -4.7992     2.2475 O.3     
   8 O8            -8.7784    -1.6126     4.8544 O.3     
   9 O9            -7.8359    -1.1402     2.2339 O.3     
  10 O10           -5.3504    -4.4094     1.4260 O.3     
  11 O11           -6.3565    -2.6913     5.8288 O.3     
  12 O12           -6.2929    -4.8819     4.0466 O.3     
  13 P13           -4.2084    -4.0730     0.3422 P.3     
  14 P14           -5.3397    -6.0019     4.7015 P.3     
  15 P15           -5.5626    -1.6236     6.7353 P.3     
  16 O16           -4.6625    -5.4391     5.8911 O.2     
  17 O17           -6.2267    -7.2721     5.1396 O.3     
  18 O18           -4.2361    -6.4640     3.6242 O.3     
  19 O19           -5.6624    -2.0545     8.2834 O.3     
  20 O20           -4.0166    -1.5841     6.2879 O.3     
  21 O21           -6.1623    -0.2824     6.5569 O.2     
  22 O22           -2.9564    -3.3794     1.0794 O.3     
  23 O23           -3.7256    -5.4345    -0.3688 O.3     
  24 O24           -4.7533    -3.1499    -0.6783 O.2     
  25 P25           -8.8132     0.0329     1.7232 P.3     
  26 O26           -9.7473    -0.5253     0.5366 O.3     
  27 O27           -9.6624     0.4910     2.8454 O.2     
  28 O28           -7.9328     1.2658     1.1784 O.3     
  29 C29           -8.5055     2.5071     0.7621 C.3     
  30 C30           -7.4411     3.3478     0.0541 C.3     
  31 C31           -6.2430     3.5435     0.9853 C.3     
  32 O32           -5.7118     2.2479     1.3693 O.3     
  33 O33           -7.0096     2.6657    -1.1530 O.3     
  34 C34           -4.5770     2.2427     2.0862 C.2     
  35 C35           -7.6837     2.9386    -2.2812 C.2     
  36 O36           -8.6039     3.7214    -2.2609 O.2     
  37 O37           -4.0457     3.2863     2.3839 O.2     
  38 C38           -7.2929     2.2685    -3.5732 C.3     
  39 C39           -8.2131     2.7506    -4.6965 C.3     
  40 C40           -7.8163     2.0703    -6.0082 C.3     
  41 C41           -8.7227     2.5452    -7.1146 C.2     
  42 C42           -8.2103     3.0204    -8.2226 C.2     
  43 C43           -6.7258     2.9296    -8.4659 C.3     
  44 C44           -6.4742     2.2605    -9.7925 C.2     
  45 C45           -5.7226     2.8479   -10.6903 C.2     
  46 C46           -4.9666     4.1025   -10.3360 C.3     
  47 C47           -3.5128     3.9310   -10.6940 C.2     
  48 C48           -2.9143     4.8204   -11.4468 C.2     
  49 C49           -3.6277     6.0943   -11.8201 C.3     
  50 C50           -2.7634     7.2767   -11.4650 C.2     
  51 C51           -2.4926     8.1851   -12.3691 C.2     
  52 C52           -3.1736     8.1375   -13.7126 C.3     
  53 C53           -3.8195     9.4932   -14.0054 C.3     
  54 C54           -4.5108     9.4448   -15.3695 C.3     
  55 C55           -5.1567    10.8006   -15.6623 C.3     
  56 C56           -5.8480    10.7522   -17.0263 C.3     
  57 C57           -3.9656     0.9353     2.5198 C.3     
  58 C58           -2.6101     1.1998     3.1783 C.3     
  59 C59           -1.9362    -0.1329     3.5113 C.3     
  60 C60           -0.6420     0.1292     4.2840 C.3     
  61 C61            0.0319    -1.2035     4.6171 C.3     
  62 C62            1.3262    -0.9415     5.3898 C.3     
  63 C63            2.0000    -2.2741     5.7228 C.3     
  64 C64            3.2943    -2.0121     6.4955 C.3     
  65 C65            3.9681    -3.3447     6.8285 C.3     
  66 C66            5.2624    -3.0827     7.6013 C.3     
  67 C67            5.9363    -4.4153     7.9343 C.3     
  68 C68            7.2305    -4.1533     8.7070 C.3     
  69 C69            7.9044    -5.4859     9.0400 C.3     
  70 C70            9.1987    -5.2239     9.8127 C.3     
  71 C71            9.8725    -6.5566    10.1457 C.3     
  72 C72           11.1668    -6.2945    10.9185 C.3     
  73 C73           11.8406    -7.6272    11.2515 C.3     
  74 H74           -9.3742    -2.5074     2.4158 H       
  75 H75           -7.7202    -3.3732     0.7839 H       
  76 H76           -5.6959    -2.4171     1.8502 H       
  77 H77           -4.7547    -3.5147     3.8646 H       
  78 H78           -6.2161    -1.5288     4.1267 H       
  79 H79           -8.4329    -3.6049     4.4303 H       
  80 H80           -8.9679    -4.9391     2.0866 H       
  81 H81           -9.7349    -1.6222     4.7121 H       
  82 H82           -5.7165    -7.9878     5.5428 H       
  83 H83           -4.6093    -6.8435     2.8169 H       
  84 H84           -5.2054    -1.4548     8.8888 H       
  85 H85           -3.5591    -2.4312     6.3783 H       
  86 H86           -2.5484    -3.9290     1.7626 H       
  87 H87           -3.0367    -5.3072    -1.0354 H       
  88 H88           -9.2566    -0.8435    -0.2336 H       
  89 H89           -9.3314     2.3147     0.0774 H       
  90 H90           -8.8746     3.0474     1.6339 H       
  91 H91           -7.8603     4.3193    -0.2077 H       
  92 H92           -5.4711     4.1142     0.4691 H       
  93 H93           -6.5603     4.0848     1.8766 H       
  94 H94           -6.2606     2.5209    -3.8156 H       
  95 H95           -7.3869     1.1880    -3.4651 H       
  96 H96           -9.2454     2.4982    -4.4540 H       
  97 H97           -8.1191     3.8312    -4.8046 H       
  98 H98           -6.7840     2.3228    -6.2506 H       
  99 H99           -7.9103     0.9898    -5.9000 H       
 100 H100          -9.7947     2.4937    -6.9940 H       
 101 H101          -8.8516     3.4773    -8.9617 H       
 102 H102          -6.2975     3.9318    -8.4774 H       
 103 H103          -6.2624     2.3456    -7.6707 H       
 104 H104          -6.9136     1.2966   -10.0032 H       
 105 H105          -5.6447     2.4331   -11.6845 H       
 106 H106          -5.3804     4.9449   -10.8903 H       
 107 H107          -5.0575     4.2916    -9.2663 H       
 108 H108          -2.9644     3.0748   -10.3299 H       
 109 H109          -1.9096     4.6408   -11.7999 H       
 110 H110          -3.8268     6.0986   -12.8917 H       
 111 H111          -4.5698     6.1562   -11.2752 H       
 112 H112          -2.3672     7.3750   -10.4651 H       
 113 H113          -1.7814     8.9682   -12.1516 H       
 114 H114          -2.4383     7.9110   -14.4848 H       
 115 H115          -3.9412     7.3637   -13.7037 H       
 116 H116          -4.5547     9.7197   -13.2333 H       
 117 H117          -3.0518    10.2670   -14.0144 H       
 118 H118          -3.7755     9.2183   -16.1416 H       
 119 H119          -5.2784     8.6710   -15.3605 H       
 120 H120          -5.8919    11.0271   -14.8901 H       
 121 H121          -4.3890    11.5744   -15.6712 H       
 122 H122          -6.3081    11.7181   -17.2349 H       
 123 H123          -5.1127    10.5257   -17.7984 H       
 124 H124          -6.6156     9.9784   -17.0174 H       
 125 H125          -4.6267     0.4442     3.2338 H       
 126 H126          -3.8279     0.2925     1.6504 H       
 127 H127          -1.9779     1.7656     2.4940 H       
 128 H128          -2.7566     1.7718     4.0945 H       
 129 H129          -2.6077    -0.7371     4.1214 H       
 130 H130          -1.7068    -0.6647     2.5880 H       
 131 H131           0.0295     0.7334     3.6739 H       
 132 H132          -0.8714     0.6610     5.2074 H       
 133 H133          -0.6396    -1.8077     5.2272 H       
 134 H134           0.2613    -1.7353     3.6937 H       
 135 H135           1.9976    -0.3373     4.7797 H       
 136 H136           1.0967    -0.4096     6.3131 H       
 137 H137           1.3286    -2.8783     6.3329 H       
 138 H138           2.2294    -2.8060     4.7994 H       
 139 H139           3.9657    -1.4079     5.8854 H       
 140 H140           3.0649    -1.4802     7.4189 H       
 141 H141           3.2967    -3.9489     7.4386 H       
 142 H142           4.1976    -3.8766     5.9052 H       
 143 H143           5.9339    -2.4785     6.9912 H       
 144 H144           5.0330    -2.5508     8.5246 H       
 145 H145           5.2648    -5.0195     8.5444 H       
 146 H146           6.1657    -4.9472     7.0109 H       
 147 H147           7.9020    -3.5491     8.0969 H       
 148 H148           7.0011    -3.6214     9.6303 H       
 149 H149           7.2330    -6.0901     9.6501 H       
 150 H150           8.1338    -6.0178     8.1167 H       
 151 H151           9.8701    -4.6197     9.2026 H       
 152 H152           8.9692    -4.6920    10.7361 H       
 153 H153           9.2011    -7.1608    10.7558 H       
 154 H154          10.1020    -7.0884     9.2224 H       
 155 H155          11.8382    -5.6903    10.3084 H       
 156 H156          10.9374    -5.7627    11.8418 H       
 157 H157          12.7627    -7.4405    11.8020 H       
 158 H158          11.1692    -8.2314    11.8616 H       
 159 H159          12.0701    -8.1590    10.3281 H       
@<TRIPOS>BOND
   1    1    2 1
   2    1    6 1
   3    1    9 1
   4    1   74 1
   5    2    3 1
   6    2    7 1
   7    2   75 1
   8    3    4 1
   9    3   10 1
  10    3   76 1
  11    4    5 1
  12    4   12 1
  13    4   77 1
  14    5    6 1
  15    5   11 1
  16    5   78 1
  17    6    8 1
  18    6   79 1
  19    7   80 1
  20    8   81 1
  21    9   25 1
  22   10   13 1
  23   11   15 1
  24   12   14 1
  25   13   22 1
  26   13   23 1
  27   13   24 2
  28   14   16 2
  29   14   17 1
  30   14   18 1
  31   15   19 1
  32   15   20 1
  33   15   21 2
  34   17   82 1
  35   18   83 1
  36   19   84 1
  37   20   85 1
  38   22   86 1
  39   23   87 1
  40   25   26 1
  41   25   27 2
  42   25   28 1
  43   26   88 1
  44   28   29 1
  45   29   30 1
  46   29   89 1
  47   29   90 1
  48   30   31 1
  49   30   33 1
  50   30   91 1
  51   31   32 1
  52   31   92 1
  53   31   93 1
  54   32   34 1
  55   33   35 1
  56   34   37 2
  57   34   57 1
  58   35   36 2
  59   35   38 1
  60   38   39 1
  61   38   94 1
  62   38   95 1
  63   39   40 1
  64   39   96 1
  65   39   97 1
  66   40   41 1
  67   40   98 1
  68   40   99 1
  69   41   42 2
  70   41  100 1
  71   42   43 1
  72   42  101 1
  73   43   44 1
  74   43  102 1
  75   43  103 1
  76   44   45 2
  77   44  104 1
  78   45   46 1
  79   45  105 1
  80   46   47 1
  81   46  106 1
  82   46  107 1
  83   47   48 2
  84   47  108 1
  85   48   49 1
  86   48  109 1
  87   49   50 1
  88   49  110 1
  89   49  111 1
  90   50   51 2
  91   50  112 1
  92   51   52 1
  93   51  113 1
  94   52   53 1
  95   52  114 1
  96   52  115 1
  97   53   54 1
  98   53  116 1
  99   53  117 1
 100   54   55 1
 101   54  118 1
 102   54  119 1
 103   55   56 1
 104   55  120 1
 105   55  121 1
 106   56  122 1
 107   56  123 1
 108   56  124 1
 109   57   58 1
 110   57  125 1
 111   57  126 1
 112   58   59 1
 113   58  127 1
 114   58  128 1
 115   59   60 1
 116   59  129 1
 117   59  130 1
 118   60   61 1
 119   60  131 1
 120   60  132 1
 121   61   62 1
 122   61  133 1
 123   61  134 1
 124   62   63 1
 125   62  135 1
 126   62  136 1
 127   63   64 1
 128   63  137 1
 129   63  138 1
 130   64   65 1
 131   64  139 1
 132   64  140 1
 133   65   66 1
 134   65  141 1
 135   65  142 1
 136   66   67 1
 137   66  143 1
 138   66  144 1
 139   67   68 1
 140   67  145 1
 141   67  146 1
 142   68   69 1
 143   68  147 1
 144   68  148 1
 145   69   70 1
 146   69  149 1
 147   69  150 1
 148   70   71 1
 149   70  151 1
 150   70  152 1
 151   71   72 1
 152   71  153 1
 153   71  154 1
 154   72   73 1
 155   72  155 1
 156   72  156 1
 157   73  157 1
 158   73  158 1
 159   73  159 1

#	End of record

