#	Name: ASD11940015
#	Creating user name:	WinNT
#	Creation time:	15. 06. 2019 21:29

#	Modifying user name:	WinNT
#	Modification time:	15. 06. 2019 21:29

#	Program:	/corina/corina34_cracker 3.40 0067  02.08.2006

@<TRIPOS>MOLECULE
ASD11940015
   7    6    0    0    0
SMALL
NO_CHARGES


@<TRIPOS>ATOM
   1 Se1           -0.0225     1.8057     0.0120 Du      
   2 O2             0.0021    -0.0041     0.0020 O.3     
   3 O3             1.7493     2.1753    -0.0030 O.3     
   4 O4            -0.4625     2.1546    -1.7087 O.3     
   5 H5            -0.8759    -0.4094     0.0082 H       
   6 H6             2.1851     2.0470     0.8507 H       
   7 H7            -1.3974     2.0136    -1.9119 H       
@<TRIPOS>BOND
   1    1    2 1
   2    1    3 1
   3    1    4 1
   4    2    5 1
   5    3    6 1
   6    4    7 1

#	End of record

