#	Name: ASD11000319
#	Creating user name:	WinNT
#	Creation time:	15. 06. 2019 21:29

#	Modifying user name:	WinNT
#	Modification time:	15. 06. 2019 21:29

#	Program:	/corina/corina34_cracker 3.40 0067  02.08.2006

@<TRIPOS>MOLECULE
ASD11000319
  70   73    0    0    0
SMALL
NO_CHARGES


@<TRIPOS>ATOM
   1 N1            -0.0090     1.3380    -0.1987 N.am    
   2 C2             0.0229    -0.0008    -0.3196 C.2     
   3 C3             1.2404    -0.7147    -0.3287 C.2     
   4 C4             2.4197    -0.0554    -0.2136 C.2     
   5 C5             2.3958     1.4025    -0.0815 C.ar    
   6 C6             3.5796     2.1377     0.0398 C.ar    
   7 C7             3.5231     3.4972     0.1604 C.ar    
   8 C8             2.3011     4.1561     0.1637 C.ar    
   9 C9             1.1223     3.4522     0.0455 C.ar    
  10 C10            1.1549     2.0670    -0.0784 C.ar    
  11 O11           -1.0258    -0.6131    -0.4235 O.2     
  12 C12           -1.2988     2.0325    -0.2010 C.3     
  13 O13           -1.4862     2.6851    -1.4584 O.3     
  14 C14           -1.9292     1.8170    -2.5035 C.3     
  15 C15           -2.0952     2.6185    -3.7961 C.3     
  16 Si16          -2.6727     1.4867    -5.1587 Si      
  17 C17           -4.3065     0.7273    -4.6846 C.3     
  18 C18           -2.8749     2.4626    -6.7327 C.3     
  19 C19           -1.4141     0.1385    -5.4212 C.3     
  20 C20            4.7987     4.2889     0.2915 C.3     
  21 C21            5.2971     4.6869    -1.0992 C.3     
  22 C22            8.8387     6.8851    -0.7361 C.ar    
  23 N23            8.9047     5.5668    -0.8520 N.ar    
  24 C24            7.8042     4.8424    -0.9685 C.ar    
  25 C25            6.5727     5.4786    -0.9681 C.ar    
  26 C26            6.5400     6.8589    -0.8450 C.ar    
  27 N27            7.6778     7.5238    -0.7322 N.ar    
  28 N28           10.0107     7.6122    -0.6102 N.pl3   
  29 C29            9.9695     9.0120    -0.6081 C.ar    
  30 C30           10.8731     9.7324     0.1622 C.ar    
  31 C31           10.8319    11.1134     0.1633 C.ar    
  32 C32            9.8875    11.7803    -0.6055 C.ar    
  33 C33            8.9853    11.0610    -1.3741 C.ar    
  34 C34            9.0291     9.6802    -1.3804 C.ar    
  35 O35            9.8472    13.1399    -0.6043 O.3     
  36 C36            8.8499    13.7600    -1.4183 C.3     
  37 F37            9.0423    13.3909    -2.7539 F       
  38 F38            7.5813    13.3460    -0.9982 F       
  39 Cl39          11.9606    12.0148     1.1263 Cl      
  40 H40            1.2327    -1.7902    -0.4273 H       
  41 H41            3.3558    -0.5939    -0.2189 H       
  42 H42            4.5342     1.6326     0.0384 H       
  43 H43            2.2740     5.2314     0.2603 H       
  44 H44            0.1766     3.9739     0.0495 H       
  45 H45           -2.1004     1.3109    -0.0431 H       
  46 H46           -1.3141     2.7731     0.5986 H       
  47 H47           -1.1928     1.0282    -2.6571 H       
  48 H48           -2.8851     1.3727    -2.2261 H       
  49 H49           -2.8316     3.4073    -3.6425 H       
  50 H50           -1.1393     3.0628    -4.0735 H       
  51 H51           -5.0429     1.5161    -4.5309 H       
  52 H52           -4.6443     0.0651    -5.4817 H       
  53 H53           -4.1882     0.1563    -3.7636 H       
  54 H54           -1.9190     2.9069    -7.0100 H       
  55 H55           -3.2128     1.8004    -7.5298 H       
  56 H56           -3.6113     3.2514    -6.5790 H       
  57 H57           -1.2958    -0.4325    -4.5003 H       
  58 H58           -1.7519    -0.5237    -6.2184 H       
  59 H59           -0.4582     0.5828    -5.6986 H       
  60 H60            4.6103     5.1865     0.8806 H       
  61 H61            5.5546     3.6805     0.7880 H       
  62 H62            5.4855     3.7894    -1.6883 H       
  63 H63            4.5413     5.2954    -1.5957 H       
  64 H64            7.8644     3.7682    -1.0630 H       
  65 H65            5.5968     7.3850    -0.8409 H       
  66 H66           10.8601     7.1519    -0.5235 H       
  67 H67           11.6073     9.2134     0.7604 H       
  68 H68            8.2505    11.5805    -1.9713 H       
  69 H69            8.3289     9.1205    -1.9828 H       
  70 H70            8.9275    14.8433    -1.3260 H       
@<TRIPOS>BOND
   1    1    2 am
   2    1   10 1
   3    1   12 1
   4    2    3 1
   5    2   11 2
   6    3    4 2
   7    3   40 1
   8    4    5 1
   9    4   41 1
  10    5    6 ar
  11    5   10 ar
  12    6    7 ar
  13    6   42 1
  14    7    8 ar
  15    7   20 1
  16    8    9 ar
  17    8   43 1
  18    9   10 ar
  19    9   44 1
  20   12   13 1
  21   12   45 1
  22   12   46 1
  23   13   14 1
  24   14   15 1
  25   14   47 1
  26   14   48 1
  27   15   16 1
  28   15   49 1
  29   15   50 1
  30   16   17 1
  31   16   18 1
  32   16   19 1
  33   17   51 1
  34   17   52 1
  35   17   53 1
  36   18   54 1
  37   18   55 1
  38   18   56 1
  39   19   57 1
  40   19   58 1
  41   19   59 1
  42   20   21 1
  43   20   60 1
  44   20   61 1
  45   21   25 1
  46   21   62 1
  47   21   63 1
  48   22   23 ar
  49   22   27 ar
  50   22   28 1
  51   23   24 ar
  52   24   25 ar
  53   24   64 1
  54   25   26 ar
  55   26   27 ar
  56   26   65 1
  57   28   29 1
  58   28   66 1
  59   29   30 ar
  60   29   34 ar
  61   30   31 ar
  62   30   67 1
  63   31   32 ar
  64   31   39 1
  65   32   33 ar
  66   32   35 1
  67   33   34 ar
  68   33   68 1
  69   34   69 1
  70   35   36 1
  71   36   37 1
  72   36   38 1
  73   36   70 1

#	End of record

