#	Name: ASD10160541
#	Creating user name:	WinNT
#	Creation time:	15. 06. 2019 21:26

#	Modifying user name:	WinNT
#	Modification time:	15. 06. 2019 21:26

#	Program:	/corina/corina34_cracker 3.40 0067  02.08.2006

@<TRIPOS>MOLECULE
ASD10160541
  47   49    0    0    0
SMALL
NO_CHARGES


@<TRIPOS>ATOM
   1 C1            -0.4001     1.1078    -1.9465 C.2     
   2 C2            -0.2797    -0.2703    -1.4403 C.ar    
   3 C3             0.9047    -0.9911    -1.6393 C.ar    
   4 C4             1.0119    -2.2817    -1.1625 C.ar    
   5 C5            -0.0521    -2.8647    -0.4866 C.ar    
   6 C6            -1.2306    -2.1515    -0.2869 C.ar    
   7 C7            -1.3456    -0.8613    -0.7542 C.ar    
   8 O8             0.5292     1.6212    -2.5379 O.2     
   9 O9            -1.5426     1.7973    -1.7586 O.3     
  10 F10            1.9396    -0.4242    -2.2972 F       
  11 O11            0.0574    -4.1342    -0.0197 O.3     
  12 C12            1.5462    -5.5237    -1.2600 C.ar    
  13 C13            1.2595    -4.7566    -0.1396 C.ar    
  14 C14            2.2202    -4.6335     0.8588 C.ar    
  15 C15            3.4319    -5.2868     0.6913 C.ar    
  16 C16            3.6435    -6.0333    -0.4541 C.ar    
  17 N17            2.7109    -6.1287    -1.3815 N.ar    
  18 C18            4.9572    -6.7466    -0.6446 C.3     
  19 C19            4.8156    -8.2716    -0.7841 C.3     
  20 C20            5.9004    -8.1938    -1.8713 C.3     
  21 C21            5.4571    -6.7390    -2.0989 C.3     
  22 Cl22           4.6687    -5.1687     1.9038 Cl      
  23 Cl23          -2.5558    -2.8877     0.5589 Cl      
  24 C24           -1.5903     3.1500    -2.2842 C.3     
  25 C25           -1.3746     3.1167    -3.7985 C.3     
  26 C26           -2.9555     3.7688    -1.9770 C.3     
  27 C27           -0.4910     3.9901    -1.6309 C.3     
  28 H28            1.9242    -2.8391    -1.3153 H       
  29 H29           -2.2593    -0.3079    -0.5948 H       
  30 H30            0.8055    -5.6294    -2.0389 H       
  31 H31            2.0273    -4.0433     1.7425 H       
  32 H32            5.7128    -6.4427     0.0798 H       
  33 H33            5.1262    -8.8219     0.1040 H       
  34 H34            3.8424    -8.5871    -1.1600 H       
  35 H35            6.9149    -8.2856    -1.4833 H       
  36 H36            5.7116    -8.8462    -2.7239 H       
  37 H37            4.6592    -6.6356    -2.8343 H       
  38 H38            6.2855    -6.0522    -2.2722 H       
  39 H39           -2.1577     2.5182    -4.2640 H       
  40 H40           -1.4104     4.1321    -4.1931 H       
  41 H41           -0.4020     2.6759    -4.0174 H       
  42 H42           -3.1092     3.7925    -0.8981 H       
  43 H43           -2.9913     4.7842    -2.3716 H       
  44 H44           -3.7386     3.1703    -2.4424 H       
  45 H45            0.4816     3.5493    -1.8497 H       
  46 H46           -0.5268     5.0055    -2.0254 H       
  47 H47           -0.6447     4.0138    -0.5520 H       
@<TRIPOS>BOND
   1    1    2 1
   2    1    8 2
   3    1    9 1
   4    2    3 ar
   5    2    7 ar
   6    3    4 ar
   7    3   10 1
   8    4    5 ar
   9    4   28 1
  10    5    6 ar
  11    5   11 1
  12    6    7 ar
  13    6   23 1
  14    7   29 1
  15    9   24 1
  16   11   13 1
  17   12   13 ar
  18   12   17 ar
  19   12   30 1
  20   13   14 ar
  21   14   15 ar
  22   14   31 1
  23   15   16 ar
  24   15   22 1
  25   16   17 ar
  26   16   18 1
  27   18   19 1
  28   18   21 1
  29   18   32 1
  30   19   20 1
  31   19   33 1
  32   19   34 1
  33   20   21 1
  34   20   35 1
  35   20   36 1
  36   21   37 1
  37   21   38 1
  38   24   25 1
  39   24   27 1
  40   24   26 1
  41   25   39 1
  42   25   40 1
  43   25   41 1
  44   26   42 1
  45   26   43 1
  46   26   44 1
  47   27   45 1
  48   27   46 1
  49   27   47 1

#	End of record

