#	Name: ASD10410114
#	Creating user name:	WinNT
#	Creation time:	15. 06. 2019 21:26

#	Modifying user name:	WinNT
#	Modification time:	15. 06. 2019 21:26

#	Program:	/corina/corina34_cracker 3.40 0067  02.08.2006

@<TRIPOS>MOLECULE
ASD10410114
  50   53    0    0    0
SMALL
NO_CHARGES


@<TRIPOS>ATOM
   1 C1            -0.0183     1.3925    -0.0814 C.ar    
   2 C2            -0.0058     0.0095     0.0247 C.ar    
   3 C3             1.2006    -0.6690     0.1162 C.ar    
   4 C4             2.3904     0.0319     0.1017 C.ar    
   5 C5             2.3788     1.4166    -0.0050 C.ar    
   6 C6             1.1705     2.0950    -0.0966 C.ar    
   7 O7            -1.1769    -0.6816     0.0395 O.3     
   8 N8             3.5843     2.1280    -0.0193 N.pl3   
   9 C9             3.6716     3.3385    -0.7069 C.2     
  10 N10            4.7097     4.1400    -0.7086 N.2     
  11 N11            2.7119     3.8664    -1.4756 N.2     
  12 C12            3.1234     5.0129    -1.9733 C.2     
  13 N13            4.3797     5.2363    -1.5216 N.pl3   
  14 C14            5.1876     6.3395    -1.8072 C.ar    
  15 N15            2.4014     5.8412    -2.8114 N.pl3   
  16 C16            6.1909     6.7059    -0.9184 C.ar    
  17 C17           -1.0898    -2.1035     0.1510 C.3     
  18 C18           -2.4977    -2.7023     0.1511 C.3     
  19 N19           -3.1360    -2.4528    -1.1483 N.3     
  20 C20           -4.3927    -3.2136    -1.2744 C.3     
  21 N21            4.9934     7.0224    -2.9243 N.ar    
  22 C22            5.7331     8.0698    -3.2326 C.ar    
  23 C23            6.7458     8.4940    -2.3924 C.ar    
  24 C24            6.9847     7.8009    -1.2128 C.ar    
  25 C25           -5.5158    -2.1961    -1.5657 C.3     
  26 C26           -4.7455    -0.9833    -2.1509 C.3     
  27 C27           -3.4359    -1.0158    -1.3240 C.3     
  28 Cl28           7.7129     9.8737    -2.8106 Cl      
  29 H29           -0.9579     1.9196    -0.1568 H       
  30 H30            1.2094    -1.7458     0.1992 H       
  31 H31            3.3295    -0.4964     0.1737 H       
  32 H32            1.1606     3.1718    -0.1799 H       
  33 H33            4.3589     1.7791     0.4489 H       
  34 H34            1.5039     5.5933    -3.0830 H       
  35 H35            2.7923     6.6706    -3.1281 H       
  36 H36            6.3491     6.1439    -0.0098 H       
  37 H37           -0.5262    -2.5004    -0.6934 H       
  38 H38           -0.5838    -2.3648     1.0805 H       
  39 H39           -2.4357    -3.7766     0.3251 H       
  40 H40           -3.0892    -2.2399     0.9412 H       
  41 H41           -4.3146    -3.9251    -2.0965 H       
  42 H42           -4.6021    -3.7406    -0.3436 H       
  43 H43            5.5456     8.6027    -4.1531 H       
  44 H44            7.7696     8.1113    -0.5390 H       
  45 H45           -6.2180    -2.5960    -2.2972 H       
  46 H46           -6.0317    -1.9180    -0.6467 H       
  47 H47           -4.5409    -1.1257    -3.2120 H       
  48 H48           -5.2914    -0.0552    -1.9812 H       
  49 H49           -3.5866    -0.5384    -0.3557 H       
  50 H50           -2.6305    -0.5240    -1.8693 H       
@<TRIPOS>BOND
   1    1    2 ar
   2    1    6 ar
   3    1   29 1
   4    2    3 ar
   5    2    7 1
   6    3    4 ar
   7    3   30 1
   8    4    5 ar
   9    4   31 1
  10    5    6 ar
  11    5    8 1
  12    6   32 1
  13    7   17 1
  14    8    9 1
  15    8   33 1
  16    9   10 2
  17    9   11 1
  18   10   13 1
  19   11   12 2
  20   12   13 1
  21   12   15 1
  22   13   14 1
  23   14   16 ar
  24   14   21 ar
  25   15   34 1
  26   15   35 1
  27   16   24 ar
  28   16   36 1
  29   17   18 1
  30   17   37 1
  31   17   38 1
  32   18   19 1
  33   18   39 1
  34   18   40 1
  35   19   20 1
  36   19   27 1
  37   20   25 1
  38   20   41 1
  39   20   42 1
  40   21   22 ar
  41   22   23 ar
  42   22   43 1
  43   23   24 ar
  44   23   28 1
  45   24   44 1
  46   25   26 1
  47   25   45 1
  48   25   46 1
  49   26   27 1
  50   26   47 1
  51   26   48 1
  52   27   49 1
  53   27   50 1

#	End of record

