#	Name: ASD10610174
#	Creating user name:	WinNT
#	Creation time:	15. 06. 2019 21:28

#	Modifying user name:	WinNT
#	Modification time:	15. 06. 2019 21:28

#	Program:	/corina/corina34_cracker 3.40 0067  02.08.2006

@<TRIPOS>MOLECULE
ASD10610174
  59   63    0    0    0
SMALL
NO_CHARGES


@<TRIPOS>ATOM
   1 C1             0.9712     2.9628    -1.4598 C.ar    
   2 N2             1.7809     2.9711    -2.5006 N.ar    
   3 C3             2.9214     2.3041    -2.4802 C.ar    
   4 C4             3.2629     1.5824    -1.3308 C.ar    
   5 C5             2.3732     1.6023    -0.2507 C.ar    
   6 N6             1.2538     2.2965    -0.3575 N.ar    
   7 C7             4.5276     0.8201    -1.2597 C.2     
   8 O8             5.2878     0.8142    -2.2082 O.2     
   9 N9             4.8376     0.1316    -0.1434 N.am    
  10 O10            7.3350     0.2362     1.1912 O.3     
  11 C11            7.3581     0.0540    -0.2304 C.3     
  12 C12            6.0348    -0.7122    -0.1119 C.3     
  13 C13            6.5874    -0.9827     1.2930 C.3     
  14 C14            5.9354    -1.9310    -0.9925 C.2     
  15 N15            4.7566    -2.5701    -1.1281 N.am    
  16 O16            6.9162    -2.3368    -1.5793 O.2     
  17 C17            4.6829    -3.8162    -1.8950 C.3     
  18 C18            4.5107    -3.4916    -3.3802 C.3     
  19 C19            3.5072    -4.6301    -1.4190 C.ar    
  20 C20            3.6634    -5.9888    -1.1966 C.ar    
  21 C21            2.5786    -6.7321    -0.7585 C.ar    
  22 C22            1.3619    -6.0736    -0.5578 C.ar    
  23 C23            1.2877    -4.7039    -0.8044 C.ar    
  24 N24            2.3469    -4.0373    -1.2154 N.ar    
  25 F25            4.8590    -6.5823    -1.4049 F       
  26 C26            0.1695    -6.8203    -0.0904 C.ar    
  27 C27           -0.5778    -6.3456     0.9995 C.ar    
  28 C28           -1.6973    -7.0569     1.4297 C.ar    
  29 C29           -2.0650    -8.2228     0.7831 C.ar    
  30 C30           -1.3264    -8.6896    -0.2912 C.ar    
  31 C31           -0.2179    -7.9920    -0.7331 C.ar    
  32 O32            0.8928    -3.3880     2.1447 O.3     
  33 N33            0.8434    -4.3358     1.3895 N.2     
  34 C34           -0.1788    -5.0960     1.6888 C.2     
  35 N35           -0.8034    -4.5267     2.7451 N.2     
  36 C36           -0.1143    -3.4479     3.0217 C.2     
  37 C37           -0.4025    -2.4596     4.1221 C.3     
  38 F38           -2.4219    -6.6077     2.4777 F       
  39 Cl39          -1.8000   -10.1549    -1.0925 Cl      
  40 H40            0.0493     3.5232    -1.5102 H       
  41 H41            3.5792     2.3154    -3.3367 H       
  42 H42            2.5975     1.0588     0.6552 H       
  43 H43            4.2680     0.1947     0.6393 H       
  44 H44            7.2698     0.9866    -0.7878 H       
  45 H45            8.1871    -0.5648    -0.5740 H       
  46 H46            7.2152    -1.8721     1.3472 H       
  47 H47            5.8238    -0.9584     2.0704 H       
  48 H48            3.9570    -2.2050    -0.7180 H       
  49 H49            5.6010    -4.3859    -1.7516 H       
  50 H50            3.5925    -2.9219    -3.5235 H       
  51 H51            5.3610    -2.9029    -3.7244 H       
  52 H52            4.4558    -4.4188    -3.9507 H       
  53 H53            2.6709    -7.7928    -0.5773 H       
  54 H54            0.3536    -4.1832    -0.6533 H       
  55 H55           -2.9325    -8.7722     1.1180 H       
  56 H56            0.3505    -8.3591    -1.5748 H       
  57 H57            0.3449    -1.6664     4.1031 H       
  58 H58           -1.3929    -2.0292     3.9737 H       
  59 H59           -0.3681    -2.9682     5.0856 H       
@<TRIPOS>BOND
   1    1    2 ar
   2    1    6 ar
   3    1   40 1
   4    2    3 ar
   5    3    4 ar
   6    3   41 1
   7    4    5 ar
   8    4    7 1
   9    5    6 ar
  10    5   42 1
  11    7    8 2
  12    7    9 am
  13    9   12 1
  14    9   43 1
  15   10   11 1
  16   10   13 1
  17   11   12 1
  18   11   44 1
  19   11   45 1
  20   12   13 1
  21   12   14 1
  22   13   46 1
  23   13   47 1
  24   14   15 am
  25   14   16 2
  26   15   17 1
  27   15   48 1
  28   17   18 1
  29   17   19 1
  30   17   49 1
  31   18   50 1
  32   18   51 1
  33   18   52 1
  34   19   20 ar
  35   19   24 ar
  36   20   21 ar
  37   20   25 1
  38   21   22 ar
  39   21   53 1
  40   22   23 ar
  41   22   26 1
  42   23   24 ar
  43   23   54 1
  44   26   27 ar
  45   26   31 ar
  46   27   28 ar
  47   27   34 1
  48   28   29 ar
  49   28   38 1
  50   29   30 ar
  51   29   55 1
  52   30   31 ar
  53   30   39 1
  54   31   56 1
  55   32   33 1
  56   32   36 1
  57   33   34 2
  58   34   35 1
  59   35   36 2
  60   36   37 1
  61   37   57 1
  62   37   58 1
  63   37   59 1

#	End of record

