#	Name: ASD11400003
#	Creating user name:	WinNT
#	Creation time:	15. 06. 2019 21:29

#	Modifying user name:	WinNT
#	Modification time:	15. 06. 2019 21:29

#	Program:	/corina/corina34_cracker 3.40 0067  02.08.2006

@<TRIPOS>MOLECULE
ASD11400003
  60   62    0    0    0
SMALL
NO_CHARGES


@<TRIPOS>ATOM
   1 N1            -0.3927     1.4704    -0.4681 N.3     
   2 C2            -0.2846     0.0059    -0.5082 C.3     
   3 C3            -1.6433    -0.6150    -0.1773 C.3     
   4 N4            -1.5355    -2.0755    -0.2173 N.am    
   5 S5            -1.2862    -2.9260     1.1816 S.o2    
   6 O6            -0.8481    -4.2203     0.7916 O.2     
   7 O7            -0.5356    -2.0770     2.0390 O.2     
   8 C8            -2.8581    -3.1425     1.9475 C.ar    
   9 C9            -3.5500    -4.3278     1.7818 C.ar    
  10 C10           -4.7832    -4.4983     2.3824 C.ar    
  11 C11           -5.3250    -3.4824     3.1495 C.ar    
  12 C12           -4.6321    -2.2964     3.3150 C.ar    
  13 C13           -3.3965    -2.1293     2.7185 C.ar    
  14 Cl14          -6.8740    -3.6956     3.9037 Cl      
  15 C15           -1.6431    -2.7505    -1.4353 C.ar    
  16 C16           -0.5186    -2.9386    -2.2286 C.ar    
  17 C17           -0.6285    -3.6070    -3.4323 C.ar    
  18 C18           -1.8561    -4.0884    -3.8480 C.ar    
  19 C19           -2.9779    -3.9028    -3.0606 C.ar    
  20 C20           -2.8741    -3.2405    -1.8534 C.ar    
  21 C21           -4.0968    -3.0392    -0.9958 C.3     
  22 N22           -5.3007    -3.1125    -1.8345 N.3     
  23 C23           -6.5027    -3.3116    -1.0139 C.3     
  24 C24           -7.6746    -3.6261    -1.9076 C.2     
  25 C25           -8.3842    -4.7279    -1.7072 C.2     
  26 C26           -9.5335    -5.0363    -2.5837 C.ar    
  27 C27          -10.2820    -6.1955    -2.3750 C.ar    
  28 C28          -11.3537    -6.4786    -3.1959 C.ar    
  29 C29          -11.6872    -5.6146    -4.2267 C.ar    
  30 C30          -10.9473    -4.4622    -4.4383 C.ar    
  31 C31           -9.8776    -4.1665    -3.6193 C.ar    
  32 F32          -12.7373    -5.8970    -5.0284 F       
  33 C33           -5.4299    -1.9151    -2.6757 C.3     
  34 H34            0.4925     1.9043    -0.6834 H       
  35 H35           -1.1163     1.7968    -1.0908 H       
  36 H36            0.0254    -0.3084    -1.5048 H       
  37 H37            0.4534    -0.3241     0.2229 H       
  38 H38           -1.9533    -0.3007     0.8193 H       
  39 H39           -2.3813    -0.2849    -0.9083 H       
  40 H40           -3.1271    -5.1206     1.1827 H       
  41 H41           -5.3238    -5.4242     2.2526 H       
  42 H42           -5.0546    -1.5030     3.9137 H       
  43 H43           -2.8555    -1.2035     2.8476 H       
  44 H44            0.4405    -2.5622    -1.9047 H       
  45 H45            0.2455    -3.7536    -4.0496 H       
  46 H46           -1.9394    -4.6101    -4.7900 H       
  47 H47           -3.9354    -4.2798    -3.3884 H       
  48 H48           -4.1376    -3.8168    -0.2330 H       
  49 H49           -4.0472    -2.0618    -0.5160 H       
  50 H50           -6.3389    -4.1399    -0.3245 H       
  51 H51           -6.7107    -2.4036    -0.4479 H       
  52 H52           -7.9365    -2.9538    -2.7113 H       
  53 H53           -8.1223    -5.4002    -0.9035 H       
  54 H54          -10.0224    -6.8698    -1.5723 H       
  55 H55          -11.9336    -7.3754    -3.0352 H       
  56 H56          -11.2114    -3.7922    -5.2430 H       
  57 H57           -9.3015    -3.2682    -3.7851 H       
  58 H58           -4.5984    -1.8739    -3.3793 H       
  59 H59           -6.3698    -1.9574    -3.2260 H       
  60 H60           -5.4174    -1.0256    -2.0459 H       
@<TRIPOS>BOND
   1    1    2 1
   2    1   34 1
   3    1   35 1
   4    2    3 1
   5    2   36 1
   6    2   37 1
   7    3    4 1
   8    3   38 1
   9    3   39 1
  10    4    5 am
  11    4   15 1
  12    5    6 2
  13    5    7 2
  14    5    8 1
  15    8    9 ar
  16    8   13 ar
  17    9   10 ar
  18    9   40 1
  19   10   11 ar
  20   10   41 1
  21   11   12 ar
  22   11   14 1
  23   12   13 ar
  24   12   42 1
  25   13   43 1
  26   15   16 ar
  27   15   20 ar
  28   16   17 ar
  29   16   44 1
  30   17   18 ar
  31   17   45 1
  32   18   19 ar
  33   18   46 1
  34   19   20 ar
  35   19   47 1
  36   20   21 1
  37   21   22 1
  38   21   48 1
  39   21   49 1
  40   22   23 1
  41   22   33 1
  42   23   24 1
  43   23   50 1
  44   23   51 1
  45   24   25 2
  46   24   52 1
  47   25   26 1
  48   25   53 1
  49   26   27 ar
  50   26   31 ar
  51   27   28 ar
  52   27   54 1
  53   28   29 ar
  54   28   55 1
  55   29   30 ar
  56   29   32 1
  57   30   31 ar
  58   30   56 1
  59   31   57 1
  60   33   58 1
  61   33   59 1
  62   33   60 1

#	End of record

