#	Name: ASD11000260
#	Creating user name:	WinNT
#	Creation time:	15. 06. 2019 21:29

#	Modifying user name:	WinNT
#	Modification time:	15. 06. 2019 21:29

#	Program:	/corina/corina34_cracker 3.40 0067  02.08.2006

@<TRIPOS>MOLECULE
ASD11000260
  32   34    0    0    0
SMALL
NO_CHARGES


@<TRIPOS>ATOM
   1 N1            -0.0169     1.3945     0.0097 N.pl3   
   2 N2             0.0021    -0.0041     0.0020 N.2     
   3 C3             1.2312    -0.4347    -0.0120 C.2     
   4 C4             2.1114     0.7293    -0.0142 C.ar    
   5 C5             3.5006     0.8981    -0.0269 C.ar    
   6 C6             4.0276     2.1577    -0.0256 C.ar    
   7 C7             3.1969     3.2726    -0.0112 C.ar    
   8 C8             1.8384     3.1326     0.0018 C.ar    
   9 C9             1.2723     1.8600    -0.0001 C.ar    
  10 C10            1.6667    -1.8773    -0.0232 C.3     
  11 F11            0.5425    -2.7030    -0.1317 F       
  12 F12            2.5156    -2.0998    -1.1127 F       
  13 F13            2.3462    -2.1685     1.1645 F       
  14 C14           -1.2215     2.2282     0.0201 C.3     
  15 C15           -1.8611     2.2186    -1.3708 C.3     
  16 C16           -3.1517     3.0429    -1.3364 C.3     
  17 C17           -4.0830     2.4685    -0.2644 C.3     
  18 C18           -3.3576     2.4684     1.0838 C.3     
  19 O19           -2.1511     1.7104     0.9740 O.3     
  20 Br20           5.9044     2.3880    -0.0428 Br      
  21 H21            4.1522     0.0369    -0.0374 H       
  22 H22            3.6313     4.2614    -0.0100 H       
  23 H23            1.2044     4.0068     0.0136 H       
  24 H24           -0.9542     3.2498     0.2903 H       
  25 H25           -1.1699     2.6540    -2.0925 H       
  26 H26           -2.0915     1.1929    -1.6587 H       
  27 H27           -2.9159     4.0798    -1.0970 H       
  28 H28           -3.6415     2.9942    -2.3090 H       
  29 H29           -4.9808     3.0826    -0.1949 H       
  30 H30           -4.3583     1.4478    -0.5300 H       
  31 H31           -3.1184     3.4932     1.3679 H       
  32 H32           -4.0001     2.0212     1.8422 H       
@<TRIPOS>BOND
   1    1    2 1
   2    1    9 1
   3    1   14 1
   4    2    3 2
   5    3    4 1
   6    3   10 1
   7    4    5 ar
   8    4    9 ar
   9    5    6 ar
  10    5   21 1
  11    6    7 ar
  12    6   20 1
  13    7    8 ar
  14    7   22 1
  15    8    9 ar
  16    8   23 1
  17   10   11 1
  18   10   12 1
  19   10   13 1
  20   14   15 1
  21   14   19 1
  22   14   24 1
  23   15   16 1
  24   15   25 1
  25   15   26 1
  26   16   17 1
  27   16   27 1
  28   16   28 1
  29   17   18 1
  30   17   29 1
  31   17   30 1
  32   18   19 1
  33   18   31 1
  34   18   32 1

#	End of record

