#	Name: ASD10610158
#	Creating user name:	WinNT
#	Creation time:	15. 06. 2019 21:28

#	Modifying user name:	WinNT
#	Modification time:	15. 06. 2019 21:28

#	Program:	/corina/corina34_cracker 3.40 0067  02.08.2006

@<TRIPOS>MOLECULE
ASD10610158
  15   14    0    0    0
SMALL
NO_CHARGES


@<TRIPOS>ATOM
   1 C1            -0.0225     1.8097     0.0120 C.3     
   2 S2             0.0021    -0.0041     0.0020 S.o2    
   3 O3             0.8448    -0.4970     1.0346 O.2     
   4 O4            -1.3093    -0.5195    -0.1821 O.2     
   5 O5             0.7319    -0.3669    -1.2834 O.3     
   6 C6             2.1455    -0.1659    -1.2258 C.3     
   7 C7             2.7718    -0.5609    -2.5646 C.3     
   8 F8             2.5027    -1.9088    -2.8257 F       
   9 F9             2.2296     0.2289    -3.5842 F       
  10 H10            1.0001     2.1870     0.0043 H       
  11 H11           -0.5497     2.1708    -0.8711 H       
  12 H12           -0.5327     2.1613     0.9088 H       
  13 H13            2.3551     0.8842    -1.0223 H       
  14 H14            2.5679    -0.7812    -0.4314 H       
  15 H15            3.8501    -0.4076    -2.5207 H       
@<TRIPOS>BOND
   1    1    2 1
   2    1   10 1
   3    1   11 1
   4    1   12 1
   5    2    3 2
   6    2    4 2
   7    2    5 1
   8    5    6 1
   9    6    7 1
  10    6   13 1
  11    6   14 1
  12    7    8 1
  13    7    9 1
  14    7   15 1

#	End of record

