#	Name: ASD10410031
#	Creating user name:	WinNT
#	Creation time:	15. 06. 2019 21:26

#	Modifying user name:	WinNT
#	Modification time:	15. 06. 2019 21:26

#	Program:	/corina/corina34_cracker 3.40 0067  02.08.2006

@<TRIPOS>MOLECULE
ASD10410031
  68   71    0    0    0
SMALL
NO_CHARGES


@<TRIPOS>ATOM
   1 C1             0.3270     1.6563     0.1174 C.ar    
   2 C2             0.3596     0.4611    -0.5901 C.ar    
   3 C3             1.5087    -0.3188    -0.5772 C.ar    
   4 C4             2.6149     0.0958     0.1385 C.ar    
   5 C5             2.5791     1.2858     0.8415 C.ar    
   6 C6             1.4364     2.0649     0.8308 C.ar    
   7 S7            -1.1258     2.6531     0.0984 S.o2    
   8 O8            -0.8495     3.7806     0.9180 O.2     
   9 O9            -1.5217     2.7596    -1.2622 O.2     
  10 N10           -2.3175     1.7974     0.8666 N.am    
  11 C11           -2.4220     1.8367     2.3273 C.3     
  12 C12           -3.2672     1.0012     0.0854 C.3     
  13 N13           -0.7619     0.0442    -1.3130 N.pl3   
  14 C14           -0.3050    -3.5017    -1.3370 C.ar    
  15 N15           -0.1290    -2.2148    -1.0763 N.ar    
  16 C16           -0.9484    -1.3023    -1.5881 C.ar    
  17 C17           -2.0011    -1.7195    -2.4073 C.ar    
  18 C18           -2.1483    -3.0712    -2.6534 C.ar    
  19 N19           -1.2937    -3.9259    -2.1097 N.ar    
  20 N20            0.5706    -4.4268    -0.7922 N.pl3   
  21 C21            0.3382    -5.7975    -0.9649 C.ar    
  22 C22            1.4038    -6.6879    -0.9640 C.ar    
  23 C23            1.1748    -8.0388    -1.1342 C.ar    
  24 C24           -0.1213    -8.5072    -1.3059 C.ar    
  25 C25           -1.1869    -7.6167    -1.3064 C.ar    
  26 C26           -0.9582    -6.2663    -1.1314 C.ar    
  27 N27           -0.3534    -9.8764    -1.4789 N.pl3   
  28 N28           -3.4673   -12.5467    -2.4409 N.3     
  29 C29           -3.1354   -11.5316    -3.4488 C.3     
  30 C30           -1.7368   -10.9750    -3.1728 C.3     
  31 C31           -1.7054   -10.3590    -1.7714 C.3     
  32 C32           -2.1016   -11.4241    -0.7452 C.3     
  33 C33           -3.4896   -11.9677    -1.0916 C.3     
  34 C34           -4.7444   -13.2016    -2.7540 C.3     
  35 C35            0.7556   -10.8272    -1.3676 C.3     
  36 Cl36          -3.0987    -0.5662    -3.0993 Cl      
  37 H37            1.5372    -1.2487    -1.1259 H       
  38 H38            3.5087    -0.5104     0.1492 H       
  39 H39            3.4455     1.6078     1.4003 H       
  40 H40            1.4119     2.9941     1.3807 H       
  41 H41           -2.6727     2.8483     2.6466 H       
  42 H42           -3.2016     1.1487     2.6544 H       
  43 H43           -1.4694     1.5423     2.7678 H       
  44 H44           -2.8766    -0.0084    -0.0417 H       
  45 H45           -4.2222     0.9581     0.6090 H       
  46 H46           -3.4094     1.4616    -0.8923 H       
  47 H47           -1.4096     0.6967    -1.6222 H       
  48 H48           -2.9509    -3.4273    -3.2823 H       
  49 H49            1.3446    -4.1255    -0.2912 H       
  50 H50            2.4117    -6.3237    -0.8304 H       
  51 H51            2.0036    -8.7313    -1.1342 H       
  52 H52           -2.1949    -7.9808    -1.4400 H       
  53 H53           -1.7874    -5.5742    -1.1276 H       
  54 H54           -3.1573   -11.9837    -4.4404 H       
  55 H55           -3.8641   -10.7222    -3.4027 H       
  56 H56           -1.0059   -11.7814    -3.2324 H       
  57 H57           -1.4971   -10.2104    -3.9119 H       
  58 H58           -2.4075    -9.5266    -1.7235 H       
  59 H59           -1.3765   -12.2376    -0.7666 H       
  60 H60           -2.1225   -10.9805     0.2502 H       
  61 H61           -4.2166   -11.1563    -1.0565 H       
  62 H62           -3.7687   -12.7366    -0.3711 H       
  63 H63           -4.6752   -13.6858    -3.7281 H       
  64 H64           -4.9661   -13.9486    -1.9918 H       
  65 H65           -5.5395   -12.4563    -2.7744 H       
  66 H66            0.8472   -11.1591    -0.3334 H       
  67 H67            0.5629   -11.6869    -2.0094 H       
  68 H68            1.6818   -10.3430    -1.6772 H       
@<TRIPOS>BOND
   1    1    2 ar
   2    1    6 ar
   3    1    7 1
   4    2    3 ar
   5    2   13 1
   6    3    4 ar
   7    3   37 1
   8    4    5 ar
   9    4   38 1
  10    5    6 ar
  11    5   39 1
  12    6   40 1
  13    7    8 2
  14    7    9 2
  15    7   10 am
  16   10   11 1
  17   10   12 1
  18   11   41 1
  19   11   42 1
  20   11   43 1
  21   12   44 1
  22   12   45 1
  23   12   46 1
  24   13   16 1
  25   13   47 1
  26   14   15 ar
  27   14   19 ar
  28   14   20 1
  29   15   16 ar
  30   16   17 ar
  31   17   18 ar
  32   17   36 1
  33   18   19 ar
  34   18   48 1
  35   20   21 1
  36   20   49 1
  37   21   22 ar
  38   21   26 ar
  39   22   23 ar
  40   22   50 1
  41   23   24 ar
  42   23   51 1
  43   24   25 ar
  44   24   27 1
  45   25   26 ar
  46   25   52 1
  47   26   53 1
  48   27   31 1
  49   27   35 1
  50   28   29 1
  51   28   33 1
  52   28   34 1
  53   29   30 1
  54   29   54 1
  55   29   55 1
  56   30   31 1
  57   30   56 1
  58   30   57 1
  59   31   32 1
  60   31   58 1
  61   32   33 1
  62   32   59 1
  63   32   60 1
  64   33   61 1
  65   33   62 1
  66   34   63 1
  67   34   64 1
  68   34   65 1
  69   35   66 1
  70   35   67 1
  71   35   68 1

#	End of record

