#	Name: ASD10610022
#	Creating user name:	WinNT
#	Creation time:	15. 06. 2019 21:27

#	Modifying user name:	WinNT
#	Modification time:	15. 06. 2019 21:27

#	Program:	/corina/corina34_cracker 3.40 0067  02.08.2006

@<TRIPOS>MOLECULE
ASD10610022
  58   62    0    0    0
SMALL
NO_CHARGES


@<TRIPOS>ATOM
   1 C1             0.0306     1.4786     0.0488 C.3     
   2 C2             0.2331    -0.0340    -0.0605 C.3     
   3 C3             1.4451     0.8958     0.0261 C.3     
   4 C4            -0.4411     2.2083    -1.1825 C.2     
   5 O5            -0.2362     1.7384    -2.2816 O.2     
   6 N6            -1.0907     3.3830    -1.0622 N.am    
   7 C7            -1.4523     4.1461    -2.2594 C.3     
   8 C8            -2.1838     5.4465    -1.8649 C.3     
   9 C9            -1.0274     6.4652    -1.7816 C.3     
  10 C10            0.0383     5.9321    -2.7154 C.ar    
  11 C11            1.1320     6.5645    -3.2776 C.ar    
  12 C12            1.9886     5.8614    -4.1209 C.ar    
  13 C13            1.7378     4.5175    -4.3945 C.ar    
  14 C14            0.6453     3.8954    -3.8291 C.ar    
  15 C15           -0.2057     4.5984    -2.9903 C.ar    
  16 C16           -2.3331     3.3002    -3.1811 C.3     
  17 C17            3.1609     6.5385    -4.7250 C.ar    
  18 C18            4.4338     5.9526    -4.6425 C.ar    
  19 C19            5.5283     6.5986    -5.2147 C.ar    
  20 C20            5.3559     7.8100    -5.8591 C.ar    
  21 C21            4.0996     8.3870    -5.9392 C.ar    
  22 C22            3.0040     7.7555    -5.3816 C.ar    
  23 N23            5.7434     3.9917    -3.7974 N.2     
  24 N24            5.4829     2.9129    -3.1423 N.pl3   
  25 N25            4.2245     2.8699    -2.8750 N.2     
  26 N26            3.6576     3.9239    -3.3561 N.2     
  27 C27            4.6131     4.6537    -3.9500 C.2     
  28 C28            6.4652     1.8947    -2.7620 C.3     
  29 F29            6.7569     6.0418    -5.1396 F       
  30 Cl30           3.8986     9.9083    -6.7508 Cl      
  31 N31           -0.4639     2.0045     1.3236 N.am    
  32 C32           -1.7007     1.6822     1.7512 C.2     
  33 O33           -2.3698     0.8860     1.1272 O.2     
  34 C34           -2.2523     2.3111     3.0047 C.3     
  35 F35           -3.5420     1.8237     3.2424 F       
  36 F36           -1.4266     1.9931     4.0883 F       
  37 F37           -2.3005     3.7004     2.8471 F       
  38 H38           -0.0016    -0.6378     0.8161 H       
  39 H39            0.0251    -0.5014    -1.0230 H       
  40 H40            2.0344     1.0401    -0.8794 H       
  41 H41            2.0077     0.9036     0.9596 H       
  42 H42           -1.3189     3.7232    -0.1829 H       
  43 H43           -2.9007     5.7361    -2.6332 H       
  44 H44           -2.6740     5.3370    -0.8975 H       
  45 H45           -1.3641     7.4474    -2.1135 H       
  46 H46           -0.6444     6.5202    -0.7626 H       
  47 H47            1.3219     7.6057    -3.0626 H       
  48 H48            2.3973     3.9656    -5.0478 H       
  49 H49            0.4508     2.8545    -4.0414 H       
  50 H50           -3.2483     3.0249    -2.6569 H       
  51 H51           -2.5839     3.8754    -4.0724 H       
  52 H52           -1.7947     2.3978    -3.4705 H       
  53 H53            6.2054     8.3088    -6.3018 H       
  54 H54            2.0262     8.2089    -5.4516 H       
  55 H55            6.8800     2.1375    -1.7837 H       
  56 H56            5.9797     0.9197    -2.7189 H       
  57 H57            7.2666     1.8692    -3.5004 H       
  58 H58            0.0989     2.5846     1.8599 H       
@<TRIPOS>BOND
   1    1    2 1
   2    1    3 1
   3    1    4 1
   4    1   31 1
   5    2    3 1
   6    2   38 1
   7    2   39 1
   8    3   40 1
   9    3   41 1
  10    4    5 2
  11    4    6 am
  12    6    7 1
  13    6   42 1
  14    7    8 1
  15    7   15 1
  16    7   16 1
  17    8    9 1
  18    8   43 1
  19    8   44 1
  20    9   10 1
  21    9   45 1
  22    9   46 1
  23   10   11 ar
  24   10   15 ar
  25   11   12 ar
  26   11   47 1
  27   12   13 ar
  28   12   17 1
  29   13   14 ar
  30   13   48 1
  31   14   15 ar
  32   14   49 1
  33   16   50 1
  34   16   51 1
  35   16   52 1
  36   17   18 ar
  37   17   22 ar
  38   18   19 ar
  39   18   27 1
  40   19   20 ar
  41   19   29 1
  42   20   21 ar
  43   20   53 1
  44   21   22 ar
  45   21   30 1
  46   22   54 1
  47   23   24 1
  48   23   27 2
  49   24   25 1
  50   24   28 1
  51   25   26 2
  52   26   27 1
  53   28   55 1
  54   28   56 1
  55   28   57 1
  56   31   32 am
  57   31   58 1
  58   32   33 2
  59   32   34 1
  60   34   35 1
  61   34   36 1
  62   34   37 1

#	End of record

