#	Name: ASD10410281
#	Creating user name:	WinNT
#	Creation time:	15. 06. 2019 21:27

#	Modifying user name:	WinNT
#	Modification time:	15. 06. 2019 21:27

#	Program:	/corina/corina34_cracker 3.40 0067  02.08.2006

@<TRIPOS>MOLECULE
ASD10410281
  70   76    0    0    0
SMALL
NO_CHARGES


@<TRIPOS>ATOM
   1 C1            -0.0173     1.3942    -0.1005 C.ar    
   2 C2            -0.0055     0.0102     0.0339 C.ar    
   3 N3             1.1369    -0.6496     0.1416 N.ar    
   4 C4             2.3007    -0.0279     0.1258 C.ar    
   5 C5             2.3663     1.3512    -0.0051 C.ar    
   6 C6             1.1836     2.0799    -0.1211 C.ar    
   7 N7             3.6056     2.0039    -0.0202 N.pl3   
   8 C8             3.7510     3.2087    -0.7079 C.2     
   9 N9             4.8267     3.9591    -0.7103 N.2     
  10 N10            2.8176     3.7823    -1.4763 N.2     
  11 C11            3.2835     4.9079    -1.9737 C.2     
  12 N12            4.5493     5.0704    -1.5226 N.pl3   
  13 N13            2.6020     5.7703    -2.8114 N.pl3   
  14 C14            5.4098     6.1332    -1.8090 C.ar    
  15 C15            6.6768     6.1774    -1.2837 C.ar    
  16 N16            5.0258     7.1316    -2.6051 N.ar    
  17 N17            5.7888     8.1240    -2.8902 N.ar    
  18 C18            7.0250     8.2427    -2.4175 C.ar    
  19 C19            7.5017     7.2584    -1.5960 C.ar    
  20 N20           -1.2095    -0.6898     0.0558 N.3     
  21 C21           -0.9769    -2.1332     0.2043 C.3     
  22 C22           -2.3221    -2.8564     0.3038 C.3     
  23 N23           -3.1168    -2.5751    -0.8998 N.3     
  24 C24           -3.3494    -1.1317    -1.0484 C.3     
  25 C25           -2.0043    -0.4085    -1.1479 C.3     
  26 C26           -4.3867    -3.3133    -0.8767 C.3     
  27 C27           -5.2887    -2.8120    -2.0063 C.3     
  28 C28            8.8626     7.1863    -0.9493 C.3     
  29 C29            9.5171     5.8691    -1.4006 C.3     
  30 C30            8.6153     4.6816    -1.0640 C.3     
  31 C31            7.3249     5.1656    -0.3719 C.3     
  32 C32            7.7450     5.9034     0.9112 C.3     
  33 C33            8.6453     7.0902     0.5708 C.3     
  34 Cl34           8.0117     9.6080    -2.8371 Cl      
  35 C35           -2.0842    -4.3635     0.4177 C.3     
  36 C36           -6.6170    -3.5390    -2.2251 C.3     
  37 C37           -6.6041    -2.1368    -1.6131 C.3     
  38 H38           -0.9525     1.9266    -0.1921 H       
  39 H39            3.2126    -0.5996     0.2162 H       
  40 H40            1.2046     3.1547    -0.2247 H       
  41 H41            4.3626     1.6180     0.4477 H       
  42 H42            1.6935     5.5658    -3.0828 H       
  43 H43            3.0322     6.5800    -3.1279 H       
  44 H44           -0.4279    -2.5041    -0.6612 H       
  45 H45           -0.3974    -2.3170     1.1090 H       
  46 H46           -2.8595    -2.5052     1.1847 H       
  47 H47           -3.9289    -0.9479    -1.9531 H       
  48 H48           -3.8985    -0.7609    -0.1828 H       
  49 H49           -2.1737     0.6652    -1.2290 H       
  50 H50           -1.4669    -0.7597    -2.0288 H       
  51 H51           -4.1911    -4.3770    -1.0128 H       
  52 H52           -4.8818    -3.1546     0.0812 H       
  53 H53           -4.7715    -2.4325    -2.8876 H       
  54 H54            9.4755     8.0457    -1.2213 H       
  55 H55            9.6849     5.9004    -2.4771 H       
  56 H56           10.4743     5.7499    -0.8930 H       
  57 H57            8.3576     4.1533    -1.9819 H       
  58 H58            9.1474     4.0024    -0.3980 H       
  59 H59            6.6520     4.3337    -0.1639 H       
  60 H60            6.8551     6.2627     1.4281 H       
  61 H61            8.2834     5.2153     1.5628 H       
  62 H62            9.6084     6.9633     1.0652 H       
  63 H63            8.1790     8.0088     0.9269 H       
  64 H64           -1.4931    -4.5717     1.3095 H       
  65 H65           -3.0424    -4.8783     0.4886 H       
  66 H66           -1.5477    -4.7143    -0.4639 H       
  67 H67           -6.9740    -3.6374    -3.2503 H       
  68 H68           -6.8483    -4.3744    -1.5643 H       
  69 H69           -6.8269    -2.0497    -0.5497 H       
  70 H70           -6.9526    -1.3127    -2.2357 H       
@<TRIPOS>BOND
   1    1    2 ar
   2    1    6 ar
   3    1   38 1
   4    2    3 ar
   5    2   20 1
   6    3    4 ar
   7    4    5 ar
   8    4   39 1
   9    5    6 ar
  10    5    7 1
  11    6   40 1
  12    7    8 1
  13    7   41 1
  14    8    9 2
  15    8   10 1
  16    9   12 1
  17   10   11 2
  18   11   12 1
  19   11   13 1
  20   12   14 1
  21   13   42 1
  22   13   43 1
  23   14   15 ar
  24   14   16 ar
  25   15   19 ar
  26   15   31 1
  27   16   17 ar
  28   17   18 ar
  29   18   19 ar
  30   18   34 1
  31   19   28 1
  32   20   21 1
  33   20   25 1
  34   21   22 1
  35   21   44 1
  36   21   45 1
  37   22   23 1
  38   22   35 1
  39   22   46 1
  40   23   24 1
  41   23   26 1
  42   24   25 1
  43   24   47 1
  44   24   48 1
  45   25   49 1
  46   25   50 1
  47   26   27 1
  48   26   51 1
  49   26   52 1
  50   27   36 1
  51   27   37 1
  52   27   53 1
  53   28   29 1
  54   28   33 1
  55   28   54 1
  56   29   30 1
  57   29   55 1
  58   29   56 1
  59   30   31 1
  60   30   57 1
  61   30   58 1
  62   31   32 1
  63   31   59 1
  64   32   33 1
  65   32   60 1
  66   32   61 1
  67   33   62 1
  68   33   63 1
  69   35   64 1
  70   35   65 1
  71   35   66 1
  72   36   37 1
  73   36   67 1
  74   36   68 1
  75   37   69 1
  76   37   70 1

#	End of record

