#	Name: ASD13490063
#	Creating user name:	WinNT
#	Creation time:	15. 06. 2019 21:30

#	Modifying user name:	WinNT
#	Modification time:	15. 06. 2019 21:30

#	Program:	/corina/corina34_cracker 3.40 0067  02.08.2006

@<TRIPOS>MOLECULE
ASD13490063
  66   70    0    0    0
SMALL
NO_CHARGES


@<TRIPOS>ATOM
   1 C1            -1.0960     1.0531    -0.8723 C.ar    
   2 C2            -1.2226    -0.3293    -0.9091 C.ar    
   3 C3            -0.1117    -1.1187    -1.1541 C.ar    
   4 C4             1.1307    -0.5240    -1.3631 C.ar    
   5 C5             1.2530     0.8566    -1.3256 C.ar    
   6 C6             0.1439     1.6432    -1.0810 C.ar    
   7 N7             2.2595    -1.3231    -1.6114 N.pl3   
   8 C8             3.1573    -1.1674    -2.6348 C.2     
   9 C9             4.0769    -2.1423    -2.4980 C.2     
  10 N10            3.7509    -2.8733    -1.4219 N.2     
  11 C11            2.6667    -2.3862    -0.8818 C.2     
  12 C12            5.2644    -2.3715    -3.3972 C.3     
  13 O13           -0.2331    -2.4722    -1.1901 O.3     
  14 C14           -1.5369    -3.0128    -0.9667 C.3     
  15 N15           -2.2180     1.8514    -0.6308 N.3     
  16 C16           -1.8609     3.2763    -0.6347 C.3     
  17 C17           -3.1376     4.1196    -0.5485 C.3     
  18 N18           -3.9127     3.6758     0.6200 N.am    
  19 C19           -4.1928     2.2391     0.7644 C.3     
  20 C20           -2.8746     1.4699     0.6266 C.3     
  21 C21           -4.3550     4.5621     1.5339 C.2     
  22 O22           -5.0720     4.1912     2.4431 O.2     
  23 N23           -4.0024     5.8595     1.4401 N.am    
  24 C24           -4.5710     6.8420     2.3662 C.3     
  25 C25           -4.4677     8.2192     1.7633 C.ar    
  26 C26           -5.3865     9.2193     2.1249 C.ar    
  27 C27           -3.4809     8.5026     0.8700 C.ar    
  28 C28           -3.3693     9.7707     0.3024 C.ar    
  29 C29           -4.2439    10.7622     0.6248 C.ar    
  30 C30           -5.2732    10.5086     1.5476 C.ar    
  31 C31           -6.1924    11.5084     1.9087 C.ar    
  32 C32           -7.1765    11.2262     2.8055 C.ar    
  33 C33           -7.2876     9.9584     3.3736 C.ar    
  34 C34           -6.4158     8.9655     3.0475 C.ar    
  35 C35           -3.7992     6.8042     3.6868 C.3     
  36 H36           -2.1866    -0.7883    -0.7465 H       
  37 H37            2.2162     1.3175    -1.4873 H       
  38 H38            0.2412     2.7185    -1.0521 H       
  39 H39            3.1321    -0.4092    -3.4035 H       
  40 H40            2.1753    -2.7700    -0.0000 H       
  41 H41            6.1185    -1.8080    -3.0217 H       
  42 H42            5.5084    -3.4337    -3.4131 H       
  43 H43            5.0251    -2.0385    -4.4071 H       
  44 H44           -1.4936    -4.1005    -1.0223 H       
  45 H45           -1.8902    -2.7132     0.0200 H       
  46 H46           -2.2213    -2.6370    -1.7272 H       
  47 H47           -1.2229     3.4937     0.2220 H       
  48 H48           -1.3285     3.5154    -1.5552 H       
  49 H49           -2.8747     5.1714    -0.4356 H       
  50 H50           -3.7289     3.9822    -1.4538 H       
  51 H51           -4.6276     2.0477     1.7454 H       
  52 H52           -4.8856     1.9210    -0.0147 H       
  53 H53           -3.0774     0.3990     0.6208 H       
  54 H54           -2.2225     1.7125     1.4657 H       
  55 H55           -3.3722     6.1428     0.7593 H       
  56 H56           -5.6185     6.6036     2.5507 H       
  57 H57           -2.7734     7.7336     0.5972 H       
  58 H58           -2.5766     9.9694    -0.4037 H       
  59 H59           -4.1450    11.7401     0.1772 H       
  60 H60           -6.1181    12.4956     1.4771 H       
  61 H61           -7.8816    11.9963     3.0813 H       
  62 H62           -8.0774     9.7609     4.0833 H       
  63 H63           -6.5142     7.9879     3.4958 H       
  64 H64           -3.8739     5.8080     4.1229 H       
  65 H65           -2.7517     7.0425     3.5023 H       
  66 H66           -4.2222     7.5351     4.3759 H       
@<TRIPOS>BOND
   1    1    2 ar
   2    1    6 ar
   3    1   15 1
   4    2    3 ar
   5    2   36 1
   6    3    4 ar
   7    3   13 1
   8    4    5 ar
   9    4    7 1
  10    5    6 ar
  11    5   37 1
  12    6   38 1
  13    7    8 1
  14    7   11 1
  15    8    9 2
  16    8   39 1
  17    9   10 1
  18    9   12 1
  19   10   11 2
  20   11   40 1
  21   12   41 1
  22   12   42 1
  23   12   43 1
  24   13   14 1
  25   14   44 1
  26   14   45 1
  27   14   46 1
  28   15   16 1
  29   15   20 1
  30   16   17 1
  31   16   47 1
  32   16   48 1
  33   17   18 1
  34   17   49 1
  35   17   50 1
  36   18   19 1
  37   18   21 am
  38   19   20 1
  39   19   51 1
  40   19   52 1
  41   20   53 1
  42   20   54 1
  43   21   22 2
  44   21   23 am
  45   23   24 1
  46   23   55 1
  47   24   25 1
  48   24   35 1
  49   24   56 1
  50   25   27 ar
  51   25   26 ar
  52   26   30 ar
  53   26   34 ar
  54   27   28 ar
  55   27   57 1
  56   28   29 ar
  57   28   58 1
  58   29   30 ar
  59   29   59 1
  60   30   31 ar
  61   31   32 ar
  62   31   60 1
  63   32   33 ar
  64   32   61 1
  65   33   34 ar
  66   33   62 1
  67   34   63 1
  68   35   64 1
  69   35   65 1
  70   35   66 1

#	End of record

