#	Name: ASD14300008
#	Creating user name:	WinNT
#	Creation time:	15. 06. 2019 21:31

#	Modifying user name:	WinNT
#	Modification time:	15. 06. 2019 21:31

#	Program:	/corina/corina34_cracker 3.40 0067  02.08.2006

@<TRIPOS>MOLECULE
ASD14300008
  74   77    0    0    0
SMALL
NO_CHARGES


@<TRIPOS>ATOM
   1 N1             0.1145     1.4296    -0.5629 N.pl3   
   2 C2             0.2062     0.0991    -0.8243 C.2     
   3 C3             1.3895    -0.3525    -0.3492 C.2     
   4 C4             2.0599     0.7339     0.2290 C.2     
   5 C5             1.2565     1.8281     0.0878 C.2     
   6 C6             1.5609     3.1948     0.5504 C.ar    
   7 N7             2.7609     3.4756     1.0586 N.ar    
   8 C8             3.0333     4.7075     1.4749 C.ar    
   9 N9             2.1098     5.6600     1.3852 N.ar    
  10 C10            0.9126     5.3818     0.8787 C.ar    
  11 N11            0.6385     4.1521     0.4558 N.ar    
  12 N12           -0.0445     6.3721     0.7866 N.pl3   
  13 N13            4.2757     4.9987     2.0012 N.3     
  14 C14            5.0951     3.8664     2.0071 C.3     
  15 C15            7.3455     4.9189     1.9409 C.3     
  16 C16            4.8634     6.1838     1.3456 C.3     
  17 C17            5.7565     6.8758     2.3447 C.3     
  18 C18            7.2225     6.4344     2.1957 C.3     
  19 C19           -1.4004     6.0413     0.3412 C.3     
  20 C20            0.2956     7.7540     1.1343 C.3     
  21 C21            6.4019     4.1093     2.7935 C.3     
  22 C22           -2.2695     5.7096     1.5560 C.3     
  23 C23           -3.6856     5.3641     1.0908 C.3     
  24 C24           -4.5547     5.0324     2.3056 C.3     
  25 C25            0.8024     8.4834    -0.1116 C.3     
  26 C26            1.1575     9.9266     0.2515 C.3     
  27 C27            1.6643    10.6560    -0.9943 C.3     
  28 C28           -1.0118     2.2954    -0.9209 C.3     
  29 C29           -0.8016     2.8451    -2.3082 C.ar    
  30 C30           -0.4165     3.8537    -4.8534 C.ar    
  31 C31            0.1287     4.5042    -3.7623 C.ar    
  32 C32           -0.0641     4.0001    -2.4897 C.ar    
  33 C33           -1.3416     2.1912    -3.3999 C.ar    
  34 C34           -1.1489     2.6954    -4.6725 C.ar    
  35 H35           -0.5407    -0.4977    -1.3266 H       
  36 H36            1.7525    -1.3681    -0.4055 H       
  37 H37            3.0318     0.7096     0.6993 H       
  38 H38            4.5537     3.0385     2.4649 H       
  39 H39            5.3431     3.6018     0.9792 H       
  40 H40            7.1306     4.7196     0.8911 H       
  41 H41            8.3681     4.6077     2.1543 H       
  42 H42            5.4497     5.8734     0.4807 H       
  43 H43            4.0701     6.8612     1.0296 H       
  44 H44            5.6921     7.9532     2.1930 H       
  45 H45            5.4142     6.6386     3.3520 H       
  46 H46            7.7629     6.6855     3.1084 H       
  47 H47            7.6714     6.9719     1.3604 H       
  48 H48           -1.8267     6.8931    -0.1888 H       
  49 H49           -1.3638     5.1798    -0.3255 H       
  50 H50           -0.5903     8.2610     1.5169 H       
  51 H51            1.0734     7.7557     1.8978 H       
  52 H52            6.1795     4.6551     3.7105 H       
  53 H53            6.8625     3.1526     3.0397 H       
  54 H54           -1.8432     4.8579     2.0860 H       
  55 H55           -2.3061     6.5711     2.2227 H       
  56 H56           -4.1118     6.2158     0.5608 H       
  57 H57           -3.6489     4.5026     0.4241 H       
  58 H58           -5.5635     4.7863     1.9742 H       
  59 H59           -4.1284     4.1806     2.8356 H       
  60 H60           -4.5913     5.8939     2.9723 H       
  61 H61            1.6882     7.9765    -0.4942 H       
  62 H62            0.0245     8.4818    -0.8752 H       
  63 H63            0.2717    10.4336     0.6341 H       
  64 H64            1.9354     9.9283     1.0151 H       
  65 H65            2.5502    10.1491    -1.3770 H       
  66 H66            0.8865    10.6544    -1.7579 H       
  67 H67            1.9173    11.6842    -0.7357 H       
  68 H68           -1.9362     1.7185    -0.8948 H       
  69 H69           -1.0772     3.1190    -0.2099 H       
  70 H70           -0.2659     4.2476    -5.8477 H       
  71 H71            0.7009     5.4092    -3.9037 H       
  72 H72            0.3612     4.5087    -1.6372 H       
  73 H73           -1.9138     1.2861    -3.2585 H       
  74 H74           -1.5749     2.1871    -5.5249 H       
@<TRIPOS>BOND
   1    1    2 1
   2    1    5 1
   3    1   28 1
   4    2    3 2
   5    2   35 1
   6    3    4 1
   7    3   36 1
   8    4    5 2
   9    4   37 1
  10    5    6 1
  11    6    7 ar
  12    6   11 ar
  13    7    8 ar
  14    8    9 ar
  15    8   13 1
  16    9   10 ar
  17   10   11 ar
  18   10   12 1
  19   12   19 1
  20   12   20 1
  21   13   14 1
  22   13   16 1
  23   14   21 1
  24   14   38 1
  25   14   39 1
  26   15   18 1
  27   15   21 1
  28   15   40 1
  29   15   41 1
  30   16   17 1
  31   16   42 1
  32   16   43 1
  33   17   18 1
  34   17   44 1
  35   17   45 1
  36   18   46 1
  37   18   47 1
  38   19   22 1
  39   19   48 1
  40   19   49 1
  41   20   25 1
  42   20   50 1
  43   20   51 1
  44   21   52 1
  45   21   53 1
  46   22   23 1
  47   22   54 1
  48   22   55 1
  49   23   24 1
  50   23   56 1
  51   23   57 1
  52   24   58 1
  53   24   59 1
  54   24   60 1
  55   25   26 1
  56   25   61 1
  57   25   62 1
  58   26   27 1
  59   26   63 1
  60   26   64 1
  61   27   65 1
  62   27   66 1
  63   27   67 1
  64   28   29 1
  65   28   68 1
  66   28   69 1
  67   29   33 ar
  68   29   32 ar
  69   30   31 ar
  70   30   34 ar
  71   30   70 1
  72   31   32 ar
  73   31   71 1
  74   32   72 1
  75   33   34 ar
  76   33   73 1
  77   34   74 1

#	End of record

