#	Name: ASD10410165
#	Creating user name:	WinNT
#	Creation time:	15. 06. 2019 21:27

#	Modifying user name:	WinNT
#	Modification time:	15. 06. 2019 21:27

#	Program:	/corina/corina34_cracker 3.40 0067  02.08.2006

@<TRIPOS>MOLECULE
ASD10410165
  72   78    0    0    0
SMALL
NO_CHARGES


@<TRIPOS>ATOM
   1 C1            -0.1988     1.1562     0.2507 C.ar    
   2 C2            -0.0246    -0.2181     0.1729 C.ar    
   3 C3             1.2493    -0.7486    -0.0008 C.ar    
   4 C4             2.3409     0.0937    -0.0957 C.ar    
   5 C5             2.1648     1.4694    -0.0176 C.ar    
   6 C6             0.8927     1.9979     0.1558 C.ar    
   7 F7             1.4197    -2.0867    -0.0762 F       
   8 N8             3.2705     2.3232    -0.1132 N.pl3   
   9 C9             3.1247     3.5932    -0.6714 C.2     
  10 N10            4.0578     4.5134    -0.7241 N.2     
  11 N11            2.0121     4.0670    -1.2445 N.2     
  12 C12            2.2194     5.2965    -1.6648 C.2     
  13 N13            3.4957     5.6309    -1.3621 N.pl3   
  14 C14            4.1284     6.8466    -1.6316 C.ar    
  15 N15            1.2979     6.1028    -2.3055 N.pl3   
  16 N16           -1.1320    -1.0715     0.2697 N.3     
  17 C17           -1.8199    -0.8977     1.5566 C.3     
  18 C18           -3.0652    -1.7868     1.5905 C.3     
  19 N19           -2.6689    -3.1882     1.3934 N.3     
  20 C20           -1.9811    -3.3619     0.1065 C.3     
  21 C21           -0.7357    -2.4728     0.0726 C.3     
  22 N22            3.6974     7.6018    -2.6302 N.ar    
  23 C23            4.2611     8.7579    -2.9242 C.ar    
  24 C24            5.3328     9.2304    -2.1959 C.ar    
  25 C25            5.8231     8.4669    -1.1313 C.ar    
  26 C26            5.1980     7.2522    -0.8463 C.ar    
  27 C27           -3.8297    -4.0827     1.4949 C.3     
  28 C28           -4.4652    -3.9897     2.9157 C.3     
  29 C29           -3.3868    -5.5576     1.3607 C.3     
  30 C30           -3.7963    -6.2168     2.7132 C.3     
  31 C31           -3.2582    -4.1292     3.8930 C.3     
  32 C32           -2.8153    -5.6041     3.7589 C.3     
  33 C33           -5.1063    -5.4168     3.0409 C.3     
  34 C34            6.9742     8.9389    -0.3226 C.ar    
  35 C35            7.5834    10.1569    -0.6175 C.ar    
  36 C36            8.6534    10.5913     0.1382 C.ar    
  37 C37            9.1215     9.8197     1.1865 C.ar    
  38 C38            8.5209     8.6096     1.4835 C.ar    
  39 C39            7.4463     8.1685     0.7382 C.ar    
  40 H40           -1.1886     1.5683     0.3811 H       
  41 H41            3.3304    -0.3175    -0.2302 H       
  42 H42            0.7564     3.0676     0.2165 H       
  43 H43            4.1378     2.0315     0.2087 H       
  44 H44            0.4033     5.7718    -2.4816 H       
  45 H45            1.5457     6.9998    -2.5792 H       
  46 H46           -1.1494    -1.1799     2.3684 H       
  47 H47           -2.1143     0.1452     1.6737 H       
  48 H48           -3.5611    -1.6814     2.5554 H       
  49 H49           -3.7480    -1.4867     0.7957 H       
  50 H50           -1.6866    -4.4048    -0.0106 H       
  51 H51           -2.6516    -3.0797    -0.7053 H       
  52 H52           -0.2398    -2.5782    -0.8923 H       
  53 H53           -0.0529    -2.7729     0.8674 H       
  54 H54            3.8779     9.3427    -3.7473 H       
  55 H55            5.7880    10.1777    -2.4447 H       
  56 H56            5.5466     6.6336    -0.0326 H       
  57 H57           -4.5674    -3.8348     0.7317 H       
  58 H58           -5.1224    -3.1375     3.0889 H       
  59 H59           -3.9073    -6.0368     0.5315 H       
  60 H60           -2.3077    -5.6190     1.2195 H       
  61 H61           -3.8710    -7.3042     2.7099 H       
  62 H62           -2.4497    -3.4611     3.5962 H       
  63 H63           -3.5709    -3.9179     4.9156 H       
  64 H64           -2.9102    -6.1179     4.7155 H       
  65 H65           -1.7890    -5.6611     3.3961 H       
  66 H66           -5.4655    -5.6165     4.0504 H       
  67 H67           -5.8838    -5.5825     2.2951 H       
  68 H68            7.2191    10.7598    -1.4363 H       
  69 H69            9.1263    11.5352    -0.0895 H       
  70 H70            9.9593    10.1633     1.7752 H       
  71 H71            8.8909     8.0109     2.3026 H       
  72 H72            6.9780     7.2235     0.9709 H       
@<TRIPOS>BOND
   1    1    2 ar
   2    1    6 ar
   3    1   40 1
   4    2    3 ar
   5    2   16 1
   6    3    4 ar
   7    3    7 1
   8    4    5 ar
   9    4   41 1
  10    5    6 ar
  11    5    8 1
  12    6   42 1
  13    8    9 1
  14    8   43 1
  15    9   10 2
  16    9   11 1
  17   10   13 1
  18   11   12 2
  19   12   13 1
  20   12   15 1
  21   13   14 1
  22   14   22 ar
  23   14   26 ar
  24   15   44 1
  25   15   45 1
  26   16   17 1
  27   16   21 1
  28   17   18 1
  29   17   46 1
  30   17   47 1
  31   18   19 1
  32   18   48 1
  33   18   49 1
  34   19   20 1
  35   19   27 1
  36   20   21 1
  37   20   50 1
  38   20   51 1
  39   21   52 1
  40   21   53 1
  41   22   23 ar
  42   23   24 ar
  43   23   54 1
  44   24   25 ar
  45   24   55 1
  46   25   26 ar
  47   25   34 1
  48   26   56 1
  49   27   28 1
  50   27   29 1
  51   27   57 1
  52   28   31 1
  53   28   33 1
  54   28   58 1
  55   29   30 1
  56   29   59 1
  57   29   60 1
  58   30   32 1
  59   30   33 1
  60   30   61 1
  61   31   32 1
  62   31   62 1
  63   31   63 1
  64   32   64 1
  65   32   65 1
  66   33   66 1
  67   33   67 1
  68   34   35 ar
  69   34   39 ar
  70   35   36 ar
  71   35   68 1
  72   36   37 ar
  73   36   69 1
  74   37   38 ar
  75   37   70 1
  76   38   39 ar
  77   38   71 1
  78   39   72 1

#	End of record

