#	Name: ASD14170005
#	Creating user name:	WinNT
#	Creation time:	15. 06. 2019 21:30

#	Modifying user name:	WinNT
#	Modification time:	15. 06. 2019 21:30

#	Program:	/corina/corina34_cracker 3.40 0067  02.08.2006

@<TRIPOS>MOLECULE
ASD14170005
  41   43    0    0    0
SMALL
NO_CHARGES


@<TRIPOS>ATOM
   1 C1             0.3629     1.8718     0.0326 C.2     
   2 C2             0.3862     0.4869    -0.2214 C.2     
   3 C3             1.5519    -0.0123     0.3303 C.2     
   4 N4             2.2059     1.0278     0.8942 N.pl3   
   5 N5             1.4447     2.1851     0.6942 N.2     
   6 N6             1.9730    -1.3388     0.3096 N.am    
   7 C7             3.4906     0.9558     1.5948 C.3     
   8 C8            -0.7208     2.8291    -0.3918 C.3     
   9 F9            -1.6933     2.9067     0.6109 F       
  10 F10           -0.1671     4.0963    -0.6034 F       
  11 F11           -1.3082     2.3730    -1.5768 F       
  12 C12           -0.6481    -0.2920    -0.9454 C.ar    
  13 C13           -0.8842    -0.0525    -2.2979 C.ar    
  14 C14           -1.8474    -0.7794    -2.9673 C.ar    
  15 C15           -2.5791    -1.7461    -2.2970 C.ar    
  16 C16           -2.3478    -1.9876    -0.9527 C.ar    
  17 C17           -1.3827    -1.2695    -0.2766 C.ar    
  18 F18           -3.5213    -2.4551    -2.9563 F       
  19 C19            3.1542    -1.6621    -0.2533 C.2     
  20 N20            3.5866    -2.9383    -0.2263 N.am    
  21 O21            3.8297    -0.8024    -0.7853 O.2     
  22 C22            4.8572    -3.2571    -0.7182 C.ar    
  23 C23            6.6329    -2.8819    -2.2873 C.ar    
  24 C24            7.3714    -3.8899    -1.6891 C.ar    
  25 C25            6.8527    -4.5839    -0.6121 C.ar    
  26 C26            5.5985    -4.2706    -0.1252 C.ar    
  27 C27            5.3766    -2.5643    -1.8036 C.ar    
  28 F28            7.1423    -2.2052    -3.3398 F       
  29 H29            1.4163    -2.0305     0.7001 H       
  30 H30            4.3029     1.0662     0.8764 H       
  31 H31            3.5472     1.7558     2.3330 H       
  32 H32            3.5775    -0.0081     2.0962 H       
  33 H33           -0.3145     0.7012    -2.8212 H       
  34 H34           -2.0312    -0.5942    -4.0153 H       
  35 H35           -2.9206    -2.7421    -0.4341 H       
  36 H36           -1.1998    -1.4617     0.7703 H       
  37 H37            3.0170    -3.6359     0.1341 H       
  38 H38            8.3522    -4.1369    -2.0678 H       
  39 H39            7.4306    -5.3695    -0.1480 H       
  40 H40            5.1947    -4.8135     0.7166 H       
  41 H41            4.8004    -1.7788    -2.2698 H       
@<TRIPOS>BOND
   1    1    2 1
   2    1    5 2
   3    1    8 1
   4    2    3 2
   5    2   12 1
   6    3    4 1
   7    3    6 1
   8    4    5 1
   9    4    7 1
  10    6   19 am
  11    6   29 1
  12    7   30 1
  13    7   31 1
  14    7   32 1
  15    8    9 1
  16    8   10 1
  17    8   11 1
  18   12   13 ar
  19   12   17 ar
  20   13   14 ar
  21   13   33 1
  22   14   15 ar
  23   14   34 1
  24   15   16 ar
  25   15   18 1
  26   16   17 ar
  27   16   35 1
  28   17   36 1
  29   19   20 am
  30   19   21 2
  31   20   22 1
  32   20   37 1
  33   22   27 ar
  34   22   26 ar
  35   23   24 ar
  36   23   27 ar
  37   23   28 1
  38   24   25 ar
  39   24   38 1
  40   25   26 ar
  41   25   39 1
  42   26   40 1
  43   27   41 1

#	End of record

