#	Name: ASD10160326
#	Creating user name:	WinNT
#	Creation time:	15. 06. 2019 21:25

#	Modifying user name:	WinNT
#	Modification time:	15. 06. 2019 21:25

#	Program:	/corina/corina34_cracker 3.40 0067  02.08.2006

@<TRIPOS>MOLECULE
ASD10160326
  40   41    0    0    0
SMALL
NO_CHARGES


@<TRIPOS>ATOM
   1 C1            -0.0159     1.3207     0.0093 C.ar    
   2 N2             0.0021    -0.0041     0.0020 N.ar    
   3 C3             1.1439    -0.6663    -0.0124 C.ar    
   4 C4             2.3446     0.0514    -0.0200 C.ar    
   5 C5             2.2813     1.4489    -0.0119 C.ar    
   6 N6             1.0992     2.0363     0.0025 N.ar    
   7 O7             5.0361    -0.1045    -0.0459 O.3     
   8 B8             3.7273    -0.6921    -0.0367 Du      
   9 O9             3.9588    -2.1080    -0.0455 O.3     
  10 C10            5.0877    -2.2990     0.8330 C.3     
  11 C11            5.8181    -0.9406     0.8327 C.3     
  12 C12            7.2401    -1.1001     0.2910 C.3     
  13 C13            5.8471    -0.3506     2.2441 C.3     
  14 C14            4.6117    -2.6480     2.2446 C.3     
  15 C15            6.0047    -3.3975     0.2915 C.3     
  16 O16           -1.2072     1.9614     0.0184 O.3     
  17 C17           -1.1756     3.3900     0.0260 C.3     
  18 C18           -2.4166     3.9314    -0.6865 C.3     
  19 C19           -1.1575     3.8920     1.4712 C.3     
  20 H20            1.1510    -1.7463    -0.0179 H       
  21 H21            3.1862     2.0385    -0.0170 H       
  22 H22            7.7222    -0.1237     0.2430 H       
  23 H23            7.8093    -1.7542     0.9515 H       
  24 H24            7.2018    -1.5359    -0.7073 H       
  25 H25            4.8283    -0.2588     2.6205 H       
  26 H26            6.4192    -1.0063     2.9004 H       
  27 H27            6.3144     0.6338     2.2168 H       
  28 H28            4.0482    -3.5806     2.2178 H       
  29 H29            5.4744    -2.7635     2.9008 H       
  30 H30            3.9735    -1.8485     2.6209 H       
  31 H31            6.3471    -3.1256    -0.7070 H       
  32 H32            6.8644    -3.5114     0.9519 H       
  33 H33            5.4560    -4.3381     0.2439 H       
  34 H34           -0.2802     3.7363    -0.4902 H       
  35 H35           -3.3120     3.5851    -0.1704 H       
  36 H36           -2.3924     5.0211    -0.6807 H       
  37 H37           -2.4294     3.5738    -1.7161 H       
  38 H38           -1.1334     4.9817     1.4770 H       
  39 H39           -2.0529     3.5457     1.9873 H       
  40 H40           -0.2734     3.5063     1.9788 H       
@<TRIPOS>BOND
   1    1    2 ar
   2    1    6 ar
   3    1   16 1
   4    2    3 ar
   5    3    4 ar
   6    3   20 1
   7    4    5 ar
   8    4    8 1
   9    5    6 ar
  10    5   21 1
  11    7    8 1
  12    7   11 1
  13    8    9 1
  14    9   10 1
  15   10   11 1
  16   10   14 1
  17   10   15 1
  18   11   12 1
  19   11   13 1
  20   12   22 1
  21   12   23 1
  22   12   24 1
  23   13   25 1
  24   13   26 1
  25   13   27 1
  26   14   28 1
  27   14   29 1
  28   14   30 1
  29   15   31 1
  30   15   32 1
  31   15   33 1
  32   16   17 1
  33   17   18 1
  34   17   19 1
  35   17   34 1
  36   18   35 1
  37   18   36 1
  38   18   37 1
  39   19   38 1
  40   19   39 1
  41   19   40 1

#	End of record

