#	Name: ASD10420038
#	Creating user name:	WinNT
#	Creation time:	15. 06. 2019 21:27

#	Modifying user name:	WinNT
#	Modification time:	15. 06. 2019 21:27

#	Program:	/corina/corina34_cracker 3.40 0067  02.08.2006

@<TRIPOS>MOLECULE
ASD10420038
  30   31    0    0    0
SMALL
NO_CHARGES


@<TRIPOS>ATOM
   1 C1            -0.0167     1.3775     0.0096 C.ar    
   2 C2             0.0021    -0.0041     0.0020 C.ar    
   3 C3             1.2342    -0.6652    -0.0133 C.ar    
   4 C4             2.3988     0.1097    -0.0203 C.ar    
   5 C5             2.2870     1.4864    -0.0119 C.ar    
   6 N6             1.1049     2.0696     0.0026 N.ar    
   7 C7             1.3042    -2.1440    -0.0215 C.2     
   8 O8             0.2825    -2.8002    -0.0148 O.2     
   9 O9             2.5010    -2.7614    -0.0363 O.3     
  10 C10           -1.3376     2.1028     0.0198 C.3     
  11 C11           -1.3801     3.0526     1.1890 C.ar    
  12 C12           -0.9309     4.3515     1.0411 C.ar    
  13 C13           -0.9699     5.2227     2.1137 C.ar    
  14 C14           -1.4586     4.7951     3.3340 C.ar    
  15 C15           -1.9087     3.4965     3.4817 C.ar    
  16 C16           -1.8737     2.6265     2.4080 C.ar    
  17 C17            2.4936    -4.2133    -0.0435 C.3     
  18 H18           -0.9209    -0.5649     0.0082 H       
  19 H19            3.3706    -0.3613    -0.0318 H       
  20 H20            3.1803     2.0933    -0.0168 H       
  21 H21           -1.4514     2.6634    -0.9080 H       
  22 H22           -2.1484     1.3799     0.1093 H       
  23 H23           -0.5491     4.6856     0.0877 H       
  24 H24           -0.6182     6.2373     1.9983 H       
  25 H25           -1.4884     5.4756     4.1722 H       
  26 H26           -2.2901     3.1623     4.4352 H       
  27 H27           -2.2288     1.6130     2.5224 H       
  28 H28            1.9867    -4.5786     0.8496 H       
  29 H29            1.9693    -4.5696    -0.9302 H       
  30 H30            3.5194    -4.5818    -0.0554 H       
@<TRIPOS>BOND
   1    1    2 ar
   2    1    6 ar
   3    1   10 1
   4    2    3 ar
   5    2   18 1
   6    3    4 ar
   7    3    7 1
   8    4    5 ar
   9    4   19 1
  10    5    6 ar
  11    5   20 1
  12    7    8 2
  13    7    9 1
  14    9   17 1
  15   10   11 1
  16   10   21 1
  17   10   22 1
  18   11   12 ar
  19   11   16 ar
  20   12   13 ar
  21   12   23 1
  22   13   14 ar
  23   13   24 1
  24   14   15 ar
  25   14   25 1
  26   15   16 ar
  27   15   26 1
  28   16   27 1
  29   17   28 1
  30   17   29 1
  31   17   30 1

#	End of record

