#	Name: ASD11710007
#	Creating user name:	WinNT
#	Creation time:	15. 06. 2019 21:29

#	Modifying user name:	WinNT
#	Modification time:	15. 06. 2019 21:29

#	Program:	/corina/corina34_cracker 3.40 0067  02.08.2006

@<TRIPOS>MOLECULE
ASD11710007
  50   52    0    0    0
SMALL
NO_CHARGES


@<TRIPOS>ATOM
   1 C1             2.9655     5.4268     2.6499 C.ar    
   2 C2             2.0804     6.4877     2.6937 C.ar    
   3 C3             1.0293     6.5483     1.7980 C.ar    
   4 C4             0.8635     5.5483     0.8581 C.ar    
   5 C5             1.7492     4.4878     0.8137 C.ar    
   6 C6             2.7995     4.4265     1.7104 C.ar    
   7 C7             1.5682     3.3974    -0.2106 C.3     
   8 N8             2.3041     3.7447    -1.4288 N.am    
   9 C9             3.5870     3.3581    -1.5745 C.2     
  10 C10            4.2971     3.6161    -2.8453 C.ar    
  11 O11            4.1603     2.7975    -0.6609 O.2     
  12 C12            4.0312     4.7766    -3.5737 C.ar    
  13 C13            5.2404     2.7029    -3.3190 C.ar    
  14 C14            5.8997     2.9498    -4.5054 C.ar    
  15 C15            5.6280     4.0999    -5.2250 C.ar    
  16 C16            4.6976     5.0115    -4.7586 C.ar    
  17 S17            6.4755     4.4081    -6.7388 S.o2    
  18 N18            5.5055     3.8604    -7.9640 N.am    
  19 C19            5.1723     2.5060    -8.0387 C.ar    
  20 C20            3.8582     2.1245    -8.2781 C.ar    
  21 C21            6.1553     1.5375    -7.8794 C.ar    
  22 C22            5.8225     0.1993    -7.9538 C.ar    
  23 C23            4.5124    -0.1771    -8.1870 C.ar    
  24 C24            3.5323     0.7845    -8.3513 C.ar    
  25 O25            6.5425     5.8204    -6.8808 O.2     
  26 O26            7.6247     3.5723    -6.7326 O.2     
  27 C27            4.1531    -1.6384    -8.2685 C.3     
  28 C28            1.6455     4.5121    -2.4888 C.3     
  29 H29            3.7893     5.3817     3.3468 H       
  30 H30            2.2098     7.2690     3.4280 H       
  31 H31            0.3373     7.3768     1.8327 H       
  32 H32            0.0419     5.5953     0.1587 H       
  33 H33            3.4916     3.5982     1.6754 H       
  34 H34            1.9491     2.4573     0.1884 H       
  35 H35            0.5089     3.2903    -0.4441 H       
  36 H36            3.3052     5.4890    -3.2107 H       
  37 H37            5.4538     1.8051    -2.7579 H       
  38 H38            6.6298     2.2440    -4.8731 H       
  39 H39            4.4901     5.9073    -5.3251 H       
  40 H40            5.1686     4.4801    -8.6299 H       
  41 H41            3.0923     2.8750    -8.4065 H       
  42 H42            7.1788     1.8308    -7.6979 H       
  43 H43            6.5863    -0.5542    -7.8300 H       
  44 H44            2.5101     0.4872    -8.5333 H       
  45 H45            3.8901    -2.0037    -7.2758 H       
  46 H46            3.3041    -1.7669    -8.9398 H       
  47 H47            5.0055    -2.2014    -8.6488 H       
  48 H48            1.8190     5.5762    -2.3283 H       
  49 H49            2.0532     4.2194    -3.4563 H       
  50 H50            0.5742     4.3119    -2.4703 H       
@<TRIPOS>BOND
   1    1    2 ar
   2    1    6 ar
   3    1   29 1
   4    2    3 ar
   5    2   30 1
   6    3    4 ar
   7    3   31 1
   8    4    5 ar
   9    4   32 1
  10    5    6 ar
  11    5    7 1
  12    6   33 1
  13    7    8 1
  14    7   34 1
  15    7   35 1
  16    8    9 am
  17    8   28 1
  18    9   10 1
  19    9   11 2
  20   10   12 ar
  21   10   13 ar
  22   12   16 ar
  23   12   36 1
  24   13   14 ar
  25   13   37 1
  26   14   15 ar
  27   14   38 1
  28   15   16 ar
  29   15   17 1
  30   16   39 1
  31   17   18 am
  32   17   25 2
  33   17   26 2
  34   18   19 1
  35   18   40 1
  36   19   20 ar
  37   19   21 ar
  38   20   24 ar
  39   20   41 1
  40   21   22 ar
  41   21   42 1
  42   22   23 ar
  43   22   43 1
  44   23   24 ar
  45   23   27 1
  46   24   44 1
  47   27   45 1
  48   27   46 1
  49   27   47 1
  50   28   48 1
  51   28   49 1
  52   28   50 1

#	End of record

