#	Name: ASD13680056
#	Creating user name:	WinNT
#	Creation time:	15. 06. 2019 21:30

#	Modifying user name:	WinNT
#	Modification time:	15. 06. 2019 21:30

#	Program:	/corina/corina34_cracker 3.40 0067  02.08.2006

@<TRIPOS>MOLECULE
ASD13680056
  34   35    0    0    0
SMALL
NO_CHARGES


@<TRIPOS>ATOM
   1 C1            -0.0167     1.3815     0.0096 C.ar    
   2 C2             0.0021    -0.0041     0.0020 C.ar    
   3 C3             1.2015    -0.6867    -0.0127 C.ar    
   4 C4             2.4008     0.0138    -0.0204 C.ar    
   5 C5             2.3854     1.4173    -0.0132 C.ar    
   6 C6             1.1628     2.0938     0.0022 C.ar    
   7 N7             3.6103    -0.6717    -0.0348 N.pl3   
   8 C8             3.6149     2.1514    -0.0206 C.1     
   9 S9             1.1296     3.8554     0.0115 S.o2    
  10 O10            2.0148     4.2789    -1.0163 O.2     
  11 O11           -0.2401     4.2306     0.0609 O.2     
  12 C12            1.8451     4.3826     1.5329 C.ar    
  13 C13            1.6080     4.9745     3.8407 C.ar    
  14 C14            1.0467     4.5609     2.6471 C.ar    
  15 C15            3.2058     4.6125     1.6137 C.ar    
  16 C16            3.7672     5.0262     2.8073 C.ar    
  17 C17            2.9678     5.2104     3.9199 C.ar    
  18 C18            0.7375     5.1693     5.0553 C.3     
  19 C19            5.2507     5.2759     2.8957 C.3     
  20 N20            4.5903     2.7337    -0.0264 N.1     
  21 H21           -0.9608     1.9059     0.0170 H       
  22 H22           -0.9278    -0.5533     0.0080 H       
  23 H23            1.2076    -1.7666    -0.0178 H       
  24 H24            3.6180    -1.6417    -0.0394 H       
  25 H25            4.4464    -0.1800    -0.0402 H       
  26 H26           -0.0158     4.3773     2.5850 H       
  27 H27            3.8304     4.4686     0.7444 H       
  28 H28            3.4064     5.5335     4.8524 H       
  29 H29            0.6813     4.2359     5.6155 H       
  30 H30            1.1649     5.9474     5.6877 H       
  31 H31           -0.2634     5.4653     4.7412 H       
  32 H32            5.4595     6.3165     2.6473 H       
  33 H33            5.5944     5.0683     3.9090 H       
  34 H34            5.7714     4.6235     2.1946 H       
@<TRIPOS>BOND
   1    1    2 ar
   2    1    6 ar
   3    1   21 1
   4    2    3 ar
   5    2   22 1
   6    3    4 ar
   7    3   23 1
   8    4    5 ar
   9    4    7 1
  10    5    6 ar
  11    5    8 1
  12    6    9 1
  13    7   24 1
  14    7   25 1
  15    8   20 3
  16    9   10 2
  17    9   11 2
  18    9   12 1
  19   12   15 ar
  20   12   14 ar
  21   13   14 ar
  22   13   17 ar
  23   13   18 1
  24   14   26 1
  25   15   16 ar
  26   15   27 1
  27   16   17 ar
  28   16   19 1
  29   17   28 1
  30   18   29 1
  31   18   30 1
  32   18   31 1
  33   19   32 1
  34   19   33 1
  35   19   34 1

#	End of record

