#	Name: ASD10800034
#	Creating user name:	WinNT
#	Creation time:	15. 06. 2019 21:28

#	Modifying user name:	WinNT
#	Modification time:	15. 06. 2019 21:28

#	Program:	/corina/corina34_cracker 3.40 0067  02.08.2006

@<TRIPOS>MOLECULE
ASD10800034
  50   53    0    0    0
SMALL
NO_CHARGES


@<TRIPOS>ATOM
   1 C1             0.0193     1.2574     0.2107 C.ar    
   2 C2             0.1012    -0.1279     0.4302 C.ar    
   3 C3             1.3210    -0.7285     0.4959 C.ar    
   4 C4             2.4932     0.0103     0.3492 C.ar    
   5 C5             2.4526     1.3541     0.1358 C.ar    
   6 C6             1.2117     2.0089     0.0609 C.ar    
   7 C7             3.7319     2.1354    -0.0194 C.3     
   8 C8             4.1393     2.7208     1.3343 C.3     
   9 N9             4.7905     1.2474    -0.5060 N.pl3   
  10 C10            5.3488     3.6021     1.1569 C.ar    
  11 C11            5.1894     4.9477     0.8834 C.ar    
  12 C12            6.6177     3.0660     1.2733 C.ar    
  13 C13            7.7271     3.8744     1.1106 C.ar    
  14 C14            7.5677     5.2188     0.8311 C.ar    
  15 C15            6.2989     5.7561     0.7207 C.ar    
  16 C16            9.1104     3.2902     1.2384 C.3     
  17 C17            6.1251     7.2217     0.4160 C.3     
  18 C18            4.9425     1.0338    -1.8564 C.2     
  19 N19            5.8881     0.3495    -2.3926 N.2     
  20 S20            3.8612     1.6544    -3.1094 S.3     
  21 C21            4.7727     0.9281    -4.5099 C.3     
  22 C22            5.9403     0.1965    -3.8294 C.3     
  23 C23            1.1298     3.3947    -0.1588 C.ar    
  24 C24           -0.0898     3.9948    -0.2259 C.ar    
  25 C25           -1.2624     3.2556    -0.0798 C.ar    
  26 C26           -1.2220     1.9117     0.1310 C.ar    
  27 H27           -0.7990    -0.7133     0.5465 H       
  28 H28            1.3812    -1.7935     0.6647 H       
  29 H29            3.4483    -0.4906     0.4060 H       
  30 H30            3.5792     2.9443    -0.7339 H       
  31 H31            3.3161     3.3104     1.7377 H       
  32 H32            4.3779     1.9107     2.0234 H       
  33 H33            5.3843     0.8099     0.1241 H       
  34 H34            4.1981     5.3673     0.7965 H       
  35 H35            6.7422     2.0157     1.4916 H       
  36 H36            8.4345     5.8505     0.7043 H       
  37 H37            9.4486     2.9404     0.2631 H       
  38 H38            9.7947     4.0540     1.6078 H       
  39 H39            9.0884     2.4537     1.9369 H       
  40 H40            6.0821     7.3658    -0.6636 H       
  41 H41            5.1997     7.5794     0.8674 H       
  42 H42            6.9678     7.7800     0.8238 H       
  43 H43            4.1445     0.2221    -5.0530 H       
  44 H44            5.1402     1.7087    -5.1759 H       
  45 H45            6.8813     0.6057    -4.1971 H       
  46 H46            5.8920    -0.8634    -4.0791 H       
  47 H47            2.0299     3.9803    -0.2735 H       
  48 H48           -0.1500     5.0598    -0.3945 H       
  49 H49           -2.2175     3.7565    -0.1373 H       
  50 H50           -2.1389     1.3519     0.2420 H       
@<TRIPOS>BOND
   1    1    2 ar
   2    1    6 ar
   3    1   26 ar
   4    2    3 ar
   5    2   27 1
   6    3    4 ar
   7    3   28 1
   8    4    5 ar
   9    4   29 1
  10    5    6 ar
  11    5    7 1
  12    6   23 ar
  13    7    8 1
  14    7    9 1
  15    7   30 1
  16    8   10 1
  17    8   31 1
  18    8   32 1
  19    9   18 1
  20    9   33 1
  21   10   11 ar
  22   10   12 ar
  23   11   15 ar
  24   11   34 1
  25   12   13 ar
  26   12   35 1
  27   13   14 ar
  28   13   16 1
  29   14   15 ar
  30   14   36 1
  31   15   17 1
  32   16   37 1
  33   16   38 1
  34   16   39 1
  35   17   40 1
  36   17   41 1
  37   17   42 1
  38   18   19 2
  39   18   20 1
  40   19   22 1
  41   20   21 1
  42   21   22 1
  43   21   43 1
  44   21   44 1
  45   22   45 1
  46   22   46 1
  47   23   24 ar
  48   23   47 1
  49   24   25 ar
  50   24   48 1
  51   25   26 ar
  52   25   49 1
  53   26   50 1

#	End of record

