#	Name: ASD11000275
#	Creating user name:	WinNT
#	Creation time:	15. 06. 2019 21:29

#	Modifying user name:	WinNT
#	Modification time:	15. 06. 2019 21:29

#	Program:	/corina/corina34_cracker 3.40 0067  02.08.2006

@<TRIPOS>MOLECULE
ASD11000275
  56   57    0    0    0
SMALL
NO_CHARGES


@<TRIPOS>ATOM
   1 C1            -0.0159     1.3188     0.0093 C.ar    
   2 N2             0.0021    -0.0041     0.0020 N.ar    
   3 C3             1.1471    -0.6661    -0.0125 C.ar    
   4 C4             2.3408     0.0470    -0.0200 C.ar    
   5 C5             2.2817     1.4363    -0.0120 C.ar    
   6 N6             1.0997     2.0300     0.0025 N.ar    
   7 O7             3.5375    -0.5987    -0.0344 O.3     
   8 C8             4.7131     0.2137    -0.0413 C.3     
   9 C9             5.9340    -0.6696    -0.0572 C.ar    
  10 C10            6.4828    -1.0686    -1.2615 C.ar    
  11 C11            7.6028    -1.8788    -1.2760 C.ar    
  12 C12            8.1741    -2.2896    -0.0862 C.ar    
  13 C13            7.6259    -1.8898     1.1181 C.ar    
  14 C14            6.5085    -1.0761     1.1326 C.ar    
  15 N15           -1.2435     1.9813     0.0186 N.am    
  16 C16           -1.2823     3.3285     0.0261 C.2     
  17 C17           -2.3909     1.2742     0.0202 C.2     
  18 O18           -3.5753     1.9133     0.0292 O.3     
  19 C19           -4.7698     1.0878     0.0303 C.3     
  20 O20           -2.3560     0.0601     0.0134 O.2     
  21 C21           -4.7735     0.1978     1.2747 C.3     
  22 C22           -6.0094     1.9846     0.0410 C.3     
  23 C23           -4.7852     0.2113    -1.2237 C.3     
  24 O24           -2.4666     3.9676     0.0352 O.3     
  25 O25           -0.2483     3.9657     0.0248 O.2     
  26 C26           -2.4323     5.4192     0.0429 C.3     
  27 C27           -1.7051     5.9188    -1.2071 C.3     
  28 C28           -3.8623     5.9631     0.0525 C.3     
  29 C29           -1.6934     5.9052     1.2913 C.3     
  30 H30            1.1548    -1.7461    -0.0180 H       
  31 H31            3.1886     2.0227    -0.0171 H       
  32 H32            4.7116     0.8474    -0.9281 H       
  33 H33            4.7282     0.8385     0.8517 H       
  34 H34            6.0364    -0.7477    -2.1911 H       
  35 H35            8.0311    -2.1912    -2.2170 H       
  36 H36            9.0487    -2.9232    -0.0976 H       
  37 H37            8.0721    -2.2110     2.0477 H       
  38 H38            6.0824    -0.7607     2.0736 H       
  39 H39           -4.7625     0.8222     2.1681 H       
  40 H40           -5.6702    -0.4219     1.2756 H       
  41 H41           -3.8904    -0.4411     1.2671 H       
  42 H42           -6.0068     2.6187    -0.8456 H       
  43 H43           -6.9061     1.3649     0.0418 H       
  44 H44           -5.9985     2.6090     0.9343 H       
  45 H45           -3.9021    -0.4275    -1.2313 H       
  46 H46           -5.6819    -0.4083    -1.2228 H       
  47 H47           -4.7826     0.8454    -2.1102 H       
  48 H48           -2.2315     5.5726    -2.0965 H       
  49 H49           -1.6793     7.0085    -1.2013 H       
  50 H50           -0.6863     5.5313    -1.2139 H       
  51 H51           -4.3804     5.6072     0.9430 H       
  52 H52           -3.8366     7.0528     0.0583 H       
  53 H53           -4.3888     5.6169    -0.8369 H       
  54 H54           -0.6746     5.5178     1.2845 H       
  55 H55           -1.6676     6.9949     1.2972 H       
  56 H56           -2.2115     5.5493     2.1818 H       
@<TRIPOS>BOND
   1    1    2 ar
   2    1    6 ar
   3    1   15 1
   4    2    3 ar
   5    3    4 ar
   6    3   30 1
   7    4    5 ar
   8    4    7 1
   9    5    6 ar
  10    5   31 1
  11    7    8 1
  12    8    9 1
  13    8   32 1
  14    8   33 1
  15    9   10 ar
  16    9   14 ar
  17   10   11 ar
  18   10   34 1
  19   11   12 ar
  20   11   35 1
  21   12   13 ar
  22   12   36 1
  23   13   14 ar
  24   13   37 1
  25   14   38 1
  26   15   16 am
  27   15   17 am
  28   16   24 1
  29   16   25 2
  30   17   18 1
  31   17   20 2
  32   18   19 1
  33   19   21 1
  34   19   22 1
  35   19   23 1
  36   21   39 1
  37   21   40 1
  38   21   41 1
  39   22   42 1
  40   22   43 1
  41   22   44 1
  42   23   45 1
  43   23   46 1
  44   23   47 1
  45   24   26 1
  46   26   27 1
  47   26   28 1
  48   26   29 1
  49   27   48 1
  50   27   49 1
  51   27   50 1
  52   28   51 1
  53   28   52 1
  54   28   53 1
  55   29   54 1
  56   29   55 1
  57   29   56 1

#	End of record

