#	Name: ASD10160208
#	Creating user name:	WinNT
#	Creation time:	15. 06. 2019 21:25

#	Modifying user name:	WinNT
#	Modification time:	15. 06. 2019 21:25

#	Program:	/corina/corina34_cracker 3.40 0067  02.08.2006

@<TRIPOS>MOLECULE
ASD10160208
  40   41    0    0    0
SMALL
NO_CHARGES


@<TRIPOS>ATOM
   1 C1            -0.0391     1.4700     0.0145 C.2     
   2 C2            -0.0136    -0.0043     0.0053 C.ar    
   3 C3             1.2021    -0.6846    -0.1321 C.ar    
   4 C4             1.2208    -2.0649    -0.1397 C.ar    
   5 C5             0.0365    -2.7778    -0.0113 C.ar    
   6 C6            -1.1749    -2.1049     0.1256 C.ar    
   7 C7            -1.2028    -0.7271     0.1395 C.ar    
   8 O8             0.9969     2.0968    -0.0974 O.2     
   9 N9            -1.2113     2.1229     0.1413 N.am    
  10 S10           -1.2400     3.7786     0.1517 S.o2    
  11 O11           -2.6124     4.1043     0.3241 O.2     
  12 O12           -0.2731     4.1398     1.1283 O.2     
  13 C13           -0.6771     4.2515    -1.5067 C.3     
  14 O14            0.0594    -4.1352    -0.0197 O.3     
  15 C15           -0.6720    -4.6876    -3.4386 C.ar    
  16 N16           -0.4662    -4.0767    -2.2889 N.ar    
  17 C17           -0.1519    -4.7680    -1.1999 C.ar    
  18 C18           -0.0418    -6.1570    -1.2894 C.ar    
  19 C19           -0.2666    -6.7553    -2.5167 C.ar    
  20 N20           -0.5764    -5.9960    -3.5579 N.ar    
  21 C21           -1.0330    -3.8664    -4.6496 C.3     
  22 C22            0.2438    -3.4508    -5.3831 C.3     
  23 C23           -0.1228    -2.6171    -6.6125 C.3     
  24 F24            0.2764    -6.8980    -0.2055 F       
  25 F25           -2.3242    -2.8039     0.2501 F       
  26 F26            2.3549     0.0085    -0.2576 F       
  27 H27            2.1580    -2.5910    -0.2460 H       
  28 H28           -2.1425    -0.2064     0.2503 H       
  29 H29           -2.0382     1.6230     0.2265 H       
  30 H30           -1.3557     3.8374    -2.2525 H       
  31 H31           -0.6649     5.3382    -1.5901 H       
  32 H32            0.3274     3.8629    -1.6739 H       
  33 H33           -0.1903    -7.8271    -2.6249 H       
  34 H34           -1.6589    -4.4589    -5.3169 H       
  35 H35           -1.5779    -2.9761    -4.3356 H       
  36 H36            0.8696    -2.8583    -4.7157 H       
  37 H37            0.7886    -4.3411    -5.6971 H       
  38 H38            0.7868    -2.3210    -7.1350 H       
  39 H39           -0.7486    -3.2096    -7.2798 H       
  40 H40           -0.6676    -1.7268    -6.2985 H       
@<TRIPOS>BOND
   1    1    2 1
   2    1    8 2
   3    1    9 am
   4    2    3 ar
   5    2    7 ar
   6    3    4 ar
   7    3   26 1
   8    4    5 ar
   9    4   27 1
  10    5    6 ar
  11    5   14 1
  12    6    7 ar
  13    6   25 1
  14    7   28 1
  15    9   10 am
  16    9   29 1
  17   10   11 2
  18   10   12 2
  19   10   13 1
  20   13   30 1
  21   13   31 1
  22   13   32 1
  23   14   17 1
  24   15   16 ar
  25   15   20 ar
  26   15   21 1
  27   16   17 ar
  28   17   18 ar
  29   18   19 ar
  30   18   24 1
  31   19   20 ar
  32   19   33 1
  33   21   22 1
  34   21   34 1
  35   21   35 1
  36   22   23 1
  37   22   36 1
  38   22   37 1
  39   23   38 1
  40   23   39 1
  41   23   40 1

#	End of record

