#	Name: ASD13390024
#	Creating user name:	WinNT
#	Creation time:	15. 06. 2019 21:30

#	Modifying user name:	WinNT
#	Modification time:	15. 06. 2019 21:30

#	Program:	/corina/corina34_cracker 3.40 0067  02.08.2006

@<TRIPOS>MOLECULE
ASD13390024
  26   25    0    0    0
SMALL
NO_CHARGES


@<TRIPOS>ATOM
   1 C1            -0.0164     1.3592     0.0095 C.ar    
   2 C2             0.0021    -0.0041     0.0020 C.ar    
   3 C3             1.2429    -0.6886    -0.0135 C.ar    
   4 C4             2.4480     0.0572    -0.0210 C.ar    
   5 C5             2.3983     1.4197    -0.0132 C.ar    
   6 C6             1.1738     2.0774     0.0020 C.ar    
   7 C7             1.2779    -2.0873    -0.0209 C.2     
   8 N8             2.4721    -2.7376    -0.0357 N.2     
   9 N9             2.5044    -4.0271    -0.0426 N.2     
  10 C10            3.7110    -4.6841    -0.0576 C.2     
  11 N11            4.8547    -3.9851    -0.0652 N.pl3   
  12 N12            3.7445    -6.0241    -0.0647 N.pl3   
  13 N13            1.1367     3.5587     0.0098 N.pl3   
  14 O14           -0.0199     4.1884     0.0238 O.2     
  15 O15            2.2604     4.2456     0.0028 O.2     
  16 H16           -0.9605     1.8838     0.0168 H       
  17 H17           -0.9241    -0.5595     0.0082 H       
  18 H18            3.4008    -0.4512    -0.0324 H       
  19 H19            3.3150     1.9908    -0.0185 H       
  20 H20            0.3564    -2.6506    -0.0148 H       
  21 H21            4.8304    -3.0154    -0.0601 H       
  22 H22            5.7065    -4.4489    -0.0758 H       
  23 H23            2.9169    -6.5299    -0.0592 H       
  24 H24            4.5964    -6.4879    -0.0753 H       
  25 Cl25          10.7065     9.2456     5.0238 Cl      
  26 H26           10.7065    10.6156     5.0238 H       
@<TRIPOS>BOND
   1    1    2 ar
   2    1    6 ar
   3    1   16 1
   4    2    3 ar
   5    2   17 1
   6    3    4 ar
   7    3    7 1
   8    4    5 ar
   9    4   18 1
  10    5    6 ar
  11    5   19 1
  12    6   13 1
  13    7    8 2
  14    7   20 1
  15    8    9 1
  16    9   10 2
  17   10   11 1
  18   10   12 1
  19   11   21 1
  20   11   22 1
  21   12   23 1
  22   12   24 1
  23   13   14 2
  24   13   15 2
  25   25   26 1

#	End of record

