#	Name: ASD13390009
#	Creating user name:	WinNT
#	Creation time:	15. 06. 2019 21:30

#	Modifying user name:	WinNT
#	Modification time:	15. 06. 2019 21:30

#	Program:	/corina/corina34_cracker 3.40 0067  02.08.2006

@<TRIPOS>MOLECULE
ASD13390009
  24   23    0    0    0
SMALL
NO_CHARGES


@<TRIPOS>ATOM
   1 C1            -0.0166     1.3749     0.0096 C.ar    
   2 C2             0.0021    -0.0041     0.0020 C.ar    
   3 C3             1.2241    -0.6830    -0.0133 C.ar    
   4 C4             2.4199     0.0438    -0.0208 C.ar    
   5 C5             2.3841     1.4231    -0.0130 C.ar    
   6 C6             1.1699     2.0871     0.0021 C.ar    
   7 C7             1.2528    -2.1544    -0.0210 C.2     
   8 N8             2.3954    -2.7847    -0.0352 N.2     
   9 N9             2.4205    -4.0744    -0.0420 N.2     
  10 C10            3.5744    -4.7109    -0.0564 C.2     
  11 N11            4.7485    -4.0021    -0.0642 N.pl3   
  12 N12            3.6012    -6.0821    -0.0636 N.pl3   
  13 Br13           4.0799    -0.8616    -0.0408 Br      
  14 H14           -0.9600     1.9006     0.0169 H       
  15 H15           -0.9250    -0.5581     0.0082 H       
  16 H16            3.3058     1.9859    -0.0188 H       
  17 H17            1.1483     3.1668     0.0077 H       
  18 H18            0.3282    -2.7126    -0.0148 H       
  19 H19            4.7296    -3.0323    -0.0592 H       
  20 H20            5.5978    -4.4706    -0.0748 H       
  21 H21            2.7708    -6.5835    -0.0580 H       
  22 H22            4.4505    -6.5506    -0.0742 H       
  23 Cl23          10.5978     8.1668     5.0169 Cl      
  24 H24           10.5978     9.5368     5.0169 H       
@<TRIPOS>BOND
   1    1    2 ar
   2    1    6 ar
   3    1   14 1
   4    2    3 ar
   5    2   15 1
   6    3    4 ar
   7    3    7 1
   8    4    5 ar
   9    4   13 1
  10    5    6 ar
  11    5   16 1
  12    6   17 1
  13    7    8 2
  14    7   18 1
  15    8    9 1
  16    9   10 2
  17   10   11 1
  18   10   12 1
  19   11   19 1
  20   11   20 1
  21   12   21 1
  22   12   22 1
  23   23   24 1

#	End of record

