#	Name: ASD13170002
#	Creating user name:	WinNT
#	Creation time:	15. 06. 2019 21:30

#	Modifying user name:	WinNT
#	Modification time:	15. 06. 2019 21:30

#	Program:	/corina/corina34_cracker 3.40 0067  02.08.2006

@<TRIPOS>MOLECULE
ASD13170002
  64   68    0    0    0
SMALL
NO_CHARGES


@<TRIPOS>ATOM
   1 N1            -0.0165     1.3629     0.0095 N.pl3   
   2 C2             0.0021    -0.0041     0.0020 C.ar    
   3 C3            -1.2029     2.2221     0.0309 C.3     
   4 N4             1.3224     1.7825    -0.0010 N.2     
   5 C5             1.3577    -0.3748    -0.0129 C.ar    
   6 N6            -0.9311    -0.9522     0.0062 N.ar    
   7 C7            -1.2153     3.1598    -1.2019 C.3     
   8 C8            -1.1520     3.1830     1.2366 C.3     
   9 N9             2.0925     0.7508    -0.0139 N.2     
  10 C10            1.6705    -1.7506    -0.0229 C.ar    
  11 C11           -0.5919    -2.2310    -0.0035 C.ar    
  12 C12           -2.1083     4.3338    -0.7293 C.3     
  13 C13           -1.7277     4.5257     0.7533 C.3     
  14 O14           -1.9454     2.6672     2.3074 O.3     
  15 N15            0.6758    -2.6280    -0.0177 N.ar    
  16 N16            2.9852    -2.1750    -0.0381 N.pl3   
  17 O17           -1.8174     5.5161    -1.4773 O.3     
  18 O18           -2.8874     4.8641     1.5166 O.3     
  19 S19           -1.8650    -3.4492     0.0032 S.3     
  20 C20           -0.8599    -4.9543    -0.0143 C.3     
  21 C21           -1.7763    -6.1796    -0.0112 C.3     
  22 C22           -2.9333     6.3952    -1.6322 C.3     
  23 C23           -2.5085     7.6203    -2.4444 C.3     
  24 O24           -2.1595     7.2154    -3.7697 O.3     
  25 C25           -0.9266    -7.4519    -0.0260 C.3     
  26 C26            3.2925    -3.6073    -0.0483 C.3     
  27 C27            4.6376    -4.0371    -0.6375 C.3     
  28 C28            4.4106    -4.0965     0.8744 C.3     
  29 C29            4.6835    -5.3442    -1.3862 C.ar    
  30 C30            5.0610    -5.3654    -2.7156 C.ar    
  31 C31            5.1039    -6.5655    -3.4037 C.ar    
  32 C32            4.7678    -7.7456    -2.7581 C.ar    
  33 C33            4.3901    -7.7210    -1.4267 C.ar    
  34 C34            4.3534    -6.5215    -0.7409 C.ar    
  35 F35            5.4724    -6.5871    -4.7033 F       
  36 F36            4.8085    -8.9182    -3.4278 F       
  37 H37           -2.1097     1.6181     0.0599 H       
  38 H38           -0.2086     3.5086    -1.4321 H       
  39 H39           -1.6584     2.6598    -2.0631 H       
  40 H40           -0.1212     3.3154     1.5653 H       
  41 H41           -3.1625     4.0733    -0.8239 H       
  42 H42           -0.9763     5.3096     0.8475 H       
  43 H43           -1.9539     3.2272     3.0957 H       
  44 H44            3.7048    -1.5245    -0.0421 H       
  45 H45           -2.7170     4.9773     2.4617 H       
  46 H46           -0.2397    -4.9667    -0.9106 H       
  47 H47           -0.2219    -4.9755     0.8692 H       
  48 H48           -2.3964    -6.1672     0.8851 H       
  49 H49           -2.4142    -6.1584    -0.8948 H       
  50 H50           -3.7366     5.8744    -2.1533 H       
  51 H51           -3.2837     6.7139    -0.6504 H       
  52 H52           -3.3333     8.3317    -2.4872 H       
  53 H53           -1.6474     8.0904    -1.9695 H       
  54 H54           -1.8796     7.9427    -4.3422 H       
  55 H55           -0.2887    -7.4731     0.8575 H       
  56 H56           -1.5795    -8.3248    -0.0238 H       
  57 H57           -0.3065    -7.4643    -0.9223 H       
  58 H58            2.4408    -4.2698    -0.2025 H       
  59 H59            5.2938    -3.2541    -1.0176 H       
  60 H60            4.9176    -3.3527     1.4890 H       
  61 H61            4.2946    -5.0810     1.3276 H       
  62 H62            5.3223    -4.4455    -3.2175 H       
  63 H63            4.1281    -8.6395    -0.9226 H       
  64 H64            4.0626    -6.5035     0.2991 H       
@<TRIPOS>BOND
   1    1    2 1
   2    1    4 1
   3    1    3 1
   4    2    5 ar
   5    2    6 ar
   6    3    7 1
   7    3    8 1
   8    3   37 1
   9    4    9 2
  10    5   10 ar
  11    5    9 1
  12    6   11 ar
  13    7   12 1
  14    7   38 1
  15    7   39 1
  16    8   13 1
  17    8   14 1
  18    8   40 1
  19   10   15 ar
  20   10   16 1
  21   11   15 ar
  22   11   19 1
  23   12   17 1
  24   12   13 1
  25   12   41 1
  26   13   18 1
  27   13   42 1
  28   14   43 1
  29   16   26 1
  30   16   44 1
  31   17   22 1
  32   18   45 1
  33   19   20 1
  34   20   21 1
  35   20   46 1
  36   20   47 1
  37   21   25 1
  38   21   48 1
  39   21   49 1
  40   22   23 1
  41   22   50 1
  42   22   51 1
  43   23   24 1
  44   23   52 1
  45   23   53 1
  46   24   54 1
  47   25   55 1
  48   25   56 1
  49   25   57 1
  50   26   27 1
  51   26   28 1
  52   26   58 1
  53   27   28 1
  54   27   29 1
  55   27   59 1
  56   28   60 1
  57   28   61 1
  58   29   30 ar
  59   29   34 ar
  60   30   31 ar
  61   30   62 1
  62   31   32 ar
  63   31   35 1
  64   32   33 ar
  65   32   36 1
  66   33   34 ar
  67   33   63 1
  68   34   64 1

#	End of record

