#	Name: ASD14300010
#	Creating user name:	WinNT
#	Creation time:	15. 06. 2019 21:31

#	Modifying user name:	WinNT
#	Modification time:	15. 06. 2019 21:31

#	Program:	/corina/corina34_cracker 3.40 0067  02.08.2006

@<TRIPOS>MOLECULE
ASD14300010
  80   83    0    0    0
SMALL
NO_CHARGES


@<TRIPOS>ATOM
   1 N1             2.2068     0.5682     0.3763 N.pl3   
   2 C2             1.8226    -0.7232     0.5534 C.2     
   3 C3             0.4758    -0.7904     0.4464 C.2     
   4 C4             0.0027     0.5043     0.1937 C.2     
   5 C5             1.0871     1.3319     0.1536 C.2     
   6 C6             1.0613     2.7869    -0.0851 C.ar    
   7 N7             2.2032     3.4628    -0.2116 N.ar    
   8 C8             2.1780     4.7736    -0.4266 C.ar    
   9 N9             1.0146     5.4114    -0.5151 N.ar    
  10 C10           -0.1252     4.7390    -0.3892 C.ar    
  11 N11           -0.1039     3.4268    -0.1800 N.ar    
  12 N12           -1.3317     5.4032    -0.4815 N.pl3   
  13 N13            3.3602     5.4739    -0.5577 N.3     
  14 C14            4.4626     4.6236    -0.4330 C.3     
  15 C15            6.1694     5.8793    -1.7315 C.3     
  16 C16            3.3525     6.3009    -1.7806 C.3     
  17 C17            4.2167     7.5116    -1.5316 C.3     
  18 C18            5.6520     7.2981    -2.0418 C.3     
  19 C19           -2.5873     4.6489    -0.4521 C.3     
  20 C20           -1.3567     6.8624    -0.6088 C.3     
  21 C21            5.7877     5.4124    -0.3499 C.3     
  22 C22           -3.1251     4.6093     0.9797 C.3     
  23 C23           -4.4363     3.8216     1.0104 C.3     
  24 C24           -4.9741     3.7820     2.4423 C.3     
  25 C25           -1.3241     7.2458    -2.0897 C.3     
  26 C26           -1.3501     8.7697    -2.2227 C.3     
  27 C27           -1.3176     9.1531    -3.7035 C.3     
  28 C28            3.5846     1.0641     0.4216 C.3     
  29 C29            3.8950     1.5798     1.8282 C.3     
  30 C30            5.3709     1.9742     1.9126 C.3     
  31 C31            5.6681     2.5170     3.2867 C.ar    
  32 C32            5.7982     4.3659     4.8023 C.ar    
  33 C33            5.5257     3.8681     3.5418 C.ar    
  34 C34            6.0775     1.6628     4.2935 C.ar    
  35 C35            6.3501     2.1607     5.5540 C.ar    
  36 C36            6.2137     3.5128     5.8075 C.ar    
  37 H37            2.4821    -1.5564     0.7465 H       
  38 H38           -0.1268    -1.6818     0.5391 H       
  39 H39           -1.0288     0.7934     0.0559 H       
  40 H40            4.3486     4.0244     0.4704 H       
  41 H41            4.4982     3.9592    -1.2963 H       
  42 H42            5.7567     5.1858    -2.4642 H       
  43 H43            7.2560     5.8740    -1.8175 H       
  44 H44            3.7544     5.7271    -2.6157 H       
  45 H45            2.3336     6.6157    -2.0059 H       
  46 H46            3.7815     8.3704    -2.0426 H       
  47 H47            4.2460     7.7136    -0.4609 H       
  48 H48            6.3091     8.0268    -1.5670 H       
  49 H49            5.6720     7.4548    -3.1203 H       
  50 H50           -3.3172     5.1328    -1.1011 H       
  51 H51           -2.4085     3.6320    -0.8013 H       
  52 H52           -2.2670     7.2514    -0.1528 H       
  53 H53           -0.4881     7.2860    -0.1047 H       
  54 H54            5.6582     6.2750     0.3037 H       
  55 H55            6.5718     4.7673     0.0466 H       
  56 H56           -2.3952     4.1254     1.6287 H       
  57 H57           -3.3039     5.6263     1.3289 H       
  58 H58           -5.1662     4.3055     0.3614 H       
  59 H59           -4.2575     2.8046     0.6612 H       
  60 H60           -5.9083     3.2208     2.4641 H       
  61 H61           -4.2442     3.2980     3.0913 H       
  62 H62           -5.1529     4.7989     2.7915 H       
  63 H63           -0.4137     6.8567    -2.5458 H       
  64 H64           -2.1927     6.8222    -2.5938 H       
  65 H65           -2.2605     9.1588    -1.7666 H       
  66 H66           -0.4815     9.1934    -1.7185 H       
  67 H67           -1.3361    10.2388    -3.7983 H       
  68 H68           -0.4072     8.7641    -4.1596 H       
  69 H69           -2.1862     8.7295    -4.2077 H       
  70 H70            4.2705     0.2545     0.1718 H       
  71 H71            3.7027     1.8750    -0.2971 H       
  72 H72            3.2738     2.4497     2.0415 H       
  73 H73            3.6860     0.7965     2.5567 H       
  74 H74            5.9923     1.0984     1.7257 H       
  75 H75            5.5861     2.7384     1.1657 H       
  76 H76            5.6874     5.4216     5.0015 H       
  77 H77            5.2019     4.5348     2.7563 H       
  78 H78            6.1841     0.6065     4.0955 H       
  79 H79            6.6693     1.4933     6.3408 H       
  80 H80            6.4266     3.9017     6.7922 H       
@<TRIPOS>BOND
   1    1    2 1
   2    1    5 1
   3    1   28 1
   4    2    3 2
   5    2   37 1
   6    3    4 1
   7    3   38 1
   8    4    5 2
   9    4   39 1
  10    5    6 1
  11    6    7 ar
  12    6   11 ar
  13    7    8 ar
  14    8    9 ar
  15    8   13 1
  16    9   10 ar
  17   10   11 ar
  18   10   12 1
  19   12   19 1
  20   12   20 1
  21   13   14 1
  22   13   16 1
  23   14   21 1
  24   14   40 1
  25   14   41 1
  26   15   18 1
  27   15   21 1
  28   15   42 1
  29   15   43 1
  30   16   17 1
  31   16   44 1
  32   16   45 1
  33   17   18 1
  34   17   46 1
  35   17   47 1
  36   18   48 1
  37   18   49 1
  38   19   22 1
  39   19   50 1
  40   19   51 1
  41   20   25 1
  42   20   52 1
  43   20   53 1
  44   21   54 1
  45   21   55 1
  46   22   23 1
  47   22   56 1
  48   22   57 1
  49   23   24 1
  50   23   58 1
  51   23   59 1
  52   24   60 1
  53   24   61 1
  54   24   62 1
  55   25   26 1
  56   25   63 1
  57   25   64 1
  58   26   27 1
  59   26   65 1
  60   26   66 1
  61   27   67 1
  62   27   68 1
  63   27   69 1
  64   28   29 1
  65   28   70 1
  66   28   71 1
  67   29   30 1
  68   29   72 1
  69   29   73 1
  70   30   31 1
  71   30   74 1
  72   30   75 1
  73   31   34 ar
  74   31   33 ar
  75   32   33 ar
  76   32   36 ar
  77   32   76 1
  78   33   77 1
  79   34   35 ar
  80   34   78 1
  81   35   36 ar
  82   35   79 1
  83   36   80 1

#	End of record

