#	Name: ASD15350005
#	Creating user name:	WinNT
#	Creation time:	15. 06. 2019 21:31

#	Modifying user name:	WinNT
#	Modification time:	15. 06. 2019 21:31

#	Program:	/corina/corina34_cracker 3.40 0067  02.08.2006

@<TRIPOS>MOLECULE
ASD15350005
  73   78    0    0    0
SMALL
NO_CHARGES


@<TRIPOS>ATOM
   1 C1             0.0699     1.1340    -0.6174 C.3     
   2 O2             0.0070    -0.2850    -0.4611 O.3     
   3 C3             0.7007    -0.8230     0.5772 C.ar    
   4 C4             1.4232     0.0063     1.4314 C.ar    
   5 C5             2.1319    -0.5212     2.4885 C.ar    
   6 C6             2.1297    -1.8940     2.7102 C.ar    
   7 N7             2.8329    -2.4418     3.7640 N.am    
   8 C8             2.8321    -3.7687     3.9807 C.2     
   9 O9             3.4645    -4.2174     4.9212 O.2     
  10 C10            2.1172    -4.6550     3.1470 C.2     
  11 C11            1.4069    -4.1794     2.0945 C.2     
  12 C12            1.4007    -2.7360     1.8491 C.ar    
  13 C13            0.6807    -2.1880     0.7827 C.ar    
  14 C14            2.1439    -6.1354     3.4273 C.3     
  15 N15            3.5373    -6.5929     3.5113 N.3     
  16 C16            3.6029    -8.0231     3.8426 C.3     
  17 C17            5.0670    -8.4412     3.9987 C.3     
  18 N18            5.7900    -8.1589     2.7509 N.3     
  19 C19            5.7244    -6.7287     2.4196 C.3     
  20 C20            4.2604    -6.3106     2.2634 C.3     
  21 C21            7.1149    -8.5939     2.8307 C.ar    
  22 C22            7.5777    -9.2068     3.9880 C.ar    
  23 C23            8.8884    -9.6362     4.0634 C.ar    
  24 C24            9.7393    -9.4565     2.9886 C.ar    
  25 C25            9.2818    -8.8461     1.8348 C.ar    
  26 C26            7.9712    -8.4196     1.7506 C.ar    
  27 C27           10.2132    -8.6514     0.6662 C.3     
  28 F28           11.4750    -9.1649     0.9850 F       
  29 F29            9.7055    -9.3223    -0.4515 F       
  30 F30           10.3239    -7.2864     0.3804 F       
  31 C31            1.4448    -6.4121     4.7334 C.2     
  32 N32            1.9298    -6.2224     5.9362 N.2     
  33 N33            1.0307    -6.5768     6.7882 N.2     
  34 N34           -0.0153    -6.9876     6.1602 N.2     
  35 N35            0.1989    -6.8965     4.8912 N.pl3   
  36 C36           -0.7367    -7.2560     3.8227 C.3     
  37 C37           -0.5403    -8.7258     3.4460 C.3     
  38 C38           -1.5028    -9.0956     2.3469 C.ar    
  39 C39           -2.7591    -9.5785     2.6619 C.ar    
  40 C40           -3.6420    -9.9177     1.6538 C.ar    
  41 C41           -3.2687    -9.7736     0.3306 C.ar    
  42 C42           -2.0126    -9.2899     0.0156 C.ar    
  43 C43           -1.1313    -8.9466     1.0238 C.ar    
  44 H44            1.1059     1.4373    -0.7688 H       
  45 H45           -0.5256     1.4312    -1.4807 H       
  46 H46           -0.3226     1.6160     0.2780 H       
  47 H47            1.4284     1.0731     1.2633 H       
  48 H48            2.6891     0.1311     3.1445 H       
  49 H49            3.3353    -1.8611     4.3567 H       
  50 H50            0.8576    -4.8508     1.4511 H       
  51 H51            0.1159    -2.8290     0.1220 H       
  52 H52            1.6349    -6.6667     2.6231 H       
  53 H53            3.0713    -8.2048     4.7767 H       
  54 H54            3.1424    -8.6032     3.0429 H       
  55 H55            5.5200    -7.8806     4.8164 H       
  56 H56            5.1193    -9.5080     4.2160 H       
  57 H57            6.1849    -6.1486     3.2193 H       
  58 H58            6.2560    -6.5470     1.4855 H       
  59 H59            3.8073    -6.8712     1.4458 H       
  60 H60            4.2080    -5.2438     2.0462 H       
  61 H61            6.9136    -9.3472     4.8280 H       
  62 H62            9.2490   -10.1126     4.9631 H       
  63 H63           10.7636    -9.7932     3.0501 H       
  64 H64            7.6134    -7.9470     0.8478 H       
  65 H65           -1.7591    -7.1030     4.1684 H       
  66 H66           -0.5505    -6.6293     2.9506 H       
  67 H67            0.4821    -8.8787     3.1003 H       
  68 H68           -0.7265    -9.3525     4.3181 H       
  69 H69           -3.0508    -9.6911     3.6957 H       
  70 H70           -4.6233   -10.2957     1.8999 H       
  71 H71           -3.9582   -10.0393    -0.4570 H       
  72 H72           -1.7208    -9.1776    -1.0182 H       
  73 H73           -0.1514    -8.5651     0.7777 H       
@<TRIPOS>BOND
   1    1    2 1
   2    1   44 1
   3    1   45 1
   4    1   46 1
   5    2    3 1
   6    3   13 ar
   7    3    4 ar
   8    4    5 ar
   9    4   47 1
  10    5    6 ar
  11    5   48 1
  12    6   12 ar
  13    6    7 1
  14    7    8 am
  15    7   49 1
  16    8    9 2
  17    8   10 1
  18   10   11 2
  19   10   14 1
  20   11   12 1
  21   11   50 1
  22   12   13 ar
  23   13   51 1
  24   14   15 1
  25   14   31 1
  26   14   52 1
  27   15   20 1
  28   15   16 1
  29   16   17 1
  30   16   53 1
  31   16   54 1
  32   17   18 1
  33   17   55 1
  34   17   56 1
  35   18   19 1
  36   18   21 1
  37   19   20 1
  38   19   57 1
  39   19   58 1
  40   20   59 1
  41   20   60 1
  42   21   26 ar
  43   21   22 ar
  44   22   23 ar
  45   22   61 1
  46   23   24 ar
  47   23   62 1
  48   24   25 ar
  49   24   63 1
  50   25   26 ar
  51   25   27 1
  52   26   64 1
  53   27   28 1
  54   27   29 1
  55   27   30 1
  56   31   35 1
  57   31   32 2
  58   32   33 1
  59   33   34 2
  60   34   35 1
  61   35   36 1
  62   36   37 1
  63   36   65 1
  64   36   66 1
  65   37   38 1
  66   37   67 1
  67   37   68 1
  68   38   43 ar
  69   38   39 ar
  70   39   40 ar
  71   39   69 1
  72   40   41 ar
  73   40   70 1
  74   41   42 ar
  75   41   71 1
  76   42   43 ar
  77   42   72 1
  78   43   73 1

#	End of record

