#	Name: ASD11000017
#	Creating user name:	WinNT
#	Creation time:	15. 06. 2019 21:28

#	Modifying user name:	WinNT
#	Modification time:	15. 06. 2019 21:28

#	Program:	/corina/corina34_cracker 3.40 0067  02.08.2006

@<TRIPOS>MOLECULE
ASD11000017
  59   62    0    0    0
SMALL
NO_CHARGES


@<TRIPOS>ATOM
   1 C1             0.0964     1.2852     0.1373 C.3     
   2 C2            -0.4350    -0.1192    -0.1566 C.3     
   3 N3             0.0182    -0.5444    -1.4851 N.am    
   4 C4             0.0794    -1.0790     0.8872 C.ar    
   5 C5             0.6511    -2.2881     0.5579 C.ar    
   6 C6            -0.0405    -0.7085     2.2199 C.ar    
   7 C7             1.0923    -3.1370     1.5661 C.ar    
   8 C8             0.9714    -2.7746     2.8947 C.ar    
   9 C9             0.4031    -1.5481     3.2253 C.ar    
  10 C10           -0.0873    -1.9768    -1.8086 C.3     
  11 C11            0.8412    -2.7408    -0.8661 C.3     
  12 O12            0.2836    -1.1781     4.5285 O.3     
  13 C13           -0.3099     0.0953     4.7895 C.3     
  14 O14            1.4061    -3.6124     3.8738 O.3     
  15 C15            1.9788    -4.8540     3.4583 C.3     
  16 C16            0.5110     0.3406    -2.3742 C.2     
  17 O17            0.4795     1.5307    -2.1284 O.2     
  18 C18            1.0896    -0.1358    -3.6479 C.ar    
  19 C19            1.6825    -1.3975    -3.7195 C.ar    
  20 C20            1.0403     0.6721    -4.7856 C.ar    
  21 C21            1.5824     0.2217    -5.9719 C.ar    
  22 C22            2.1748    -1.0301    -6.0348 C.ar    
  23 C23            2.2211    -1.8373    -4.9107 C.ar    
  24 O24            1.5249     1.2711     0.1014 O.3     
  25 C25            2.1602     2.4488     0.3435 C.ar    
  26 C26            3.5459     2.5060     0.3241 C.ar    
  27 C27            1.4224     3.5939     0.6041 C.ar    
  28 C28            2.0677     4.7902     0.8500 C.ar    
  29 C29            3.4534     4.8462     0.8367 C.ar    
  30 C30            4.1912     3.7023     0.5701 C.ar    
  31 Cl31           1.5219     1.2240    -7.3881 Cl      
  32 O32            4.0887     6.0241     1.0779 O.3     
  33 C33            5.5173     6.0086     1.0485 C.3     
  34 Cl34           2.8549    -1.5908    -7.5304 Cl      
  35 H35           -0.2790     1.9802    -0.6137 H       
  36 H36           -0.2391     1.6013     1.1250 H       
  37 H37           -1.5246    -0.1072    -0.1317 H       
  38 H38           -0.4836     0.2432     2.4734 H       
  39 H39            1.5333    -4.0888     1.3092 H       
  40 H40           -1.1146    -2.3123    -1.6663 H       
  41 H41            0.2165    -2.1449    -2.8419 H       
  42 H42            1.8755    -2.5664    -1.1626 H       
  43 H43            0.6242    -3.8067    -0.9353 H       
  44 H44            0.2844     0.8771     4.3164 H       
  45 H45           -1.3222     0.1140     4.3858 H       
  46 H46           -0.3447     0.2663     5.8655 H       
  47 H47            1.2413    -5.4228     2.8921 H       
  48 H48            2.8487    -4.6608     2.8305 H       
  49 H49            2.2832    -5.4252     4.3352 H       
  50 H50            1.7197    -2.0282    -2.8436 H       
  51 H51            0.5786     1.6473    -4.7373 H       
  52 H52            2.6839    -2.8116    -4.9656 H       
  53 H53            4.1203     1.6152     0.1171 H       
  54 H54            0.3433     3.5503     0.6145 H       
  55 H55            1.4931     5.6821     1.0523 H       
  56 H56            5.2702     3.7458     0.5601 H       
  57 H57            5.8888     5.3156     1.8034 H       
  58 H58            5.8570     5.6891     0.0633 H       
  59 H59            5.8959     7.0094     1.2564 H       
@<TRIPOS>BOND
   1    1    2 1
   2    1   24 1
   3    1   35 1
   4    1   36 1
   5    2    3 1
   6    2    4 1
   7    2   37 1
   8    3   10 1
   9    3   16 am
  10    4    5 ar
  11    4    6 ar
  12    5    7 ar
  13    5   11 1
  14    6    9 ar
  15    6   38 1
  16    7    8 ar
  17    7   39 1
  18    8    9 ar
  19    8   14 1
  20    9   12 1
  21   10   11 1
  22   10   40 1
  23   10   41 1
  24   11   42 1
  25   11   43 1
  26   12   13 1
  27   13   44 1
  28   13   45 1
  29   13   46 1
  30   14   15 1
  31   15   47 1
  32   15   48 1
  33   15   49 1
  34   16   17 2
  35   16   18 1
  36   18   20 ar
  37   18   19 ar
  38   19   23 ar
  39   19   50 1
  40   20   21 ar
  41   20   51 1
  42   21   22 ar
  43   21   31 1
  44   22   23 ar
  45   22   34 1
  46   23   52 1
  47   24   25 1
  48   25   26 ar
  49   25   27 ar
  50   26   30 ar
  51   26   53 1
  52   27   28 ar
  53   27   54 1
  54   28   29 ar
  55   28   55 1
  56   29   30 ar
  57   29   32 1
  58   30   56 1
  59   32   33 1
  60   33   57 1
  61   33   58 1
  62   33   59 1

#	End of record

