#	Name: ASD10220037
#	Creating user name:	WinNT
#	Creation time:	15. 06. 2019 21:26

#	Modifying user name:	WinNT
#	Modification time:	15. 06. 2019 21:26

#	Program:	/corina/corina34_cracker 3.40 0067  02.08.2006

@<TRIPOS>MOLECULE
ASD10220037
  41   43    0    0    0
SMALL
NO_CHARGES


@<TRIPOS>ATOM
   1 C1             0.0029     1.5132     0.4037 C.2     
   2 C2             0.0483     0.2218     0.9795 C.2     
   3 C3            -1.0801    -0.4294     1.3412 C.2     
   4 C4            -2.4071     0.1582     1.1601 C.2     
   5 C5            -2.5352     1.4207     0.6029 C.2     
   6 C6            -1.3331     2.1681     0.2006 C.2     
   7 O7            -3.6438    -0.2951     1.4398 O.3     
   8 C8            -4.5777     0.5955     1.0992 C.2     
   9 C9            -3.9740     1.7032     0.5659 C.2     
  10 O10           -1.4193     3.2746    -0.2887 O.2     
  11 O11            1.0267     2.0842     0.0840 O.2     
  12 C12           -4.6313     2.9215     0.0609 C.2     
  13 O13           -3.9606     3.8751    -0.2861 O.2     
  14 C14           -6.1031     2.9846    -0.0238 C.ar    
  15 C15           -6.7599     4.2127     0.0987 C.ar    
  16 C16           -8.1375     4.2664     0.0182 C.ar    
  17 C17           -8.8702     3.0974    -0.1843 C.ar    
  18 C18           -8.2178     1.8774    -0.3054 C.ar    
  19 C19           -6.8435     1.8173    -0.2324 C.ar    
  20 Cl20           1.5866    -0.5439     1.2266 Cl      
  21 Cl21          -0.9497    -2.0125     2.0417 Cl      
  22 O22          -10.2247     3.1519    -0.2627 O.3     
  23 O23           -8.7796     5.4594     0.1369 O.3     
  24 C24           -7.9663     6.6161     0.3433 C.3     
  25 C25          -10.9127     1.9169    -0.4712 C.3     
  26 C26          -12.4193     2.1764    -0.5319 C.3     
  27 C27           -8.8587     7.8542     0.4521 C.3     
  28 H28           -5.6422     0.4632     1.2240 H       
  29 H29           -6.1912     5.1173     0.2562 H       
  30 H30           -8.7890     0.9742    -0.4618 H       
  31 H31           -6.3387     0.8673    -0.3273 H       
  32 H32           -7.3943     6.4986     1.2637 H       
  33 H33           -7.2823     6.7341    -0.4971 H       
  34 H34          -10.5827     1.4710    -1.4095 H       
  35 H35          -10.6942     1.2359     0.3514 H       
  36 H36          -12.7493     2.6222     0.4064 H       
  37 H37          -12.6379     2.8574    -1.3544 H       
  38 H38          -12.9441     1.2343    -0.6909 H       
  39 H39           -9.4308     7.9717    -0.4683 H       
  40 H40           -9.5428     7.7363     1.2925 H       
  41 H41           -8.2384     8.7365     0.6096 H       
@<TRIPOS>BOND
   1    1    2 1
   2    1   11 2
   3    1    6 1
   4    2    3 2
   5    2   20 1
   6    3    4 1
   7    3   21 1
   8    4    5 2
   9    4    7 1
  10    5    6 1
  11    5    9 1
  12    6   10 2
  13    7    8 1
  14    8    9 2
  15    8   28 1
  16    9   12 1
  17   12   13 2
  18   12   14 1
  19   14   15 ar
  20   14   19 ar
  21   15   16 ar
  22   15   29 1
  23   16   17 ar
  24   16   23 1
  25   17   18 ar
  26   17   22 1
  27   18   19 ar
  28   18   30 1
  29   19   31 1
  30   22   25 1
  31   23   24 1
  32   24   27 1
  33   24   32 1
  34   24   33 1
  35   25   26 1
  36   25   34 1
  37   25   35 1
  38   26   36 1
  39   26   37 1
  40   26   38 1
  41   27   39 1
  42   27   40 1
  43   27   41 1

#	End of record

