#	Name: ASD10160200
#	Creating user name:	WinNT
#	Creation time:	15. 06. 2019 21:25

#	Modifying user name:	WinNT
#	Modification time:	15. 06. 2019 21:25

#	Program:	/corina/corina34_cracker 3.40 0067  02.08.2006

@<TRIPOS>MOLECULE
ASD10160200
  34   35    0    0    0
SMALL
NO_CHARGES


@<TRIPOS>ATOM
   1 C1            -0.0341     1.4701     0.0135 C.2     
   2 C2            -0.0099    -0.0043     0.0046 C.ar    
   3 C3             1.2052    -0.6856    -0.1324 C.ar    
   4 C4             1.2227    -2.0659    -0.1397 C.ar    
   5 C5             0.0376    -2.7777    -0.0120 C.ar    
   6 C6            -1.1732    -2.1037     0.1239 C.ar    
   7 C7            -1.1998    -0.7260     0.1386 C.ar    
   8 O8             1.0025     2.0959    -0.0981 O.2     
   9 N9            -1.2058     2.1240     0.1399 N.am    
  10 S10           -1.2331     3.7798     0.1500 S.o2    
  11 O11           -2.6052     4.1066     0.3220 O.2     
  12 O12           -0.2661     4.1402     1.1269 O.2     
  13 C13           -0.6693     4.2518    -1.5083 C.3     
  14 O14            0.0593    -4.1351    -0.0202 O.3     
  15 C15           -0.1516    -4.7684    -1.2014 C.ar    
  16 C16           -0.0399    -6.1529    -1.2798 C.ar    
  17 N17           -0.4698    -4.0700    -2.2818 N.ar    
  18 N18           -0.2457    -6.7657    -2.4303 N.ar    
  19 C19           -0.5577    -6.0651    -3.5076 C.ar    
  20 C20           -0.6747    -4.6901    -3.4315 C.ar    
  21 C21            0.3161    -6.9519    -0.0526 C.3     
  22 F22           -2.3233    -2.8018     0.2474 F       
  23 F23            2.3587     0.0065    -0.2575 F       
  24 H24            2.1595    -2.5928    -0.2453 H       
  25 H25           -2.1391    -0.2044     0.2490 H       
  26 H26           -2.0332     1.6248     0.2250 H       
  27 H27           -1.3479     3.8382    -2.2542 H       
  28 H28           -0.6561     5.3385    -1.5919 H       
  29 H29            0.3350     3.8624    -1.6751 H       
  30 H30           -0.7256    -6.5689    -4.4480 H       
  31 H31           -0.9340    -4.1214    -4.3123 H       
  32 H32           -0.5956    -7.2379     0.4719 H       
  33 H33            0.8616    -7.8480    -0.3481 H       
  34 H34            0.9398    -6.3475     0.6061 H       
@<TRIPOS>BOND
   1    1    2 1
   2    1    8 2
   3    1    9 am
   4    2    3 ar
   5    2    7 ar
   6    3    4 ar
   7    3   23 1
   8    4    5 ar
   9    4   24 1
  10    5    6 ar
  11    5   14 1
  12    6    7 ar
  13    6   22 1
  14    7   25 1
  15    9   10 am
  16    9   26 1
  17   10   11 2
  18   10   12 2
  19   10   13 1
  20   13   27 1
  21   13   28 1
  22   13   29 1
  23   14   15 1
  24   15   16 ar
  25   15   17 ar
  26   16   18 ar
  27   16   21 1
  28   17   20 ar
  29   18   19 ar
  30   19   20 ar
  31   19   30 1
  32   20   31 1
  33   21   32 1
  34   21   33 1
  35   21   34 1

#	End of record

