#	Name: ASD10220181
#	Creating user name:	WinNT
#	Creation time:	15. 06. 2019 21:26

#	Modifying user name:	WinNT
#	Modification time:	15. 06. 2019 21:26

#	Program:	/corina/corina34_cracker 3.40 0067  02.08.2006

@<TRIPOS>MOLECULE
ASD10220181
  40   42    0    0    0
SMALL
NO_CHARGES


@<TRIPOS>ATOM
   1 C1             0.2643     3.4652    -0.3625 C.ar    
   2 C2             0.6352     4.6763    -0.9388 C.ar    
   3 C3            -0.3218     5.5985    -1.3111 C.ar    
   4 C4            -1.6697     5.3213    -1.1121 C.ar    
   5 C5            -2.0417     4.1003    -0.5318 C.ar    
   6 C6            -1.0728     3.1729    -0.1631 C.ar    
   7 O7            -2.7999     6.0134    -1.3696 O.3     
   8 C8            -3.8866     5.3281    -0.9972 C.2     
   9 C9            -3.5169     4.1288    -0.4663 C.2     
  10 C10           -4.4023     3.0814     0.0621 C.2     
  11 O11           -3.9391     2.0101     0.4071 O.2     
  12 C12           -5.8533     3.3287     0.1743 C.ar    
  13 C13           -6.3278     4.6256     0.3884 C.ar    
  14 C14           -7.6868     4.8545     0.4932 C.ar    
  15 C15           -8.5830     3.7940     0.3860 C.ar    
  16 C16           -8.1128     2.5007     0.1731 C.ar    
  17 C17           -6.7552     2.2673     0.0610 C.ar    
  18 O18            1.2174     2.5654    -0.0003 O.3     
  19 Cl19           2.3159     5.0306    -1.1909 Cl      
  20 Cl20           0.1575     7.1053    -2.0277 Cl      
  21 O21           -9.9187     4.0217     0.4898 O.3     
  22 C22          -10.6229     4.3137    -0.7188 C.3     
  23 O23           -8.1492     6.1164     0.7016 O.3     
  24 C24           -7.1742     7.1562     0.8020 C.3     
  25 O25           -8.9907     1.4671     0.0694 O.3     
  26 C26           -8.4393     0.1670    -0.1488 C.3     
  27 H27           -1.3626     2.2332     0.2834 H       
  28 H28           -4.9045     5.6737    -1.1012 H       
  29 H29           -5.6331     5.4483     0.4723 H       
  30 H30           -6.3910     1.2641    -0.1045 H       
  31 H31            1.5361     2.6735     0.9063 H       
  32 H32          -10.2070     5.2129    -1.1734 H       
  33 H33          -10.5212     3.4769    -1.4098 H       
  34 H34          -11.6776     4.4742    -0.4951 H       
  35 H35           -6.5054     6.9478     1.6371 H       
  36 H36           -6.5978     7.2043    -0.1218 H       
  37 H37           -7.6757     8.1098     0.9675 H       
  38 H38           -7.8724     0.1643    -1.0798 H       
  39 H39           -7.7793    -0.0914     0.6793 H       
  40 H40           -9.2456    -0.5637    -0.2123 H       
@<TRIPOS>BOND
   1    1    2 ar
   2    1   18 1
   3    1    6 ar
   4    2    3 ar
   5    2   19 1
   6    3    4 ar
   7    3   20 1
   8    4    5 ar
   9    4    7 1
  10    5    6 ar
  11    5    9 1
  12    6   27 1
  13    7    8 1
  14    8    9 2
  15    8   28 1
  16    9   10 1
  17   10   11 2
  18   10   12 1
  19   12   13 ar
  20   12   17 ar
  21   13   14 ar
  22   13   29 1
  23   14   15 ar
  24   14   23 1
  25   15   16 ar
  26   15   21 1
  27   16   17 ar
  28   16   25 1
  29   17   30 1
  30   18   31 1
  31   21   22 1
  32   22   32 1
  33   22   33 1
  34   22   34 1
  35   23   24 1
  36   24   35 1
  37   24   36 1
  38   24   37 1
  39   25   26 1
  40   26   38 1
  41   26   39 1
  42   26   40 1

#	End of record

