#	Name: ASD10410115
#	Creating user name:	WinNT
#	Creation time:	15. 06. 2019 21:26

#	Modifying user name:	WinNT
#	Modification time:	15. 06. 2019 21:26

#	Program:	/corina/corina34_cracker 3.40 0067  02.08.2006

@<TRIPOS>MOLECULE
ASD10410115
  52   56    0    0    0
SMALL
NO_CHARGES


@<TRIPOS>ATOM
   1 C1            -0.0184     1.3925    -0.0799 C.ar    
   2 C2            -0.0057     0.0094     0.0248 C.ar    
   3 C3             1.2008    -0.6691     0.1147 C.ar    
   4 C4             2.3905     0.0318     0.0997 C.ar    
   5 C5             2.3788     1.4166    -0.0055 C.ar    
   6 C6             1.1704     2.0952    -0.0950 C.ar    
   7 O7            -1.1768    -0.6817     0.0397 O.3     
   8 N8             3.5843     2.1280    -0.0209 N.pl3   
   9 C9             3.6710     3.3382    -0.7084 C.2     
  10 N10            4.7097     4.1387    -0.7101 N.2     
  11 N11            2.7097     3.8649    -1.4760 N.2     
  12 C12            3.1183     5.0119    -1.9745 C.2     
  13 N13            4.3808     5.2364    -1.5218 N.pl3   
  14 C14            5.1870     6.3363    -1.8061 C.ar    
  15 N15            2.3951     5.8390    -2.8121 N.pl3   
  16 C16            6.4763     6.4334    -1.2645 C.ar    
  17 C17           -1.0895    -2.1038     0.1496 C.3     
  18 C18           -2.4975    -2.7026     0.1500 C.3     
  19 N19           -3.1367    -2.4518    -1.1486 N.3     
  20 C20           -4.3934    -3.2124    -1.2746 C.3     
  21 C21           -5.5168    -2.1947    -1.5641 C.3     
  22 C22           -4.7469    -0.9812    -2.1485 C.3     
  23 C23           -3.4368    -1.0146    -1.3226 C.3     
  24 N24            4.7489     7.3065    -2.5986 N.ar    
  25 C25            5.5097     8.3522    -2.8722 C.ar    
  26 N26            6.7194     8.4900    -2.3864 N.ar    
  27 C27            7.2562     7.5526    -1.5733 C.ar    
  28 C28            8.5172     7.5144    -0.9590 C.2     
  29 C29            8.7602     6.4493    -0.2084 C.2     
  30 S30            7.3802     5.3640    -0.2024 S.3     
  31 Cl31          10.2402     6.1676     0.6542 Cl      
  32 Cl32           4.8830     9.5903    -3.9153 Cl      
  33 H33           -0.9580     1.9197    -0.1540 H       
  34 H34            1.2097    -1.7460     0.1969 H       
  35 H35            3.3297    -0.4966     0.1701 H       
  36 H36            1.1604     3.1720    -0.1772 H       
  37 H37            4.3592     1.7791     0.4467 H       
  38 H38            1.4977     5.5899    -3.0833 H       
  39 H39            2.7848     6.6688    -3.1291 H       
  40 H40           -0.5266    -2.4997    -0.6956 H       
  41 H41           -0.5829    -2.3660     1.0784 H       
  42 H42           -2.4353    -3.7771     0.3229 H       
  43 H43           -3.0884    -2.2410     0.9411 H       
  44 H44           -4.3158    -3.9231    -2.0975 H       
  45 H45           -4.6022    -3.7405    -0.3442 H       
  46 H46           -6.2194    -2.5939    -2.2955 H       
  47 H47           -6.0321    -1.9176    -0.6444 H       
  48 H48           -4.5430    -1.1225    -3.2099 H       
  49 H49           -5.2927    -0.0534    -1.9775 H       
  50 H50           -3.5867    -0.5383    -0.3537 H       
  51 H51           -2.6317    -0.5222    -1.8680 H       
  52 H52            9.2438     8.3026    -1.0899 H       
@<TRIPOS>BOND
   1    1    2 ar
   2    1    6 ar
   3    1   33 1
   4    2    3 ar
   5    2    7 1
   6    3    4 ar
   7    3   34 1
   8    4    5 ar
   9    4   35 1
  10    5    6 ar
  11    5    8 1
  12    6   36 1
  13    7   17 1
  14    8    9 1
  15    8   37 1
  16    9   10 2
  17    9   11 1
  18   10   13 1
  19   11   12 2
  20   12   13 1
  21   12   15 1
  22   13   14 1
  23   14   16 ar
  24   14   24 ar
  25   15   38 1
  26   15   39 1
  27   16   27 ar
  28   16   30 1
  29   17   18 1
  30   17   40 1
  31   17   41 1
  32   18   19 1
  33   18   42 1
  34   18   43 1
  35   19   20 1
  36   19   23 1
  37   20   21 1
  38   20   44 1
  39   20   45 1
  40   21   22 1
  41   21   46 1
  42   21   47 1
  43   22   23 1
  44   22   48 1
  45   22   49 1
  46   23   50 1
  47   23   51 1
  48   24   25 ar
  49   25   26 ar
  50   25   32 1
  51   26   27 ar
  52   27   28 1
  53   28   29 2
  54   28   52 1
  55   29   30 1
  56   29   31 1

#	End of record

