#	Name: ASD10420025
#	Creating user name:	WinNT
#	Creation time:	15. 06. 2019 21:27

#	Modifying user name:	WinNT
#	Modification time:	15. 06. 2019 21:27

#	Program:	/corina/corina34_cracker 3.40 0067  02.08.2006

@<TRIPOS>MOLECULE
ASD10420025
  77   81    0    0    0
SMALL
NO_CHARGES


@<TRIPOS>ATOM
   1 N1            -0.1200     0.2728    -0.5791 N.pl3   
   2 C2            -0.5209    -0.9615    -1.0143 C.2     
   3 C3            -1.9261    -0.9678    -1.0755 C.2     
   4 C4            -2.3638     0.2915    -0.6671 C.2     
   5 C5            -1.2421     1.0486    -0.3688 C.2     
   6 C6             1.2084     0.5484    -0.4303 C.2     
   7 C7             2.1431    -0.3866    -0.7083 C.2     
   8 C8             1.7595    -1.6592    -1.1562 C.2     
   9 C9             0.4351    -1.9466    -1.3075 C.2     
  10 C10           -1.2466     2.3908     0.0849 C.2     
  11 O11           -1.2794     2.6300     1.2788 O.2     
  12 C12           -3.7967     0.7483    -0.5726 C.3     
  13 C13           -4.3236     0.4664     0.8109 C.ar    
  14 C14           -4.5093     1.5046     1.7042 C.ar    
  15 C15           -4.6263    -0.8296     1.1841 C.ar    
  16 C16           -5.1098    -1.0897     2.4531 C.ar    
  17 C17           -5.2914    -0.0541     3.3495 C.ar    
  18 C18           -2.7817    -2.1010    -1.4961 C.ar    
  19 C19           -2.8146    -3.2723    -0.7391 C.ar    
  20 C20           -3.6141    -4.3245    -1.1359 C.ar    
  21 C21           -4.3822    -4.2195    -2.2819 C.ar    
  22 C22           -4.3536    -3.0606    -3.0371 C.ar    
  23 C23           -3.5625    -1.9994    -2.6476 C.ar    
  24 C24           -4.1855     2.9184     1.2948 C.3     
  25 C25           -4.9933     1.2454     2.9750 C.ar    
  26 F26           -5.1701     2.2588     3.8509 F       
  27 N27           -1.2147     3.4029    -0.8045 N.am    
  28 C28           -1.0593     3.1390    -2.2431 C.3     
  29 C29           -1.3406     4.8002    -0.3630 C.3     
  30 C30           -0.1863     5.6073    -0.9667 C.3     
  31 N31           -0.1680     5.4154    -2.4230 N.3     
  32 C32            0.0844     4.0082    -2.7766 C.3     
  33 C33           -0.3806     7.0915    -0.6498 C.3     
  34 C34            0.8147     7.8697    -1.1363 C.2     
  35 O35            1.7317     7.2939    -1.6828 O.2     
  36 N36            0.8647     9.2055    -0.9642 N.am    
  37 C37            2.0267     9.9620    -1.4372 C.3     
  38 C38            1.8325    11.4461    -1.1203 C.3     
  39 C39            3.0460    12.2362    -1.6142 C.3     
  40 C40            2.8518    13.7203    -1.2973 C.3     
  41 H41            1.5159     1.5250    -0.0867 H       
  42 H42            3.1904    -0.1531    -0.5854 H       
  43 H43            2.5072    -2.4060    -1.3789 H       
  44 H44            0.1248    -2.9223    -1.6513 H       
  45 H45           -3.8507     1.8187    -0.7708 H       
  46 H46           -4.3982     0.2121    -1.3067 H       
  47 H47           -4.4854    -1.6396     0.4838 H       
  48 H48           -5.3460    -2.1028     2.7436 H       
  49 H49           -5.6697    -0.2574     4.3405 H       
  50 H50           -2.2152    -3.3556     0.1554 H       
  51 H51           -3.6402    -5.2320    -0.5510 H       
  52 H52           -5.0064    -5.0458    -2.5884 H       
  53 H53           -4.9548    -2.9850    -3.9311 H       
  54 H54           -3.5410    -1.0953    -3.2379 H       
  55 H55           -5.0468     3.3570     0.7909 H       
  56 H56           -3.9439     3.5067     2.1800 H       
  57 H57           -3.3316     2.9139     0.6173 H       
  58 H58           -0.8226     2.0865    -2.3988 H       
  59 H59           -1.9835     3.3903    -2.7634 H       
  60 H60           -2.2914     5.2083    -0.7057 H       
  61 H61           -1.2899     4.8464     0.7249 H       
  62 H62            0.7577     5.2650    -0.5428 H       
  63 H63           -1.0266     5.7406    -2.8414 H       
  64 H64            1.0233     3.6833    -2.3283 H       
  65 H65            0.1456     3.9109    -3.8605 H       
  66 H66           -1.2786     7.4551    -1.1491 H       
  67 H67           -0.4854     7.2223     0.4272 H       
  68 H68            0.1314     9.6659    -0.5272 H       
  69 H69            2.9248     9.5983    -0.9379 H       
  70 H70            2.1316     9.8311    -2.5142 H       
  71 H71            0.9344    11.8098    -1.6196 H       
  72 H72            1.7276    11.5770    -0.0432 H       
  73 H73            3.9441    11.8725    -1.1149 H       
  74 H74            3.1509    12.1053    -2.6912 H       
  75 H75            1.9537    14.0840    -1.7966 H       
  76 H76            2.7469    13.8512    -0.2203 H       
  77 H77            3.7163    14.2832    -1.6492 H       
@<TRIPOS>BOND
   1    1    2 1
   2    1    6 1
   3    1    5 1
   4    2    3 2
   5    2    9 1
   6    3    4 1
   7    3   18 1
   8    4    5 2
   9    4   12 1
  10    5   10 1
  11    6    7 2
  12    6   41 1
  13    7    8 1
  14    7   42 1
  15    8    9 2
  16    8   43 1
  17    9   44 1
  18   10   11 2
  19   10   27 am
  20   12   13 1
  21   12   45 1
  22   12   46 1
  23   13   14 ar
  24   13   15 ar
  25   14   24 1
  26   14   25 ar
  27   15   16 ar
  28   15   47 1
  29   16   17 ar
  30   16   48 1
  31   17   25 ar
  32   17   49 1
  33   18   19 ar
  34   18   23 ar
  35   19   20 ar
  36   19   50 1
  37   20   21 ar
  38   20   51 1
  39   21   22 ar
  40   21   52 1
  41   22   23 ar
  42   22   53 1
  43   23   54 1
  44   24   55 1
  45   24   56 1
  46   24   57 1
  47   25   26 1
  48   27   28 1
  49   27   29 1
  50   28   32 1
  51   28   58 1
  52   28   59 1
  53   29   30 1
  54   29   60 1
  55   29   61 1
  56   30   31 1
  57   30   33 1
  58   30   62 1
  59   31   32 1
  60   31   63 1
  61   32   64 1
  62   32   65 1
  63   33   34 1
  64   33   66 1
  65   33   67 1
  66   34   35 2
  67   34   36 am
  68   36   37 1
  69   36   68 1
  70   37   38 1
  71   37   69 1
  72   37   70 1
  73   38   39 1
  74   38   71 1
  75   38   72 1
  76   39   40 1
  77   39   73 1
  78   39   74 1
  79   40   75 1
  80   40   76 1
  81   40   77 1

#	End of record

