#	Name: ASD10610089
#	Creating user name:	WinNT
#	Creation time:	15. 06. 2019 21:27

#	Modifying user name:	WinNT
#	Modification time:	15. 06. 2019 21:27

#	Program:	/corina/corina34_cracker 3.40 0067  02.08.2006

@<TRIPOS>MOLECULE
ASD10610089
  57   60    0    0    0
SMALL
NO_CHARGES


@<TRIPOS>ATOM
   1 O1            -0.2638     1.1175    -1.1847 O.3     
   2 N2            -0.6664     0.0773    -1.6509 N.2     
   3 C3            -1.0432     0.2121    -2.8891 C.2     
   4 C4            -0.8321     1.5666    -3.2299 C.2     
   5 C5            -0.3226     2.1166    -2.0853 C.2     
   6 C6             0.0802     3.5206    -1.8794 C.2     
   7 O7            -0.0279     4.3233    -2.7862 O.2     
   8 N8             0.5680     3.9137    -0.6861 N.am    
   9 O9            -0.2917     6.1994     0.7510 O.3     
  10 C10           -0.0035     6.3710    -0.6427 C.3     
  11 C11            1.0668     5.2802    -0.5128 C.3     
  12 C12            1.0664     5.7801     0.9371 C.3     
  13 C13            2.3390     5.5573    -1.2717 C.2     
  14 N14            3.2724     4.5932    -1.3971 N.am    
  15 O15            2.5228     6.6478    -1.7697 O.2     
  16 C16            4.5541     4.8938    -2.0398 C.3     
  17 C17            4.4109     4.7480    -3.5561 C.3     
  18 C18            7.5330     2.1723    -0.6208 C.ar    
  19 C19            7.9067     3.4219    -1.1114 C.ar    
  20 C20            6.9407     4.2985    -1.5685 C.ar    
  21 C21            5.6039     3.9351    -1.5399 C.ar    
  22 C22            5.2297     2.6959    -1.0538 C.ar    
  23 C23            6.1867     1.8135    -0.5945 C.ar    
  24 C24            8.5653     1.2247    -0.1344 C.ar    
  25 C25            9.4671     1.6183     0.8585 C.ar    
  26 C26           10.4290     0.7267     1.3077 C.ar    
  27 C27           10.4955    -0.5476     0.7740 C.ar    
  28 C28            9.6035    -0.9399    -0.2095 C.ar    
  29 C29            8.6365    -0.0628    -0.6611 C.ar    
  30 F30            7.3004     5.5106    -2.0446 F       
  31 O31            9.4014     2.8708     1.3814 O.3     
  32 C32            8.5207     3.0657     2.4898 C.3     
  33 C33            8.5057     4.5463     2.8750 C.3     
  34 F34            9.7977     4.9490     3.2297 F       
  35 F35            8.0622     5.3067     1.7876 F       
  36 Cl36           9.6964    -2.5415    -0.8727 Cl      
  37 Cl37          11.5515     1.2102     2.5406 Cl      
  38 H38           -1.4394    -0.5608    -3.5310 H       
  39 H39           -1.0270     2.0542    -4.1736 H       
  40 H40            0.5889     3.2918     0.0580 H       
  41 H41           -0.8313     6.0896    -1.2936 H       
  42 H42            0.4056     7.3524    -0.8824 H       
  43 H43            1.7549     6.6073     1.1099 H       
  44 H44            1.1761     4.9811     1.6703 H       
  45 H45            3.0956     3.7004    -1.0617 H       
  46 H46            4.8506     5.9148    -1.7994 H       
  47 H47            4.1145     3.7270    -3.7965 H       
  48 H48            3.6516     5.4414    -3.9177 H       
  49 H49            5.3645     4.9716    -4.0344 H       
  50 H50            8.9487     3.7051    -1.1337 H       
  51 H51            4.1863     2.4178    -1.0334 H       
  52 H52            5.8924     0.8462    -0.2149 H       
  53 H53           11.2466    -1.2394     1.1257 H       
  54 H54            7.9394    -0.3735    -1.4252 H       
  55 H55            7.5140     2.7520     2.2135 H       
  56 H56            8.8662     2.4733     3.3370 H       
  57 H57            7.8339     4.6950     3.7204 H       
@<TRIPOS>BOND
   1    1    2 1
   2    1    5 1
   3    2    3 2
   4    3    4 1
   5    3   38 1
   6    4    5 2
   7    4   39 1
   8    5    6 1
   9    6    7 2
  10    6    8 am
  11    8   11 1
  12    8   40 1
  13    9   10 1
  14    9   12 1
  15   10   11 1
  16   10   41 1
  17   10   42 1
  18   11   12 1
  19   11   13 1
  20   12   43 1
  21   12   44 1
  22   13   14 am
  23   13   15 2
  24   14   16 1
  25   14   45 1
  26   16   17 1
  27   16   21 1
  28   16   46 1
  29   17   47 1
  30   17   48 1
  31   17   49 1
  32   18   19 ar
  33   18   23 ar
  34   18   24 1
  35   19   20 ar
  36   19   50 1
  37   20   21 ar
  38   20   30 1
  39   21   22 ar
  40   22   23 ar
  41   22   51 1
  42   23   52 1
  43   24   25 ar
  44   24   29 ar
  45   25   26 ar
  46   25   31 1
  47   26   27 ar
  48   26   37 1
  49   27   28 ar
  50   27   53 1
  51   28   29 ar
  52   28   36 1
  53   29   54 1
  54   31   32 1
  55   32   33 1
  56   32   55 1
  57   32   56 1
  58   33   34 1
  59   33   35 1
  60   33   57 1

#	End of record

