#	Name: ASD10160296
#	Creating user name:	WinNT
#	Creation time:	15. 06. 2019 21:25

#	Modifying user name:	WinNT
#	Modification time:	15. 06. 2019 21:25

#	Program:	/corina/corina34_cracker 3.40 0067  02.08.2006

@<TRIPOS>MOLECULE
ASD10160296
  28   29    0    0    0
SMALL
NO_CHARGES


@<TRIPOS>ATOM
   1 C1            -1.4284     1.5145    -1.1576 C.2     
   2 C2            -1.7216     0.0701    -1.1904 C.ar    
   3 C3            -1.9711    -0.5688    -2.4106 C.ar    
   4 C4            -2.2453    -1.9226    -2.4344 C.ar    
   5 C5            -2.2739    -2.6469    -1.2542 C.ar    
   6 C6            -2.0275    -2.0181    -0.0403 C.ar    
   7 C7            -1.7459    -0.6682    -0.0038 C.ar    
   8 O8            -1.4030     2.1530    -2.1912 O.2     
   9 O9            -1.1940     2.1279     0.0193 O.3     
  10 F10           -2.0577    -2.7315     1.1066 F       
  11 F11           -2.5430    -3.9705    -1.2837 F       
  12 F12           -1.9443     0.1370    -3.5623 F       
  13 C13           -1.0418     3.4782    -0.0082 C.ar    
  14 C14           -2.1487     4.2991    -0.1690 C.ar    
  15 C15           -1.9913     5.6713    -0.1967 C.ar    
  16 C16           -0.7320     6.2267    -0.0643 C.ar    
  17 C17            0.3727     5.4107     0.0960 C.ar    
  18 C18            0.2200     4.0382     0.1301 C.ar    
  19 C19           -0.5632     7.7239    -0.0954 C.3     
  20 H20           -2.4380    -2.4170    -3.3750 H       
  21 H21           -1.5495    -0.1818     0.9402 H       
  22 H22           -3.1325     3.8658    -0.2728 H       
  23 H23           -2.8525     6.3107    -0.3222 H       
  24 H24            1.3553     5.8470     0.1992 H       
  25 H25            1.0826     3.4015     0.2598 H       
  26 H26           -0.6451     8.1198     0.9168 H       
  27 H27            0.4168     7.9706    -0.5039 H       
  28 H28           -1.3391     8.1641    -0.7216 H       
@<TRIPOS>BOND
   1    1    2 1
   2    1    8 2
   3    1    9 1
   4    2    3 ar
   5    2    7 ar
   6    3    4 ar
   7    3   12 1
   8    4    5 ar
   9    4   20 1
  10    5    6 ar
  11    5   11 1
  12    6    7 ar
  13    6   10 1
  14    7   21 1
  15    9   13 1
  16   13   14 ar
  17   13   18 ar
  18   14   15 ar
  19   14   22 1
  20   15   16 ar
  21   15   23 1
  22   16   17 ar
  23   16   19 1
  24   17   18 ar
  25   17   24 1
  26   18   25 1
  27   19   26 1
  28   19   27 1
  29   19   28 1

#	End of record

