#	Name: ASD10220179
#	Creating user name:	WinNT
#	Creation time:	15. 06. 2019 21:26

#	Modifying user name:	WinNT
#	Modification time:	15. 06. 2019 21:26

#	Program:	/corina/corina34_cracker 3.40 0067  02.08.2006

@<TRIPOS>MOLECULE
ASD10220179
  40   42    0    0    0
SMALL
NO_CHARGES


@<TRIPOS>ATOM
   1 C1             0.2636     3.4650    -0.3680 C.ar    
   2 C2             0.6335     4.6761    -0.9443 C.ar    
   3 C3            -0.3238     5.5980    -1.3157 C.ar    
   4 C4            -1.6712     5.3208    -1.1152 C.ar    
   5 C5            -2.0426     4.0999    -0.5343 C.ar    
   6 C6            -1.0734     3.1723    -0.1673 C.ar    
   7 O7            -2.8017     6.0127    -1.3720 O.3     
   8 C8            -3.8879     5.3272    -0.9985 C.2     
   9 C9            -3.5178     4.1281    -0.4677 C.2     
  10 C10           -4.4026     3.0805     0.0613 C.2     
  11 O11           -3.9390     2.0095     0.4063 O.2     
  12 C12           -5.8537     3.3276     0.1742 C.ar    
  13 C13           -6.3283     4.6243     0.3883 C.ar    
  14 C14           -7.6874     4.8529     0.4936 C.ar    
  15 C15           -8.5834     3.7922     0.3865 C.ar    
  16 C16           -8.1130     2.4989     0.1736 C.ar    
  17 C17           -6.7552     2.2659     0.0613 C.ar    
  18 O18            1.2173     2.5655    -0.0067 O.3     
  19 Br19           2.4639     5.0625    -1.2205 Br      
  20 Br20           0.1974     7.2392    -2.0970 Br      
  21 O21           -9.9191     4.0196     0.4905 O.3     
  22 C22          -10.6235     4.3115    -0.7181 C.3     
  23 O23           -8.1500     6.1146     0.7024 O.3     
  24 C24           -7.1752     7.1547     0.8028 C.3     
  25 O25           -8.9906     1.4652     0.0704 O.3     
  26 C26           -8.4389     0.1651    -0.1478 C.3     
  27 H27           -1.3625     2.2326     0.2796 H       
  28 H28           -4.9060     5.6726    -1.1022 H       
  29 H29           -5.6339     5.4472     0.4717 H       
  30 H30           -6.3909     1.2627    -0.1041 H       
  31 H31            1.5367     2.6736     0.8996 H       
  32 H32          -10.2078     5.2107    -1.1728 H       
  33 H33          -10.5217     3.4747    -1.4091 H       
  34 H34          -11.6782     4.4717    -0.4944 H       
  35 H35           -6.5060     6.9461     1.6376 H       
  36 H36           -6.5991     7.2031    -0.1213 H       
  37 H37           -7.6768     8.1080     0.9686 H       
  38 H38           -7.7785    -0.0929     0.6800 H       
  39 H39           -9.2451    -0.5658    -0.2109 H       
  40 H40           -7.8725     0.1625    -1.0791 H       
@<TRIPOS>BOND
   1    1    2 ar
   2    1   18 1
   3    1    6 ar
   4    2    3 ar
   5    2   19 1
   6    3    4 ar
   7    3   20 1
   8    4    5 ar
   9    4    7 1
  10    5    6 ar
  11    5    9 1
  12    6   27 1
  13    7    8 1
  14    8    9 2
  15    8   28 1
  16    9   10 1
  17   10   11 2
  18   10   12 1
  19   12   13 ar
  20   12   17 ar
  21   13   14 ar
  22   13   29 1
  23   14   15 ar
  24   14   23 1
  25   15   16 ar
  26   15   21 1
  27   16   17 ar
  28   16   25 1
  29   17   30 1
  30   18   31 1
  31   21   22 1
  32   22   32 1
  33   22   33 1
  34   22   34 1
  35   23   24 1
  36   24   35 1
  37   24   36 1
  38   24   37 1
  39   25   26 1
  40   26   38 1
  41   26   39 1
  42   26   40 1

#	End of record

