#	Name: ASD10210001
#	Creating user name:	WinNT
#	Creation time:	15. 06. 2019 21:26

#	Modifying user name:	WinNT
#	Modification time:	15. 06. 2019 21:26

#	Program:	/corina/corina34_cracker 3.40 0067  02.08.2006

@<TRIPOS>MOLECULE
ASD10210001
  48   51    0    0    0
SMALL
NO_CHARGES


@<TRIPOS>ATOM
   1 C1            -0.1300     2.8615    -0.0909 C.3     
   2 C2            -0.4297     1.3775    -0.1222 C.2     
   3 C3             0.2045     0.5118     0.9465 C.3     
   4 C4             1.7208     0.7605     0.9128 C.3     
   5 C5             1.9797     2.2573     1.1003 C.3     
   6 C6             1.3946     3.0394    -0.0753 C.3     
   7 C7             2.3819    -0.0437     2.0329 C.3     
   8 C8             3.8984     0.1934     2.0326 C.3     
   9 C9             4.2208     1.1938     0.9298 C.3     
  10 C10            3.4825     2.5058     1.2150 C.3     
  11 H11            1.4959     2.5869     2.0246 H       
  12 H12            2.1041     0.4362    -0.0541 H       
  13 O13           -1.1467     0.9029    -0.9663 O.2     
  14 C14            5.6775     1.4345     0.6965 C.3     
  15 C15            6.1645     2.7960     1.2296 C.3     
  16 C16            5.4515     3.9397     0.5570 C.3     
  17 C17            3.9788     3.5991     0.2831 C.3     
  18 C18            6.6734     0.4634     1.3467 C.3     
  19 C19            8.0230     1.2276     1.2433 C.3     
  20 C20            7.6703     2.6951     0.8924 C.3     
  21 C21            6.0651     2.9018     2.7521 C.3     
  22 O22            8.4078     3.6017     1.7069 O.3     
  23 H23           -0.5445     3.3399    -0.9762 H       
  24 H24           -0.5580     3.3033     0.8077 H       
  25 H25           -0.1907     0.7831     1.9229 H       
  26 H26            0.0021    -0.5366     0.7359 H       
  27 H27            1.8118     2.6685    -1.0097 H       
  28 H28            1.6234     4.0991     0.0356 H       
  29 H29            1.9703     0.2640     2.9942 H       
  30 H30            2.1873    -1.1063     1.8795 H       
  31 H31            4.2019     0.5881     3.0004 H       
  32 H32            4.4101    -0.7495     1.8414 H       
  33 H33            3.8081     0.7839    -0.0153 H       
  34 H34            3.6590     2.8054     2.2517 H       
  35 H35            5.8611     1.4060    -0.4005 H       
  36 H36            5.5067     4.8344     1.1899 H       
  37 H37            5.9495     4.1751    -0.3936 H       
  38 H38            3.8695     3.2737    -0.7556 H       
  39 H39            3.3753     4.5020     0.4263 H       
  40 H40            6.4173     0.2566     2.3814 H       
  41 H41            6.7230    -0.4669     0.7753 H       
  42 H42            8.5496     1.1874     2.1962 H       
  43 H43            8.6381     0.7934     0.4561 H       
  44 H44            7.8231     2.8901    -0.1622 H       
  45 H45            6.7732     2.2120     3.2113 H       
  46 H46            6.2979     3.9208     3.0614 H       
  47 H47            5.0534     2.6481     3.0687 H       
  48 H48            9.3665     3.5372     1.5986 H       
@<TRIPOS>BOND
   1    1    2 1
   2    1    6 1
   3    1   23 1
   4    1   24 1
   5    2    3 1
   6    2   13 2
   7    3    4 1
   8    3   25 1
   9    3   26 1
  10    4    5 1
  11    4    7 1
  12    4   12 1
  13    5    6 1
  14    5   11 1
  15    5   10 1
  16    6   27 1
  17    6   28 1
  18    7    8 1
  19    7   29 1
  20    7   30 1
  21    8    9 1
  22    8   31 1
  23    8   32 1
  24    9   10 1
  25    9   14 1
  26    9   33 1
  27   10   17 1
  28   10   34 1
  29   14   15 1
  30   14   18 1
  31   14   35 1
  32   15   16 1
  33   15   21 1
  34   15   20 1
  35   16   17 1
  36   16   36 1
  37   16   37 1
  38   17   38 1
  39   17   39 1
  40   18   19 1
  41   18   40 1
  42   18   41 1
  43   19   20 1
  44   19   42 1
  45   19   43 1
  46   20   22 1
  47   20   44 1
  48   21   45 1
  49   21   46 1
  50   21   47 1
  51   22   48 1

#	End of record

