#	Name: ASD10410216
#	Creating user name:	WinNT
#	Creation time:	15. 06. 2019 21:27

#	Modifying user name:	WinNT
#	Modification time:	15. 06. 2019 21:27

#	Program:	/corina/corina34_cracker 3.40 0067  02.08.2006

@<TRIPOS>MOLECULE
ASD10410216
  49   52    0    0    0
SMALL
NO_CHARGES


@<TRIPOS>ATOM
   1 C1            -0.0183     1.3926    -0.0800 C.ar    
   2 C2            -0.0058     0.0095     0.0248 C.ar    
   3 C3             1.2006    -0.6691     0.1149 C.ar    
   4 C4             2.3904     0.0319     0.1004 C.ar    
   5 C5             2.3788     1.4166    -0.0050 C.ar    
   6 C6             1.1705     2.0952    -0.0952 C.ar    
   7 O7            -1.1769    -0.6815     0.0396 O.3     
   8 N8             3.5843     2.1280    -0.0193 N.pl3   
   9 C9             3.6716     3.3382    -0.7067 C.2     
  10 N10            4.7102     4.1385    -0.7075 N.2     
  11 N11            2.7109     3.8649    -1.4752 N.2     
  12 C12            3.1200     5.0116    -1.9737 C.2     
  13 N13            4.3822     5.2360    -1.5199 N.pl3   
  14 C14            5.1888     6.3349    -1.8044 C.ar    
  15 N15            2.3974     5.8388    -2.8115 N.pl3   
  16 N16            6.4016     6.3995    -1.2776 N.ar    
  17 C17           -1.0898    -2.1036     0.1497 C.3     
  18 C18           -2.4977    -2.7024     0.1500 C.3     
  19 N19           -3.1368    -2.4516    -1.1487 N.3     
  20 C20           -4.3936    -3.2122    -1.2749 C.3     
  21 C21           -5.5168    -2.1944    -1.5645 C.3     
  22 C22           -4.7468    -0.9810    -2.1490 C.3     
  23 C23           -3.4368    -1.0144    -1.3229 C.3     
  24 N24            4.7263     7.2869    -2.5996 N.ar    
  25 C25            5.4664     8.3438    -2.8907 C.ar    
  26 C26            6.7395     8.4465    -2.3520 C.ar    
  27 C27            7.1937     7.4288    -1.5276 C.ar    
  28 H28           -0.9580     1.9199    -0.1543 H       
  29 H29            1.2095    -1.7459     0.1968 H       
  30 H30            3.3296    -0.4966     0.1713 H       
  31 H31            1.1605     3.1720    -0.1775 H       
  32 H32            4.3589     1.7791     0.4489 H       
  33 H33            1.4999     5.5900    -3.0828 H       
  34 H34            2.7874     6.6685    -3.1284 H       
  35 H35           -0.5267    -2.4996    -0.6954 H       
  36 H36           -0.5833    -2.3657     1.0786 H       
  37 H37           -2.4356    -3.7768     0.3229 H       
  38 H38           -3.0887    -2.2406     0.9409 H       
  39 H39           -4.3159    -3.9229    -2.0977 H       
  40 H40           -4.6024    -3.7402    -0.3444 H       
  41 H41           -6.2194    -2.5936    -2.2960 H       
  42 H42           -6.0322    -1.9172    -0.6450 H       
  43 H43           -4.5428    -1.1224    -3.2103 H       
  44 H44           -5.2926    -0.0531    -1.9781 H       
  45 H45           -3.5868    -0.5380    -0.3541 H       
  46 H46           -2.6316    -0.5221    -1.8682 H       
  47 H47            5.0836     9.1170    -3.5403 H       
  48 H48            7.3653     9.2986    -2.5730 H       
  49 H49            8.1804     7.4779    -1.0914 H       
@<TRIPOS>BOND
   1    1    2 ar
   2    1    6 ar
   3    1   28 1
   4    2    3 ar
   5    2    7 1
   6    3    4 ar
   7    3   29 1
   8    4    5 ar
   9    4   30 1
  10    5    6 ar
  11    5    8 1
  12    6   31 1
  13    7   17 1
  14    8    9 1
  15    8   32 1
  16    9   10 2
  17    9   11 1
  18   10   13 1
  19   11   12 2
  20   12   13 1
  21   12   15 1
  22   13   14 1
  23   14   16 ar
  24   14   24 ar
  25   15   33 1
  26   15   34 1
  27   16   27 ar
  28   17   18 1
  29   17   35 1
  30   17   36 1
  31   18   19 1
  32   18   37 1
  33   18   38 1
  34   19   20 1
  35   19   23 1
  36   20   21 1
  37   20   39 1
  38   20   40 1
  39   21   22 1
  40   21   41 1
  41   21   42 1
  42   22   23 1
  43   22   43 1
  44   22   44 1
  45   23   45 1
  46   23   46 1
  47   24   25 ar
  48   25   26 ar
  49   25   47 1
  50   26   27 ar
  51   26   48 1
  52   27   49 1

#	End of record

