#	Name: ASD10410199
#	Creating user name:	WinNT
#	Creation time:	15. 06. 2019 21:27

#	Modifying user name:	WinNT
#	Modification time:	15. 06. 2019 21:27

#	Program:	/corina/corina34_cracker 3.40 0067  02.08.2006

@<TRIPOS>MOLECULE
ASD10410199
  54   58    0    0    0
SMALL
NO_CHARGES


@<TRIPOS>ATOM
   1 C1            -0.0183     1.3926    -0.0798 C.ar    
   2 C2            -0.0058     0.0095     0.0248 C.ar    
   3 C3             1.2006    -0.6691     0.1147 C.ar    
   4 C4             2.3904     0.0318     0.1002 C.ar    
   5 C5             2.3788     1.4166    -0.0050 C.ar    
   6 C6             1.1705     2.0952    -0.0949 C.ar    
   7 O7            -1.1769    -0.6815     0.0396 O.3     
   8 N8             3.5843     2.1280    -0.0193 N.pl3   
   9 C9             3.6716     3.3381    -0.7066 C.2     
  10 N10            4.7103     4.1384    -0.7073 N.2     
  11 N11            2.7107     3.8647    -1.4751 N.2     
  12 C12            3.1195     5.0116    -1.9733 C.2     
  13 N13            4.3823     5.2362    -1.5193 N.pl3   
  14 C14            5.1857     6.3321    -1.8016 C.2     
  15 N15            2.3969     5.8386    -2.8111 N.pl3   
  16 N16            4.8429     7.3384    -2.5639 N.2     
  17 C17           -1.0898    -2.1036     0.1495 C.3     
  18 C18           -2.4977    -2.7024     0.1498 C.3     
  19 N19           -3.1369    -2.4514    -1.1488 N.3     
  20 C20           -4.3937    -3.2120    -1.2750 C.3     
  21 C21           -5.5170    -2.1941    -1.5643 C.3     
  22 C22           -4.7470    -0.9807    -2.1487 C.3     
  23 C23           -3.4369    -1.0142    -1.3227 C.3     
  24 N24            6.4489     6.5229    -1.3203 N.pl3   
  25 C25            6.9050     7.7256    -1.8300 C.ar    
  26 C26            5.8626     8.2333    -2.6241 C.ar    
  27 C27            8.0876     8.4384    -1.7019 C.ar    
  28 C28            8.2379     9.6428    -2.3576 C.ar    
  29 C29            7.2135    10.1469    -3.1451 C.ar    
  30 C30            6.0308     9.4551    -3.2806 C.ar    
  31 H31           -0.9580     1.9199    -0.1539 H       
  32 H32            1.2095    -1.7460     0.1964 H       
  33 H33            3.3296    -0.4966     0.1709 H       
  34 H34            1.1605     3.1720    -0.1771 H       
  35 H35            4.3589     1.7791     0.4489 H       
  36 H36            1.4996     5.5895    -3.0827 H       
  37 H37            2.7867     6.6685    -3.1278 H       
  38 H38           -0.5268    -2.4995    -0.6958 H       
  39 H39           -0.5832    -2.3659     1.0783 H       
  40 H40           -2.4356    -3.7768     0.3226 H       
  41 H41           -3.0887    -2.2408     0.9409 H       
  42 H42           -4.3161    -3.9225    -2.0979 H       
  43 H43           -4.6025    -3.7401    -0.3446 H       
  44 H44           -6.2196    -2.5933    -2.2958 H       
  45 H45           -6.0323    -1.9170    -0.6447 H       
  46 H46           -4.5431    -1.1219    -3.2101 H       
  47 H47           -5.2928    -0.0528    -1.9776 H       
  48 H48           -3.5868    -0.5379    -0.3538 H       
  49 H49           -2.6318    -0.5218    -1.8681 H       
  50 H50            6.9359     5.9264    -0.7304 H       
  51 H51            8.8891     8.0516    -1.0899 H       
  52 H52            9.1593    10.1971    -2.2567 H       
  53 H53            7.3433    11.0910    -3.6534 H       
  54 H54            5.2375     9.8534    -3.8958 H       
@<TRIPOS>BOND
   1    1    2 ar
   2    1    6 ar
   3    1   31 1
   4    2    3 ar
   5    2    7 1
   6    3    4 ar
   7    3   32 1
   8    4    5 ar
   9    4   33 1
  10    5    6 ar
  11    5    8 1
  12    6   34 1
  13    7   17 1
  14    8    9 1
  15    8   35 1
  16    9   10 2
  17    9   11 1
  18   10   13 1
  19   11   12 2
  20   12   13 1
  21   12   15 1
  22   13   14 1
  23   14   16 2
  24   14   24 1
  25   15   36 1
  26   15   37 1
  27   16   26 1
  28   17   18 1
  29   17   38 1
  30   17   39 1
  31   18   19 1
  32   18   40 1
  33   18   41 1
  34   19   20 1
  35   19   23 1
  36   20   21 1
  37   20   42 1
  38   20   43 1
  39   21   22 1
  40   21   44 1
  41   21   45 1
  42   22   23 1
  43   22   46 1
  44   22   47 1
  45   23   48 1
  46   23   49 1
  47   24   25 1
  48   24   50 1
  49   25   26 ar
  50   25   27 ar
  51   26   30 ar
  52   27   28 ar
  53   27   51 1
  54   28   29 ar
  55   28   52 1
  56   29   30 ar
  57   29   53 1
  58   30   54 1

#	End of record

