#	Name: ASD10420088
#	Creating user name:	WinNT
#	Creation time:	15. 06. 2019 21:27

#	Modifying user name:	WinNT
#	Modification time:	15. 06. 2019 21:27

#	Program:	/corina/corina34_cracker 3.40 0067  02.08.2006

@<TRIPOS>MOLECULE
ASD10420088
  27   28    0    0    0
SMALL
NO_CHARGES


@<TRIPOS>ATOM
   1 C1            -0.0167     1.3778     0.0096 C.ar    
   2 C2             0.0021    -0.0041     0.0020 C.ar    
   3 N3             1.1442    -0.6631    -0.0124 N.ar    
   4 C4             2.3054    -0.0381    -0.0202 C.ar    
   5 C5             2.3651     1.3426    -0.0129 C.ar    
   6 C6             1.1848     2.0699     0.0019 C.ar    
   7 C7             1.2071     3.5767     0.0092 C.3     
   8 C8             1.9451     4.0217     1.2509 C.2     
   9 C9             1.4610     3.5938     2.6124 C.3     
  10 N10            2.9928     4.7701     1.1410 N.2     
  11 C11            3.4738     5.1839    -0.0383 C.2     
  12 O12            4.4660     5.8870    -0.0509 O.2     
  13 C13            2.8467     4.8194    -1.3224 C.2     
  14 C14            3.4213     5.3039    -2.5916 C.2     
  15 N15            4.4778     6.0504    -2.5801 N.2     
  16 C16            1.7418     4.0385    -1.3307 C.2     
  17 H17           -0.9553     1.9119     0.0170 H       
  18 H18           -0.9294    -0.5505     0.0083 H       
  19 H19            3.2203    -0.6119    -0.0320 H       
  20 H20            3.3192     1.8487    -0.0185 H       
  21 H21            0.1764     3.9211     0.0927 H       
  22 H22            1.9375     2.6531     2.8883 H       
  23 H23            1.7158     4.3590     3.3456 H       
  24 H24            0.3795     3.4598     2.5879 H       
  25 H25            2.9601     5.0354    -3.5305 H       
  26 H26            4.8557     6.3690    -3.4147 H       
  27 H27            1.2605     3.7558    -2.2553 H       
@<TRIPOS>BOND
   1    1    2 ar
   2    1    6 ar
   3    1   17 1
   4    2    3 ar
   5    2   18 1
   6    3    4 ar
   7    4    5 ar
   8    4   19 1
   9    5    6 ar
  10    5   20 1
  11    6    7 1
  12    7    8 1
  13    7   16 1
  14    7   21 1
  15    8    9 1
  16    8   10 2
  17    9   22 1
  18    9   23 1
  19    9   24 1
  20   10   11 1
  21   11   12 2
  22   11   13 1
  23   13   14 1
  24   13   16 2
  25   14   15 2
  26   14   25 1
  27   15   26 1
  28   16   27 1

#	End of record

