#	Name: ASD11820007
#	Creating user name:	WinNT
#	Creation time:	15. 06. 2019 21:29

#	Modifying user name:	WinNT
#	Modification time:	15. 06. 2019 21:29

#	Program:	/corina/corina34_cracker 3.40 0067  02.08.2006

@<TRIPOS>MOLECULE
ASD11820007
  33   36    0    0    0
SMALL
NO_CHARGES


@<TRIPOS>ATOM
   1 C1            -0.0166     1.3743     0.0096 C.ar    
   2 C2             0.0021    -0.0041     0.0020 C.ar    
   3 C3             1.2093    -0.6892    -0.0132 C.ar    
   4 C4             2.4052    -0.0061    -0.0205 C.ar    
   5 C5             1.1893     2.0815     0.0019 C.ar    
   6 C6             1.5340     3.5054     0.0062 C.2     
   7 C7             2.4109     1.3853    -0.0131 C.ar    
   8 N8             3.4151     2.3275    -0.0172 N.pl3   
   9 C9             2.8737     3.5847    -0.0061 C.2     
  10 C10            0.5675     4.6616     0.0212 C.3     
  11 C11            0.1634     4.9601     1.4420 C.2     
  12 C12            0.8843     5.8101     2.3929 C.ar    
  13 C13           -0.9283     4.5024     2.0745 C.2     
  14 N14           -0.9621     4.9854     3.3549 N.pl3   
  15 C15            0.1331     5.7887     3.5813 C.ar    
  16 C16            2.0642     6.5571     2.3267 C.ar    
  17 C17            0.5749     6.5150     4.6829 C.ar    
  18 C18            1.7392     7.2463     4.6027 C.ar    
  19 C19            2.4825     7.2688     3.4306 C.ar    
  20 F20           -1.1934     2.0378     0.0188 F       
  21 F21            2.7903     6.5810     1.1876 F       
  22 H22           -0.9275    -0.5539     0.0083 H       
  23 H23            1.2107    -1.7692    -0.0190 H       
  24 H24            3.3381    -0.5501    -0.0316 H       
  25 H25            4.3647     2.1298    -0.0265 H       
  26 H26            3.4405     4.5040    -0.0072 H       
  27 H27            1.0452     5.5400    -0.4128 H       
  28 H28           -0.3167     4.4036    -0.5615 H       
  29 H29           -1.6700     3.8499     1.6380 H       
  30 H30           -1.6559     4.7928     4.0049 H       
  31 H31            0.0049     6.5054     5.6002 H       
  32 H32            2.0775     7.8082     5.4608 H       
  33 H33            3.3936     7.8468     3.3834 H       
@<TRIPOS>BOND
   1    1    2 ar
   2    1    5 ar
   3    1   20 1
   4    2    3 ar
   5    2   22 1
   6    3    4 ar
   7    3   23 1
   8    4    7 ar
   9    4   24 1
  10    5    7 ar
  11    5    6 1
  12    6    9 2
  13    6   10 1
  14    7    8 1
  15    8    9 1
  16    8   25 1
  17    9   26 1
  18   10   11 1
  19   10   27 1
  20   10   28 1
  21   11   13 2
  22   11   12 1
  23   12   15 ar
  24   12   16 ar
  25   13   14 1
  26   13   29 1
  27   14   15 1
  28   14   30 1
  29   15   17 ar
  30   16   19 ar
  31   16   21 1
  32   17   18 ar
  33   17   31 1
  34   18   19 ar
  35   18   32 1
  36   19   33 1

#	End of record

