#	Name: ASD10220007
#	Creating user name:	WinNT
#	Creation time:	15. 06. 2019 21:26

#	Modifying user name:	WinNT
#	Modification time:	15. 06. 2019 21:26

#	Program:	/corina/corina34_cracker 3.40 0067  02.08.2006

@<TRIPOS>MOLECULE
ASD10220007
  24   25    0    0    0
SMALL
NO_CHARGES


@<TRIPOS>ATOM
   1 C1            -0.0171     1.4132     0.0098 C.2     
   2 C2             0.0021    -0.0041     0.0020 C.2     
   3 C3            -1.1392    -0.7236     0.0086 C.2     
   4 C4            -2.4559    -0.0910     0.0245 C.2     
   5 C5            -2.5611     1.2914     0.0333 C.2     
   6 C6            -1.3435     2.1174     0.0325 C.2     
   7 O7            -3.7037    -0.5974     0.0332 O.3     
   8 C8            -4.6223     0.3706     0.0473 C.2     
   9 C9            -3.9975     1.5883     0.0484 C.2     
  10 O10           -1.4090     3.3287     0.0406 O.2     
  11 O11            1.0195     2.0463     0.0033 O.2     
  12 Br12           1.6639    -0.9062    -0.0186 Br      
  13 C13           -4.6334     2.9168     0.0626 C.2     
  14 O14           -3.9464     3.9192     0.0623 O.2     
  15 O15           -5.9770     3.0207     0.0760 O.3     
  16 C16           -6.5344     4.3613     0.0896 C.3     
  17 C17           -8.0621     4.2783     0.1036 C.3     
  18 H18           -1.0774    -1.8018     0.0015 H       
  19 H19           -5.6913     0.2171     0.0564 H       
  20 H20           -6.1911     4.8886     0.9796 H       
  21 H21           -6.2079     4.8996    -0.8002 H       
  22 H22           -8.4806     5.2848     0.1138 H       
  23 H23           -8.4055     3.7511    -0.7865 H       
  24 H24           -8.3886     3.7401     0.9934 H       
@<TRIPOS>BOND
   1    1    2 1
   2    1   11 2
   3    1    6 1
   4    2    3 2
   5    2   12 1
   6    3    4 1
   7    3   18 1
   8    4    5 2
   9    4    7 1
  10    5    6 1
  11    5    9 1
  12    6   10 2
  13    7    8 1
  14    8    9 2
  15    8   19 1
  16    9   13 1
  17   13   14 2
  18   13   15 1
  19   15   16 1
  20   16   17 1
  21   16   20 1
  22   16   21 1
  23   17   22 1
  24   17   23 1
  25   17   24 1

#	End of record

