#	Name: ASD10420018
#	Creating user name:	WinNT
#	Creation time:	15. 06. 2019 21:27

#	Modifying user name:	WinNT
#	Modification time:	15. 06. 2019 21:27

#	Program:	/corina/corina34_cracker 3.40 0067  02.08.2006

@<TRIPOS>MOLECULE
ASD10420018
  64   68    0    0    0
SMALL
NO_CHARGES


@<TRIPOS>ATOM
   1 N1            -0.0790     1.1151     1.8398 N.pl3   
   2 C2            -0.1542    -0.2452     1.7075 C.2     
   3 C3            -1.3299    -0.5505     0.9982 C.2     
   4 C4            -1.9622     0.6572     0.7057 C.2     
   5 C5            -1.1795     1.6764     1.2244 C.2     
   6 C6             0.9755     1.6822     2.4950 C.2     
   7 C7             1.9559     0.9150     3.0198 C.2     
   8 C8             1.9034    -0.4813     2.8979 C.2     
   9 C9             0.8540    -1.0594     2.2468 C.2     
  10 C10           -1.4656     3.0618     1.1442 C.2     
  11 N11           -1.8643     3.7322     2.2433 N.am    
  12 C12           -1.9233     3.0666     3.5536 C.3     
  13 C13           -1.1634     3.9252     4.5704 C.3     
  14 N14           -1.6950     5.2944     4.5447 N.3     
  15 C15           -1.4791     5.9254     3.2358 C.3     
  16 C16           -2.2460     5.1505     2.1655 C.3     
  17 O17           -1.3514     3.6468     0.0820 O.2     
  18 C18           -3.2589     0.8243    -0.0439 C.3     
  19 C19           -4.3903     0.9835     0.9388 C.ar    
  20 C20           -4.8680     2.2441     1.2446 C.ar    
  21 C21           -4.9542    -0.1316     1.5301 C.ar    
  22 C22           -5.9920     0.0144     2.4315 C.ar    
  23 C23           -6.4656     1.2755     2.7420 C.ar    
  24 C24           -5.9054     2.3901     2.1464 C.ar    
  25 C25           -1.8073    -1.9033     0.6305 C.ar    
  26 C26           -1.9842    -2.8753     1.6153 C.ar    
  27 C27           -2.4297    -4.1336     1.2664 C.ar    
  28 C28           -2.7004    -4.4325    -0.0571 C.ar    
  29 C29           -2.5265    -3.4729    -1.0385 C.ar    
  30 C30           -2.0875    -2.2090    -0.7015 C.ar    
  31 C31           -4.2574     3.4592     0.5953 C.3     
  32 C32           -1.9776     7.3713     3.2776 C.3     
  33 C33           -4.4378    -1.5063     1.1917 C.3     
  34 H34            1.0269     2.7563     2.5948 H       
  35 H35            2.7840     1.3789     3.5351 H       
  36 H36            2.6880    -1.0939     3.3169 H       
  37 H37            0.8003    -2.1332     2.1451 H       
  38 H38           -2.9626     2.9636     3.8655 H       
  39 H39           -1.4591     2.0827     3.4857 H       
  40 H40           -1.2897     3.5046     5.5680 H       
  41 H41           -0.1043     3.9413     4.3134 H       
  42 H42           -2.6722     5.3077     4.7957 H       
  43 H43           -0.4155     5.9137     2.9974 H       
  44 H44           -1.9980     5.5444     1.1799 H       
  45 H45           -3.3174     5.2453     2.3418 H       
  46 H46           -3.2008     1.7093    -0.6775 H       
  47 H47           -3.4365    -0.0549    -0.6631 H       
  48 H48           -6.4330    -0.8568     2.8930 H       
  49 H49           -7.2767     1.3895     3.4459 H       
  50 H50           -6.2755     3.3753     2.3889 H       
  51 H51           -1.7726    -2.6434     2.6487 H       
  52 H52           -2.5671    -4.8870     2.0280 H       
  53 H53           -3.0486    -5.4190    -0.3252 H       
  54 H54           -2.7392    -3.7123    -2.0699 H       
  55 H55           -1.9525    -1.4607    -1.4684 H       
  56 H56           -4.8649     3.7588    -0.2586 H       
  57 H57           -4.2172     4.2753     1.3169 H       
  58 H58           -3.2482     3.2225     0.2580 H       
  59 H59           -1.4294     7.9227     4.0414 H       
  60 H60           -1.8172     7.8391     2.3063 H       
  61 H61           -3.0414     7.3821     3.5148 H       
  62 H62           -3.7071    -1.8142     1.9395 H       
  63 H63           -5.2672    -2.2135     1.1813 H       
  64 H64           -3.9658    -1.4855     0.2094 H       
@<TRIPOS>BOND
   1    1    2 1
   2    1    6 1
   3    1    5 1
   4    2    3 2
   5    2    9 1
   6    3    4 1
   7    3   25 1
   8    4    5 2
   9    4   18 1
  10    5   10 1
  11    6    7 2
  12    6   34 1
  13    7    8 1
  14    7   35 1
  15    8    9 2
  16    8   36 1
  17    9   37 1
  18   10   11 am
  19   10   17 2
  20   11   12 1
  21   11   16 1
  22   12   13 1
  23   12   38 1
  24   12   39 1
  25   13   14 1
  26   13   40 1
  27   13   41 1
  28   14   15 1
  29   14   42 1
  30   15   16 1
  31   15   32 1
  32   15   43 1
  33   16   44 1
  34   16   45 1
  35   18   19 1
  36   18   46 1
  37   18   47 1
  38   19   20 ar
  39   19   21 ar
  40   20   31 1
  41   20   24 ar
  42   21   22 ar
  43   21   33 1
  44   22   23 ar
  45   22   48 1
  46   23   24 ar
  47   23   49 1
  48   24   50 1
  49   25   26 ar
  50   25   30 ar
  51   26   27 ar
  52   26   51 1
  53   27   28 ar
  54   27   52 1
  55   28   29 ar
  56   28   53 1
  57   29   30 ar
  58   29   54 1
  59   30   55 1
  60   31   56 1
  61   31   57 1
  62   31   58 1
  63   32   59 1
  64   32   60 1
  65   32   61 1
  66   33   62 1
  67   33   63 1
  68   33   64 1

#	End of record

