#	Name: ASD10160487
#	Creating user name:	WinNT
#	Creation time:	15. 06. 2019 21:26

#	Modifying user name:	WinNT
#	Modification time:	15. 06. 2019 21:26

#	Program:	/corina/corina34_cracker 3.40 0067  02.08.2006

@<TRIPOS>MOLECULE
ASD10160487
  27   27    0    0    0
SMALL
NO_CHARGES


@<TRIPOS>ATOM
   1 C1            -0.0188     1.5336     0.0105 C.3     
   2 C2             0.0021    -0.0041     0.0020 C.3     
   3 C3             1.3941     0.0896     0.6488 C.3     
   4 C4             1.5179     1.4762    -0.0045 C.3     
   5 C5            -0.6126     2.1361    -1.2367 C.2     
   6 O6            -1.0154     1.4187    -2.1215 O.2     
   7 O7            -0.6940     3.4698    -1.3646 O.3     
   8 F8             1.3609     0.1297     2.0468 F       
   9 F9             2.3069    -0.8473     0.1525 F       
  10 C10           -1.2772     3.9799    -2.5925 C.3     
  11 C11           -2.7119     3.4657    -2.7277 C.3     
  12 C12           -1.2850     5.5095    -2.5564 C.3     
  13 C13           -0.4494     3.5022    -3.7872 C.3     
  14 H14           -0.4309     1.9596     0.9252 H       
  15 H15           -0.7506    -0.4545     0.6490 H       
  16 H16            0.0139    -0.4351    -0.9991 H       
  17 H17            1.9441     1.4499    -1.0074 H       
  18 H18            1.9889     2.2208     0.6373 H       
  19 H19           -3.3016     3.8060    -1.8766 H       
  20 H20           -3.1497     3.8486    -3.6495 H       
  21 H21           -2.7063     2.3760    -2.7534 H       
  22 H22           -0.2630     5.8759    -2.4601 H       
  23 H23           -1.7229     5.8924    -3.4783 H       
  24 H24           -1.8748     5.8499    -1.7053 H       
  25 H25           -0.4439     2.4125    -3.8129 H       
  26 H26           -0.8873     3.8851    -4.7090 H       
  27 H27            0.5726     3.8686    -3.6909 H       
@<TRIPOS>BOND
   1    1    2 1
   2    1    4 1
   3    1    5 1
   4    1   14 1
   5    2    3 1
   6    2   15 1
   7    2   16 1
   8    3    4 1
   9    3    8 1
  10    3    9 1
  11    4   17 1
  12    4   18 1
  13    5    6 2
  14    5    7 1
  15    7   10 1
  16   10   11 1
  17   10   13 1
  18   10   12 1
  19   11   19 1
  20   11   20 1
  21   11   21 1
  22   12   22 1
  23   12   23 1
  24   12   24 1
  25   13   25 1
  26   13   26 1
  27   13   27 1

#	End of record

