#	Name: ASD14640009
#	Creating user name:	WinNT
#	Creation time:	15. 06. 2019 21:31

#	Modifying user name:	WinNT
#	Modification time:	15. 06. 2019 21:31

#	Program:	/corina/corina34_cracker 3.40 0067  02.08.2006

@<TRIPOS>MOLECULE
ASD14640009
  34   35    0    0    0
SMALL
NO_CHARGES


@<TRIPOS>ATOM
   1 C1            -0.0178     1.4642     0.0101 C.3     
   2 N2             0.0021    -0.0041     0.0020 N.3     
   3 C3             0.6689    -0.5327     1.1988 C.3     
   4 C4             2.1246    -0.0613     1.2235 C.3     
   5 C5             2.1603     1.4695     1.2306 C.3     
   6 C6             1.4174     1.9953    -0.0008 C.3     
   7 C7             2.8129    -0.5941     2.4818 C.3     
   8 C8             2.8823    -2.0981     2.4177 C.ar    
   9 C9             1.8500    -2.8592     2.9331 C.ar    
  10 C10            3.9755    -2.7145     1.8384 C.ar    
  11 C11            4.0425    -4.0945     1.7769 C.ar    
  12 C12            3.0150    -4.8611     2.2957 C.ar    
  13 C13            1.9132    -4.2427     2.8740 C.ar    
  14 O14            0.8992    -4.9931     3.3808 O.3     
  15 C15           -0.2016    -4.2897     3.9602 C.3     
  16 F16            3.0801    -6.2092     2.2358 F       
  17 H17           -0.5453     1.8252    -0.8729 H       
  18 H18           -0.5283     1.8156     0.9068 H       
  19 H19           -0.9309    -0.3779    -0.0869 H       
  20 H20            0.1552    -0.1719     2.0900 H       
  21 H21            0.6402    -1.6221     1.1793 H       
  22 H22            2.6426    -0.4332     0.3395 H       
  23 H23            1.6765     1.8409     2.1340 H       
  24 H24            3.1954     1.8099     1.2044 H       
  25 H25            1.9242     1.6557    -0.9040 H       
  26 H26            1.4024     3.0849     0.0210 H       
  27 H27            3.8217    -0.1862     2.5445 H       
  28 H28            2.2442    -0.2938     3.3618 H       
  29 H29            0.9947    -2.3762     3.3821 H       
  30 H30            4.7787    -2.1172     1.4328 H       
  31 H31            4.8974    -4.5737     1.3232 H       
  32 H32           -0.9384    -5.0053     4.3251 H       
  33 H33            0.1538    -3.6789     4.7900 H       
  34 H34           -0.6598    -3.6485     3.2072 H       
@<TRIPOS>BOND
   1    1    2 1
   2    1    6 1
   3    1   17 1
   4    1   18 1
   5    2    3 1
   6    2   19 1
   7    3    4 1
   8    3   20 1
   9    3   21 1
  10    4    5 1
  11    4    7 1
  12    4   22 1
  13    5    6 1
  14    5   23 1
  15    5   24 1
  16    6   25 1
  17    6   26 1
  18    7    8 1
  19    7   27 1
  20    7   28 1
  21    8   10 ar
  22    8    9 ar
  23    9   13 ar
  24    9   29 1
  25   10   11 ar
  26   10   30 1
  27   11   12 ar
  28   11   31 1
  29   12   13 ar
  30   12   16 1
  31   13   14 1
  32   14   15 1
  33   15   32 1
  34   15   33 1
  35   15   34 1

#	End of record

