#	Name: ASD14550001
#	Creating user name:	WinNT
#	Creation time:	15. 06. 2019 21:31

#	Modifying user name:	WinNT
#	Modification time:	15. 06. 2019 21:31

#	Program:	/corina/corina34_cracker 3.40 0067  02.08.2006

@<TRIPOS>MOLECULE
ASD14550001
  65   70    0    0    0
SMALL
NO_CHARGES


@<TRIPOS>ATOM
   1 Br1            0.6517     0.7068     0.9765 Br      
   2 O2             3.9931    -3.7108    -1.3684 O.3     
   3 O3             4.7033    -1.5806    -1.6679 O.3     
   4 O4            -4.7276    -0.8273     5.2064 O.2     
   5 N5            -0.7558    -3.4773     1.1723 N.pl3   
   6 N6            -0.6256    -1.4588     2.0199 N.2     
   7 N7            -5.8155    -2.7595     5.0781 N.am    
   8 N8           -10.2267    -0.8314     9.7866 N.1     
   9 C9             0.6836    -5.4528     1.0893 C.3     
  10 C10           -0.4277    -4.6699     0.3872 C.3     
  11 C11            0.1879    -5.9269     2.4569 C.3     
  12 C12            1.0696    -6.6645     0.2385 C.3     
  13 C13            1.2993    -6.7098     3.1589 C.3     
  14 C14            2.1809    -7.4474     0.9406 C.3     
  15 C15            1.6852    -7.9215     2.3081 C.3     
  16 C16            0.0462    -4.2493    -1.0054 C.3     
  17 C17           -1.8389    -3.3238     2.0118 C.ar    
  18 C18           -0.0404    -2.3100     1.2132 C.2     
  19 C19           -1.7413    -2.0242     2.5445 C.ar    
  20 C20            1.2046    -2.0497     0.4611 C.ar    
  21 C21           -2.8948    -4.1509     2.3779 C.ar    
  22 C22           -2.7129    -1.5732     3.4386 C.ar    
  23 C23           -3.8417    -3.7071     3.2546 C.ar    
  24 C24           -3.7640    -2.4144     3.7904 C.ar    
  25 C25            1.9412    -3.1136    -0.0629 C.ar    
  26 C26            1.6470    -0.7383     0.2716 C.ar    
  27 C27            3.1053    -2.8663    -0.7656 C.ar    
  28 C28            2.8101    -0.4977    -0.4303 C.ar    
  29 C29            3.5429    -1.5549    -0.9504 C.ar    
  30 C30           -4.7965    -1.9463     4.7361 C.2     
  31 C31            4.7546    -2.8870    -2.2707 C.3     
  32 C32           -6.7290    -2.3603     6.0533 C.ar    
  33 C33           -8.0601    -2.7542     5.9601 C.ar    
  34 C34           -6.3059    -1.5739     7.1202 C.ar    
  35 C35           -8.9647    -2.3620     6.9211 C.ar    
  36 C36           -7.2050    -1.1784     8.0850 C.ar    
  37 C37           -8.5444    -1.5671     7.9913 C.ar    
  38 C38           -9.4825    -1.1568     8.9924 C.1     
  39 H39            1.5537    -4.8095     1.2212 H       
  40 H40           -1.3130    -5.2991     0.2951 H       
  41 H41            0.1996    -7.3077     0.1066 H       
  42 H42            1.4228    -6.3267    -0.7358 H       
  43 H43           -0.0871    -5.0637     3.0629 H       
  44 H44           -0.6821    -6.5702     2.3249 H       
  45 H45            2.1693    -6.0666     3.2908 H       
  46 H46            2.4559    -8.3106     0.3345 H       
  47 H47            3.0510    -6.8041     1.0725 H       
  48 H48            0.9461    -7.0476     4.1332 H       
  49 H49            2.4769    -8.4793     2.8083 H       
  50 H50            0.8152    -8.5648     2.1762 H       
  51 H51            0.3750    -3.2104    -0.9789 H       
  52 H52            0.8758    -4.8852    -1.3143 H       
  53 H53           -0.7747    -4.3526    -1.7151 H       
  54 H54           -2.9660    -5.1471     1.9670 H       
  55 H55           -2.6494    -0.5787     3.8549 H       
  56 H56           -4.6595    -4.3549     3.5338 H       
  57 H57            1.6020    -4.1288     0.0810 H       
  58 H58            3.1509     0.5167    -0.5760 H       
  59 H59            5.7842    -3.2392    -2.3343 H       
  60 H60            4.2924    -2.8716    -3.2578 H       
  61 H61           -5.9134    -3.6224     4.6460 H       
  62 H62           -8.3842    -3.3681     5.1327 H       
  63 H63           -5.2710    -1.2736     7.1918 H       
  64 H64           -9.9979    -2.6678     6.8479 H       
  65 H65           -6.8757    -0.5685     8.9133 H       
@<TRIPOS>BOND
   1    1   26 1
   2    2   27 1
   3    2   31 1
   4    3   29 1
   5    3   31 1
   6    4   30 2
   7    5   10 1
   8    5   17 1
   9    5   18 1
  10    6   18 2
  11    6   19 1
  12    7   30 am
  13    7   32 1
  14    7   61 1
  15    8   38 3
  16    9   10 1
  17    9   11 1
  18    9   12 1
  19    9   39 1
  20   10   16 1
  21   10   40 1
  22   11   13 1
  23   11   43 1
  24   11   44 1
  25   12   14 1
  26   12   41 1
  27   12   42 1
  28   13   15 1
  29   13   45 1
  30   13   48 1
  31   14   15 1
  32   14   46 1
  33   14   47 1
  34   15   49 1
  35   15   50 1
  36   16   51 1
  37   16   52 1
  38   16   53 1
  39   17   19 ar
  40   17   21 ar
  41   18   20 1
  42   19   22 ar
  43   20   25 ar
  44   20   26 ar
  45   21   23 ar
  46   21   54 1
  47   22   24 ar
  48   22   55 1
  49   23   24 ar
  50   23   56 1
  51   24   30 1
  52   25   27 ar
  53   25   57 1
  54   26   28 ar
  55   27   29 ar
  56   28   29 ar
  57   28   58 1
  58   31   59 1
  59   31   60 1
  60   32   33 ar
  61   32   34 ar
  62   33   35 ar
  63   33   62 1
  64   34   36 ar
  65   34   63 1
  66   35   37 ar
  67   35   64 1
  68   36   37 ar
  69   36   65 1
  70   37   38 1

#	End of record

