#	Name: ASD11740024
#	Creating user name:	WinNT
#	Creation time:	15. 06. 2019 21:29

#	Modifying user name:	WinNT
#	Modification time:	15. 06. 2019 21:29

#	Program:	/corina/corina34_cracker 3.40 0067  02.08.2006

@<TRIPOS>MOLECULE
ASD11740024
  50   51    0    0    0
SMALL
NO_CHARGES


@<TRIPOS>ATOM
   1 C1             0.2248     1.8286    -0.5680 C.3     
   2 C2             1.3179     4.1517     1.8096 C.ar    
   3 C3             0.7695     4.6129     2.9885 C.ar    
   4 C4            -0.1546     5.6459     2.9758 C.ar    
   5 C5            -0.5358     6.2244     1.7852 C.ar    
   6 C6             0.0108     5.7690     0.5824 C.ar    
   7 C7             0.9460     4.7225     0.5986 C.ar    
   8 N8             1.4970     4.2603    -0.5895 N.am    
   9 S9             1.8293     2.6487    -0.7763 S.o2    
  10 O10            2.6917     2.3405     0.3102 O.2     
  11 O11            2.2759     2.5366    -2.1207 O.2     
  12 C12           -0.3930     6.3831    -0.6953 C.2     
  13 N13           -1.2920     7.3872    -0.7060 N.am    
  14 O14            0.0851     5.9838    -1.7399 O.2     
  15 C15           -1.5907     8.0470    -1.9048 C.ar    
  16 C16           -2.8040     8.7169    -2.0501 C.ar    
  17 C17           -3.0939     9.3676    -3.2378 C.ar    
  18 C18           -2.1806     9.3517    -4.2762 C.ar    
  19 C19           -0.9768     8.6874    -4.1328 C.ar    
  20 C20           -0.6773     8.0403    -2.9485 C.ar    
  21 O21           -3.7012     8.7313    -1.0284 O.3     
  22 C22           -4.9237     9.4378    -1.2485 C.3     
  23 C23           -5.7995     9.3437     0.0025 C.3     
  24 C24            0.4014     0.3164    -0.7202 C.3     
  25 C25            1.2768    -0.2119     0.4180 C.3     
  26 C26           -0.9677    -0.3647    -0.6689 C.3     
  27 H27           -0.1706     2.0503     0.4232 H       
  28 H28           -0.4698     2.1913    -1.3257 H       
  29 H29            2.0404     3.3491     1.8284 H       
  30 H30            1.0618     4.1660     3.9272 H       
  31 H31           -0.5783     5.9989     3.9044 H       
  32 H32           -1.2565     7.0287     1.7813 H       
  33 H33            1.6872     4.8814    -1.3099 H       
  34 H34           -1.7322     7.6528     0.1165 H       
  35 H35           -4.0336     9.8873    -3.3533 H       
  36 H36           -2.4086     9.8594    -5.2017 H       
  37 H37           -0.2669     8.6774    -4.9466 H       
  38 H38            0.2641     7.5223    -2.8391 H       
  39 H39           -4.7054    10.4842    -1.4614 H       
  40 H40           -5.4507     8.9971    -2.0949 H       
  41 H41           -6.0178     8.2972     0.2153 H       
  42 H42           -5.2726     9.7843     0.8488 H       
  43 H43           -6.7320     9.8825    -0.1654 H       
  44 H44            0.8789     0.1008    -1.6760 H       
  45 H45            2.2522     0.2733     0.3814 H       
  46 H46            0.7993     0.0038     1.3738 H       
  47 H47            1.4026    -1.2892     0.3096 H       
  48 H48           -1.5914     0.0117    -1.4797 H       
  49 H49           -0.8419    -1.4419    -0.7773 H       
  50 H50           -1.4452    -0.1490     0.2869 H       
@<TRIPOS>BOND
   1    1   24 1
   2    1    9 1
   3    1   27 1
   4    1   28 1
   5    2    3 ar
   6    2    7 ar
   7    2   29 1
   8    3    4 ar
   9    3   30 1
  10    4    5 ar
  11    4   31 1
  12    5    6 ar
  13    5   32 1
  14    6    7 ar
  15    6   12 1
  16    7    8 1
  17    8    9 am
  18    8   33 1
  19    9   10 2
  20    9   11 2
  21   12   13 am
  22   12   14 2
  23   13   15 1
  24   13   34 1
  25   15   16 ar
  26   15   20 ar
  27   16   17 ar
  28   16   21 1
  29   17   18 ar
  30   17   35 1
  31   18   19 ar
  32   18   36 1
  33   19   20 ar
  34   19   37 1
  35   20   38 1
  36   21   22 1
  37   22   23 1
  38   22   39 1
  39   22   40 1
  40   23   41 1
  41   23   42 1
  42   23   43 1
  43   24   25 1
  44   24   26 1
  45   24   44 1
  46   25   45 1
  47   25   46 1
  48   25   47 1
  49   26   48 1
  50   26   49 1
  51   26   50 1

#	End of record

