#	Name: ASD13010054
#	Creating user name:	WinNT
#	Creation time:	15. 06. 2019 21:30

#	Modifying user name:	WinNT
#	Modification time:	15. 06. 2019 21:30

#	Program:	/corina/corina34_cracker 3.40 0067  02.08.2006

@<TRIPOS>MOLECULE
ASD13010054
  50   53    0    0    0
SMALL
NO_CHARGES


@<TRIPOS>ATOM
   1 C1            -0.0061     1.6202    -0.0491 C.ar    
   2 C2            -0.0881     0.2439    -0.0533 C.ar    
   3 C3             1.0653    -0.5281    -0.0492 C.ar    
   4 C4             2.3076     0.0666    -0.0403 C.ar    
   5 C5             2.4132     1.4537    -0.0359 C.ar    
   6 C6             1.2476     2.2378    -0.0406 C.ar    
   7 N7             3.4814     2.3248    -0.0273 N.am    
   8 N8             3.0036     3.6390    -0.0265 N.2     
   9 C9             1.6920     3.6388    -0.0343 C.2     
  10 C10            0.8203     4.8295    -0.0362 C.2     
  11 C11           -0.0817     4.9367     0.9116 C.2     
  12 C12           -1.0399     6.0861     1.0271 C.3     
  13 C13           -0.5489     7.2675     0.1878 C.3     
  14 C14           -0.2091     6.7577    -1.2182 C.3     
  15 C15            1.0207     5.8502    -1.1182 C.3     
  16 C16           -1.6325     8.3111     0.0997 C.2     
  17 O17           -2.0765     8.6316    -0.9773 O.2     
  18 O18           -2.1044     8.8846     1.2178 O.3     
  19 C19            4.7807     1.9666    -0.0200 C.2     
  20 C20            5.8313     2.9980    -0.1269 C.ar    
  21 O21            5.0874     0.7944     0.0746 O.2     
  22 C22            6.3783     3.3163    -1.3723 C.ar    
  23 C23            7.3593     4.2807    -1.4650 C.ar    
  24 C24            7.8032     4.9337    -0.3278 C.ar    
  25 C25            7.2672     4.6249     0.9089 C.ar    
  26 C26            6.2796     3.6650     1.0167 C.ar    
  27 Cl27           5.6024     3.2832     2.5688 Cl      
  28 C28            5.8975     2.6068    -2.6119 C.3     
  29 F29            6.5892     3.0941    -3.7260 F       
  30 F30            6.1300     1.2333    -2.4827 F       
  31 F31            4.5272     2.8343    -2.7775 F       
  32 F32           -1.1314     2.3677    -0.0588 F       
  33 C33            0.7008     7.8713     0.8316 C.3     
  34 H34           -1.0555    -0.2363    -0.0596 H       
  35 H35            0.9880    -1.6053    -0.0526 H       
  36 H36            3.1989    -0.5434    -0.0364 H       
  37 H37           -0.1378     4.1517     1.6513 H       
  38 H38           -2.0224     5.7745     0.6724 H       
  39 H39           -1.1147     6.3908     2.0709 H       
  40 H40           -1.0526     6.1945    -1.6174 H       
  41 H41            0.0125     7.6024    -1.8705 H       
  42 H42            1.9004     6.4517    -0.8890 H       
  43 H43            1.1710     5.3422    -2.0708 H       
  44 H44           -2.7992     9.5486     1.1110 H       
  45 H45            7.7830     4.5271    -2.4273 H       
  46 H46            8.5721     5.6880    -0.4070 H       
  47 H47            7.6182     5.1384     1.7918 H       
  48 H48            1.4838     7.1149     0.8846 H       
  49 H49            1.0483     8.7125     0.2317 H       
  50 H50            0.4607     8.2168     1.8371 H       
@<TRIPOS>BOND
   1    1    2 ar
   2    1    6 ar
   3    1   32 1
   4    2    3 ar
   5    2   34 1
   6    3    4 ar
   7    3   35 1
   8    4    5 ar
   9    4   36 1
  10    5    7 1
  11    5    6 ar
  12    6    9 1
  13    7    8 1
  14    7   19 am
  15    8    9 2
  16    9   10 1
  17   10   11 2
  18   10   15 1
  19   11   12 1
  20   11   37 1
  21   12   13 1
  22   12   38 1
  23   12   39 1
  24   13   14 1
  25   13   16 1
  26   13   33 1
  27   14   15 1
  28   14   40 1
  29   14   41 1
  30   15   42 1
  31   15   43 1
  32   16   17 2
  33   16   18 1
  34   18   44 1
  35   19   20 1
  36   19   21 2
  37   20   22 ar
  38   20   26 ar
  39   22   23 ar
  40   22   28 1
  41   23   24 ar
  42   23   45 1
  43   24   25 ar
  44   24   46 1
  45   25   26 ar
  46   25   47 1
  47   26   27 1
  48   28   29 1
  49   28   30 1
  50   28   31 1
  51   33   48 1
  52   33   49 1
  53   33   50 1

#	End of record

