#	Name: ASD10420209
#	Creating user name:	WinNT
#	Creation time:	15. 06. 2019 21:27

#	Modifying user name:	WinNT
#	Modification time:	15. 06. 2019 21:27

#	Program:	/corina/corina34_cracker 3.40 0067  02.08.2006

@<TRIPOS>MOLECULE
ASD10420209
  43   44    0    0    0
SMALL
NO_CHARGES


@<TRIPOS>ATOM
   1 C1            -0.0144     1.2083     0.0087 C.2     
   2 O2             0.0021    -0.0041     0.0020 O.2     
   3 C3             1.2504     1.9617     0.0007 C.ar    
   4 C4             1.2328     3.3598     0.0083 C.ar    
   5 C5             2.4245     4.0701     0.0007 C.ar    
   6 C6             3.6375     3.3975    -0.0150 C.ar    
   7 C7             3.6643     2.0001    -0.0232 C.ar    
   8 C8             2.4695     1.2813    -0.0089 C.ar    
   9 N9             2.4027     5.4674     0.0084 N.pl3   
  10 C10            1.1228     6.1800     0.0245 C.3     
  11 C11            3.6599     6.2196     0.0004 C.3     
  12 C12            4.9544     1.2869    -0.0409 C.2     
  13 C13            4.9793    -0.0554    -0.0488 C.2     
  14 C14            6.2687    -0.7683    -0.0665 C.ar    
  15 C15            6.2972    -2.1657    -0.0747 C.ar    
  16 C16            7.5055    -2.8280    -0.0917 C.ar    
  17 C17            8.6939    -2.1090    -0.1002 C.ar    
  18 C18            8.6707    -0.7202    -0.0916 C.ar    
  19 C19            7.4673    -0.0491    -0.0809 C.ar    
  20 C20            7.5375    -4.3346    -0.1006 C.3     
  21 C21            9.9637     0.0538    -0.1004 C.3     
  22 O22            9.8828    -2.7663    -0.1166 O.3     
  23 H23           -0.9569     1.7355     0.0160 H       
  24 H24            0.2905     3.8873     0.0198 H       
  25 H25            4.5627     3.9545    -0.0212 H       
  26 H26            2.4870     0.2015    -0.0103 H       
  27 H27            0.8153     6.3512     1.0561 H       
  28 H28            1.2334     7.1370    -0.4853 H       
  29 H29            0.3676     5.5819    -0.4853 H       
  30 H30            3.9618     6.4116    -1.0292 H       
  31 H31            3.5197     7.1671     0.5207 H       
  32 H32            4.4335     5.6397     0.5038 H       
  33 H33            5.8795     1.8442    -0.0475 H       
  34 H34            4.0542    -0.6127    -0.0422 H       
  35 H35            5.3736    -2.7256    -0.0674 H       
  36 H36            7.4501     1.0307    -0.0791 H       
  37 H37            7.5340    -4.6920    -1.1304 H       
  38 H38            8.4407    -4.6817     0.4013 H       
  39 H39            6.6612    -4.7198     0.4207 H       
  40 H40           10.2647     0.2467    -1.1301 H       
  41 H41            9.8237     1.0010     0.4206 H       
  42 H42           10.7378    -0.5262     0.4019 H       
  43 H43           10.2176    -2.9515    -1.0046 H       
@<TRIPOS>BOND
   1    1    2 2
   2    1    3 1
   3    1   23 1
   4    3    4 ar
   5    3    8 ar
   6    4    5 ar
   7    4   24 1
   8    5    6 ar
   9    5    9 1
  10    6    7 ar
  11    6   25 1
  12    7    8 ar
  13    7   12 1
  14    8   26 1
  15    9   10 1
  16    9   11 1
  17   10   27 1
  18   10   28 1
  19   10   29 1
  20   11   30 1
  21   11   31 1
  22   11   32 1
  23   12   13 2
  24   12   33 1
  25   13   14 1
  26   13   34 1
  27   14   15 ar
  28   14   19 ar
  29   15   16 ar
  30   15   35 1
  31   16   17 ar
  32   16   20 1
  33   17   18 ar
  34   17   22 1
  35   18   19 ar
  36   18   21 1
  37   19   36 1
  38   20   37 1
  39   20   38 1
  40   20   39 1
  41   21   40 1
  42   21   41 1
  43   21   42 1
  44   22   43 1

#	End of record

