#	Name: ASD10160299
#	Creating user name:	WinNT
#	Creation time:	15. 06. 2019 21:25

#	Modifying user name:	WinNT
#	Modification time:	15. 06. 2019 21:25

#	Program:	/corina/corina34_cracker 3.40 0067  02.08.2006

@<TRIPOS>MOLECULE
ASD10160299
  25   25    0    0    0
SMALL
NO_CHARGES


@<TRIPOS>ATOM
   1 C1            -0.0167     1.3812     0.0096 C.ar    
   2 C2             0.0021    -0.0041     0.0020 C.ar    
   3 C3             1.2262    -0.6663    -0.0132 C.ar    
   4 C4             2.3855     0.0912    -0.0202 C.ar    
   5 C5             2.2884     1.4774    -0.0118 C.ar    
   6 N6             1.1077     2.0719     0.0026 N.ar    
   7 O7            -1.1613    -0.7082     0.0098 O.3     
   8 O8             3.4188     2.2296    -0.0181 O.3     
   9 C9             3.2535     3.6490    -0.0089 C.3     
  10 C10            4.6273     4.3225    -0.0178 C.3     
  11 C11            4.4517     5.8379    -0.1338 C.3     
  12 C12            5.3655     3.9925     1.2810 C.3     
  13 Cl13           3.9402    -0.6810    -0.0386 Cl      
  14 H14           -0.9628     1.9020     0.0169 H       
  15 H15            1.2709    -1.7453    -0.0191 H       
  16 H16           -1.5066    -0.9072    -0.8713 H       
  17 H17            2.6930     3.9553    -0.8922 H       
  18 H18            2.7093     3.9457     0.8877 H       
  19 H19            5.2053     3.9577    -0.8670 H       
  20 H20            3.8737     6.2027     0.7153 H       
  21 H21            5.4304     6.3177    -0.1402 H       
  22 H22            3.9258     6.0730    -1.0591 H       
  23 H23            5.4906     2.9129     1.3636 H       
  24 H24            6.3442     4.4723     1.2747 H       
  25 H25            4.7876     4.3573     2.1302 H       
@<TRIPOS>BOND
   1    1    2 ar
   2    1    6 ar
   3    1   14 1
   4    2    3 ar
   5    2    7 1
   6    3    4 ar
   7    3   15 1
   8    4    5 ar
   9    4   13 1
  10    5    6 ar
  11    5    8 1
  12    7   16 1
  13    8    9 1
  14    9   10 1
  15    9   17 1
  16    9   18 1
  17   10   11 1
  18   10   12 1
  19   10   19 1
  20   11   20 1
  21   11   21 1
  22   11   22 1
  23   12   23 1
  24   12   24 1
  25   12   25 1

#	End of record

