#	Name: ASD11940008
#	Creating user name:	WinNT
#	Creation time:	15. 06. 2019 21:29

#	Modifying user name:	WinNT
#	Modification time:	15. 06. 2019 21:29

#	Program:	/corina/corina34_cracker 3.40 0067  02.08.2006

@<TRIPOS>MOLECULE
ASD11940008
  22   23    0    0    0
SMALL
NO_CHARGES


@<TRIPOS>ATOM
   1 C1            -0.0168     1.3896     0.0097 C.ar    
   2 C2             0.0021    -0.0041     0.0020 C.ar    
   3 C3             1.2963    -0.7316    -0.0143 C.2     
   4 C4             2.2364    -0.7266     0.9743 C.2     
   5 N5             3.2575    -1.5092     0.5703 N.pl3   
   6 N6             2.9468    -2.0133    -0.6984 N.2     
   7 C7             1.7738    -1.5574    -1.0505 C.2     
   8 C8             2.1498     0.0191     2.2811 C.3     
   9 C9            -1.1977    -0.7118     0.0102 C.ar    
  10 C10           -2.3980    -0.0307     0.0258 C.ar    
  11 C11           -2.4117     1.3526     0.0329 C.ar    
  12 C12           -1.2242     2.0610     0.0306 C.ar    
  13 Cl13           1.4735     2.2799     0.0002 Cl      
  14 H14            4.0676    -1.6911     1.0718 H       
  15 H15            1.2630    -1.7704    -1.9780 H       
  16 H16            1.6764    -0.6151     3.0306 H       
  17 H17            3.1526     0.2877     2.6133 H       
  18 H18            1.5577     0.9240     2.1444 H       
  19 H19           -1.1887    -1.7917     0.0039 H       
  20 H20           -3.3285    -0.5788     0.0321 H       
  21 H21           -3.3535     1.8812     0.0447 H       
  22 H22           -1.2405     3.1409     0.0362 H       
@<TRIPOS>BOND
   1    1    2 ar
   2    1   13 1
   3    1   12 ar
   4    2    3 1
   5    2    9 ar
   6    3    4 2
   7    3    7 1
   8    4    5 1
   9    4    8 1
  10    5    6 1
  11    5   14 1
  12    6    7 2
  13    7   15 1
  14    8   16 1
  15    8   17 1
  16    8   18 1
  17    9   10 ar
  18    9   19 1
  19   10   11 ar
  20   10   20 1
  21   11   12 ar
  22   11   21 1
  23   12   22 1

#	End of record

