#	Name: ASD14840001
#	Creating user name:	WinNT
#	Creation time:	15. 06. 2019 21:31

#	Modifying user name:	WinNT
#	Modification time:	15. 06. 2019 21:31

#	Program:	/corina/corina34_cracker 3.40 0067  02.08.2006

@<TRIPOS>MOLECULE
ASD14840001
 136  141    0    0    0
SMALL
NO_CHARGES


@<TRIPOS>ATOM
   1 C1             9.8661    -2.8796    -2.6075 C.ar    
   2 C2             9.7011    -3.9253    -1.7185 C.ar    
   3 C3             8.5092    -4.6248    -1.6878 C.ar    
   4 C4             7.4822    -4.2783    -2.5457 C.ar    
   5 C5             7.6468    -3.2321    -3.4340 C.ar    
   6 C6             8.8392    -2.5335    -3.4657 C.ar    
   7 C7             6.5275    -2.8550    -4.3700 C.3     
   8 C8             5.5643    -1.9128    -3.6567 C.3     
   9 C9             6.2948    -0.6517    -3.2711 C.2     
  10 N10            4.3775    -1.6574    -4.4731 N.am    
  11 C11            4.4864    -1.4486    -5.8035 C.2     
  12 C12            3.5599    -2.1393    -6.7637 C.3     
  13 O13            5.3510    -0.7459    -6.2640 O.2     
  14 O14            6.8919     0.0105    -4.0944 O.2     
  15 N15            6.2740    -0.3351    -1.9367 N.am    
  16 C16            2.5335    -1.3808    -8.8413 C.3     
  17 C17            3.8872    -1.7858    -8.2204 C.3     
  18 N18            2.1411    -1.8768    -6.4961 N.am    
  19 C19            1.6030    -1.1436    -7.6473 C.3     
  20 C20            1.4753    -2.3160    -5.4185 C.2     
  21 C21            0.2728    -1.6937    -4.7757 C.3     
  22 O22            1.9348    -3.3260    -4.8793 O.2     
  23 C23           -0.2965    -0.5240    -5.5674 C.3     
  24 N24            0.6300    -1.2309    -3.4095 N.am    
  25 C25            0.7284     0.6112    -5.6082 C.3     
  26 C26           -0.6111    -0.9787    -6.9940 C.3     
  27 C27           -2.1270    -1.0017    -7.1994 C.3     
  28 H28           -0.5106    -2.4629    -4.6759 H       
  29 C29           -0.3800    -1.1155    -2.5150 C.2     
  30 O30           -1.4808    -1.5333    -2.8212 O.2     
  31 C31           -0.2242    -0.4770    -1.1609 C.3     
  32 N32            0.0988    -1.5117    -0.1583 N.am    
  33 C33            0.8782     0.5785    -1.2128 C.3     
  34 C34            0.3114     1.8713    -1.7403 C.ar    
  35 C35           -0.1520    -1.2727     1.1423 C.2     
  36 O36            0.0596    -2.2100     1.8953 O.2     
  37 C37           -0.2967     3.2679    -3.5876 C.ar    
  38 C38            0.2232     2.0820    -3.1037 C.ar    
  39 C39           -0.1255     2.8443    -0.8609 C.ar    
  40 C40           -0.6454     4.0302    -1.3448 C.ar    
  41 C41           -0.7279     4.2434    -2.7082 C.ar    
  42 C42           -0.6581    -0.0364     1.7800 C.3     
  43 C43           -2.0951    -0.2270     2.2861 C.3     
  44 N44            0.1704     0.3016     2.9422 N.am    
  45 C45           -0.5474    -0.0478     4.1690 C.3     
  46 C46           -1.9709    -0.4751     3.7938 C.3     
  47 C47            1.3955     0.8579     2.8905 C.2     
  48 O48            1.7580     1.4417     1.8910 O.2     
  49 C49            2.3313     0.7111     4.0619 C.3     
  50 N50            3.6858     1.1530     3.6862 N.am    
  51 C51            4.1388     2.1635     4.6417 C.3     
  52 C52            3.1359     2.1955     5.8122 C.3     
  53 C53            1.8512     1.5693     5.2403 C.3     
  54 C54            4.3531     0.6425     2.6333 C.2     
  55 C55            5.6214     1.1981     2.0584 C.3     
  56 O56            3.8661    -0.3478     2.0978 O.2     
  57 N57            5.7865     0.6543     0.6876 N.am    
  58 C58            5.5523     2.7231     1.9659 C.3     
  59 C59            4.8852     3.1245     0.6488 C.3     
  60 C60            3.4470     2.6029     0.6258 C.3     
  61 C61            4.8767     4.6495     0.5254 C.3     
  62 C62            6.9480     0.9026     0.0380 C.2     
  63 O63            7.9570     1.1822     0.6438 O.2     
  64 C64            6.9957     0.8650    -1.4714 C.3     
  65 C65            6.3201     2.1310    -2.0125 C.3     
  66 C66            7.0597     3.3655    -1.4930 C.3     
  67 C67            6.3618     2.1174    -3.5418 C.3     
  68 H68           10.7957    -2.3302    -2.6284 H       
  69 H69           10.5036    -4.1960    -1.0483 H       
  70 H70            8.3806    -5.4422    -0.9937 H       
  71 H71            6.5512    -4.8253    -2.5222 H       
  72 H72            8.9680    -1.7163    -4.1601 H       
  73 H73            6.9399    -2.3571    -5.2475 H       
  74 H74            5.9942    -3.7539    -4.6793 H       
  75 H75            5.2353    -2.4122    -2.7299 H       
  76 H76            3.4909    -1.6482    -4.0442 H       
  77 H77            3.7153    -3.2354    -6.6528 H       
  78 H78            5.7789    -0.9059    -1.3169 H       
  79 H79            2.6467    -0.4608    -9.4153 H       
  80 H80            2.1571    -2.1803    -9.4754 H       
  81 H81            4.5882    -0.9573    -8.2747 H       
  82 H82            4.2782    -2.6649    -8.7402 H       
  83 H83            1.5618    -0.0755    -7.4336 H       
  84 H84            0.6123    -1.5245    -7.8975 H       
  85 H85           -1.2102    -0.1717    -5.0886 H       
  86 H86            1.5580    -1.0404    -3.1859 H       
  87 H87            1.6049     0.3305    -5.0243 H       
  88 H88            1.0239     0.7970    -6.6408 H       
  89 H89            0.2865     1.5149    -5.1886 H       
  90 H90           -0.1587    -0.2864    -7.7040 H       
  91 H91           -0.2075    -1.9785    -7.1540 H       
  92 H92           -2.3492    -1.2395    -8.2397 H       
  93 H93           -2.5701    -1.7579    -6.5512 H       
  94 H94           -2.5419    -0.0242    -6.9536 H       
  95 H95           -1.1683     0.0051    -0.8909 H       
  96 H96            0.5057    -2.3579    -0.4284 H       
  97 H97            1.2758     0.7382    -0.2106 H       
  98 H98            1.6775     0.2370    -1.8706 H       
  99 H99           -0.3653     3.4327    -4.6528 H       
 100 H100           0.5608     1.3202    -3.7908 H       
 101 H101          -0.0610     2.6777     0.2042 H       
 102 H102          -0.9874     4.7901    -0.6578 H       
 103 H103          -1.1341     5.1699    -3.0862 H       
 104 H104          -0.6366     0.8061     1.0843 H       
 105 H105          -2.6777     0.6772     2.0959 H       
 106 H106          -2.5581    -1.0787     1.7976 H       
 107 H107          -0.0373    -0.8590     4.6864 H       
 108 H108          -0.5907     0.8311     4.8167 H       
 109 H109          -2.7026     0.1297     4.3303 H       
 110 H110          -2.1152    -1.5298     4.0220 H       
 111 H111           2.3748    -0.3337     4.3704 H       
 112 H112           5.1271     1.9140     5.0238 H       
 113 H113           4.1540     3.1454     4.1684 H       
 114 H114           3.5077     1.5991     6.6452 H       
 115 H115           2.9522     3.2235     6.1109 H       
 116 H116           1.1827     2.3493     4.8830 H       
 117 H117           1.3652     0.9518     5.9955 H       
 118 H118           6.4730     0.9050     2.6722 H       
 119 H119           5.0763     0.1349     0.2669 H       
 120 H120           4.9700     3.1118     2.8013 H       
 121 H121           6.5607     3.1354     2.0029 H       
 122 H122           5.4406     2.6955    -0.1853 H       
 123 H123           3.1020     2.5338    -0.4058 H       
 124 H124           3.4109     1.6163     1.0879 H       
 125 H125           2.8036     3.2870     1.1791 H       
 126 H126           5.9012     5.0210     0.5417 H       
 127 H127           4.4014     4.9354    -0.4130 H       
 128 H128           4.3213     5.0784     1.3594 H       
 129 H129           8.0353     0.8363    -1.7910 H       
 130 H130           5.2833     2.1609    -1.6775 H       
 131 H131           8.0676     3.3865    -1.9077 H       
 132 H132           6.5233     4.2647    -1.7961 H       
 133 H133           7.1152     3.3249    -0.4052 H       
 134 H134           7.3620     1.8413    -3.8756 H       
 135 H135           5.6400     1.3927    -3.9186 H       
 136 H136           6.1130     3.1087    -3.9209 H       
@<TRIPOS>BOND
   1    1    2 ar
   2    1    6 ar
   3    1   68 1
   4    2    3 ar
   5    2   69 1
   6    3    4 ar
   7    3   70 1
   8    4    5 ar
   9    4   71 1
  10    5    6 ar
  11    5    7 1
  12    6   72 1
  13    7    8 1
  14    7   73 1
  15    7   74 1
  16    8    9 1
  17    8   10 1
  18    8   75 1
  19    9   14 2
  20    9   15 am
  21   10   11 am
  22   10   76 1
  23   11   13 2
  24   11   12 1
  25   12   17 1
  26   12   18 1
  27   12   77 1
  28   15   64 1
  29   15   78 1
  30   16   17 1
  31   16   19 1
  32   16   79 1
  33   16   80 1
  34   17   81 1
  35   17   82 1
  36   18   19 1
  37   18   20 am
  38   19   83 1
  39   19   84 1
  40   20   22 2
  41   20   21 1
  42   21   23 1
  43   21   24 1
  44   21   28 1
  45   23   25 1
  46   23   26 1
  47   23   85 1
  48   24   29 am
  49   24   86 1
  50   25   87 1
  51   25   88 1
  52   25   89 1
  53   26   27 1
  54   26   90 1
  55   26   91 1
  56   27   92 1
  57   27   93 1
  58   27   94 1
  59   29   30 2
  60   29   31 1
  61   31   32 1
  62   31   33 1
  63   31   95 1
  64   32   35 am
  65   32   96 1
  66   33   34 1
  67   33   97 1
  68   33   98 1
  69   34   39 ar
  70   34   38 ar
  71   35   36 2
  72   35   42 1
  73   37   38 ar
  74   37   41 ar
  75   37   99 1
  76   38  100 1
  77   39   40 ar
  78   39  101 1
  79   40   41 ar
  80   40  102 1
  81   41  103 1
  82   42   43 1
  83   42   44 1
  84   42  104 1
  85   43   46 1
  86   43  105 1
  87   43  106 1
  88   44   45 1
  89   44   47 am
  90   45   46 1
  91   45  107 1
  92   45  108 1
  93   46  109 1
  94   46  110 1
  95   47   48 2
  96   47   49 1
  97   49   50 1
  98   49   53 1
  99   49  111 1
 100   50   51 1
 101   50   54 am
 102   51   52 1
 103   51  112 1
 104   51  113 1
 105   52   53 1
 106   52  114 1
 107   52  115 1
 108   53  116 1
 109   53  117 1
 110   54   56 2
 111   54   55 1
 112   55   57 1
 113   55   58 1
 114   55  118 1
 115   57   62 am
 116   57  119 1
 117   58   59 1
 118   58  120 1
 119   58  121 1
 120   59   60 1
 121   59   61 1
 122   59  122 1
 123   60  123 1
 124   60  124 1
 125   60  125 1
 126   61  126 1
 127   61  127 1
 128   61  128 1
 129   62   63 2
 130   62   64 1
 131   64   65 1
 132   64  129 1
 133   65   66 1
 134   65   67 1
 135   65  130 1
 136   66  131 1
 137   66  132 1
 138   66  133 1
 139   67  134 1
 140   67  135 1
 141   67  136 1

#	End of record

