#	Name: ASD13010033
#	Creating user name:	WinNT
#	Creation time:	15. 06. 2019 21:30

#	Modifying user name:	WinNT
#	Modification time:	15. 06. 2019 21:30

#	Program:	/corina/corina34_cracker 3.40 0067  02.08.2006

@<TRIPOS>MOLECULE
ASD13010033
  45   48    0    0    0
SMALL
NO_CHARGES


@<TRIPOS>ATOM
   1 C1             0.0261     1.4123    -0.5926 C.ar    
   2 C2             0.1146     0.1091    -1.0281 C.ar    
   3 C3             1.3124    -0.5881    -0.9366 C.ar    
   4 C4             2.4245     0.0062    -0.4124 C.ar    
   5 C5             1.1470     2.0382    -0.0553 C.ar    
   6 N6             1.3829     3.2926     0.4536 N.pl3   
   7 C7             2.3591     1.3279     0.0362 C.ar    
   8 C8             3.3293     2.2467     0.6344 C.2     
   9 N9             2.7183     3.3785     0.8602 N.2     
  10 C10            0.4413     4.3162     0.5494 C.ar    
  11 O11            4.6318     1.9716     0.9052 O.3     
  12 C12            5.3882     2.9524     1.4650 C.ar    
  13 C13            6.0799     3.8442     0.6566 C.ar    
  14 C14            5.4660     3.0680     2.8462 C.ar    
  15 C15            6.2358     4.0670     3.4126 C.ar    
  16 C16            6.9278     4.9504     2.6049 C.ar    
  17 C17            6.8481     4.8411     1.2289 C.ar    
  18 C18           -1.4302     6.3511     0.7403 C.ar    
  19 C19           -1.7381     5.0699     1.2080 C.ar    
  20 C20           -0.8060     4.0618     1.1122 C.ar    
  21 C21            0.7528     5.5916     0.0872 C.ar    
  22 C22           -0.1741     6.6046     0.1807 C.ar    
  23 C23           -2.4264     7.4335     0.8407 C.2     
  24 O24           -3.5163     7.2126     1.3303 O.2     
  25 O25           -2.1281     8.6678     0.3895 O.3     
  26 Cl26           5.9809     3.7073    -1.0712 Cl      
  27 Cl27           4.5971     1.9596     3.8612 Cl      
  28 C28            3.7180    -0.7612    -0.3176 C.3     
  29 C29           -1.2777     2.1599    -0.7031 C.3     
  30 H30           -0.7559    -0.3758    -1.4446 H       
  31 H31            1.3646    -1.6097    -1.2829 H       
  32 H32            6.2964     4.1576     4.4871 H       
  33 H33            7.5285     5.7300     3.0496 H       
  34 H34            7.3867     5.5349     0.6005 H       
  35 H35           -2.7073     4.8707     1.6408 H       
  36 H36           -1.0429     3.0721     1.4739 H       
  37 H37            1.7232     5.7866    -0.3449 H       
  38 H38            0.0669     7.5931    -0.1815 H       
  39 H39           -2.8133     9.3446     0.4768 H       
  40 H40            4.2946    -0.6157    -1.2311 H       
  41 H41            4.2924    -0.4010     0.5359 H       
  42 H42            3.5026    -1.8219    -0.1890 H       
  43 H43           -1.8156     2.0940     0.2426 H       
  44 H44           -1.0781     3.2060    -0.9355 H       
  45 H45           -1.8824     1.7205    -1.4965 H       
@<TRIPOS>BOND
   1    1    2 ar
   2    1    5 ar
   3    1   29 1
   4    2    3 ar
   5    2   30 1
   6    3    4 ar
   7    3   31 1
   8    4    7 ar
   9    4   28 1
  10    5    7 ar
  11    5    6 1
  12    6    9 1
  13    6   10 1
  14    7    8 1
  15    8    9 2
  16    8   11 1
  17   10   21 ar
  18   10   20 ar
  19   11   12 1
  20   12   14 ar
  21   12   13 ar
  22   13   17 ar
  23   13   26 1
  24   14   15 ar
  25   14   27 1
  26   15   16 ar
  27   15   32 1
  28   16   17 ar
  29   16   33 1
  30   17   34 1
  31   18   19 ar
  32   18   22 ar
  33   18   23 1
  34   19   20 ar
  35   19   35 1
  36   20   36 1
  37   21   22 ar
  38   21   37 1
  39   22   38 1
  40   23   24 2
  41   23   25 1
  42   25   39 1
  43   28   40 1
  44   28   41 1
  45   28   42 1
  46   29   43 1
  47   29   44 1
  48   29   45 1

#	End of record

