#	Name: ASD10410262
#	Creating user name:	WinNT
#	Creation time:	15. 06. 2019 21:27

#	Modifying user name:	WinNT
#	Modification time:	15. 06. 2019 21:27

#	Program:	/corina/corina34_cracker 3.40 0067  02.08.2006

@<TRIPOS>MOLECULE
ASD10410262
  54   58    0    0    0
SMALL
NO_CHARGES


@<TRIPOS>ATOM
   1 C1            -0.0310     1.3874    -0.1228 C.ar    
   2 C2            -0.0093     0.0057     0.0019 C.ar    
   3 C3             1.2040    -0.6614     0.1344 C.ar    
   4 C4             2.3872     0.0528     0.1418 C.ar    
   5 C5             2.3637     1.4361     0.0168 C.ar    
   6 C6             1.1521     2.1010    -0.1154 C.ar    
   7 F7             1.2259    -2.0067     0.2564 F       
   8 N8             3.5622     2.1602     0.0246 N.pl3   
   9 C9             3.6593     3.3556    -0.6867 C.2     
  10 N10            4.6903     4.1660    -0.6742 N.2     
  11 N11            2.7175     3.8558    -1.4952 N.2     
  12 C12            3.1309     4.9955    -2.0064 C.2     
  13 N13            4.3768     5.2423    -1.5200 N.pl3   
  14 C14            5.1811     6.3420    -1.8044 C.ar    
  15 N15            2.4265     5.7968    -2.8840 N.pl3   
  16 C16            5.8134     7.0468    -0.7580 C.ar    
  17 N17            5.3598     6.7261    -3.0532 N.ar    
  18 C18            6.1147     7.7655    -3.3811 C.ar    
  19 C19            6.7613     8.5113    -2.4435 C.ar    
  20 C20            6.6253     8.1622    -1.0863 C.ar    
  21 C21            7.2587     8.8815    -0.0631 C.ar    
  22 C22            7.0881     8.4954     1.2326 C.ar    
  23 C23            6.2945     7.3968     1.5550 C.ar    
  24 C24            5.6617     6.6780     0.5855 C.ar    
  25 N25           -1.2096    -0.7176    -0.0052 N.3     
  26 C26           -2.0829    -0.2995     1.1003 C.3     
  27 C27           -3.4115    -1.0539     1.0106 C.3     
  28 N28           -3.1553    -2.5000     1.0637 N.3     
  29 C29           -2.2820    -2.9181    -0.0418 C.3     
  30 C30           -0.9533    -2.1637     0.0479 C.3     
  31 C31           -4.4135    -3.2582     1.0563 C.3     
  32 H32           -0.9729     1.9049    -0.2302 H       
  33 H33            3.3297    -0.4643     0.2450 H       
  34 H34            1.1344     3.1764    -0.2126 H       
  35 H35            4.3250     1.8301     0.5248 H       
  36 H36            1.5402     5.5331    -3.1769 H       
  37 H37            2.8182     6.6233    -3.2073 H       
  38 H38            6.2201     8.0282    -4.4234 H       
  39 H39            7.3713     9.3532    -2.7359 H       
  40 H40            7.8771     9.7346    -0.2998 H       
  41 H41            7.5757     9.0491     2.0212 H       
  42 H42            6.1764     7.1121     2.5901 H       
  43 H43            5.0492     5.8288     0.8504 H       
  44 H44           -1.5998    -0.5255     2.0509 H       
  45 H45           -2.2681     0.7725     1.0320 H       
  46 H46           -4.0499    -0.7668     1.8462 H       
  47 H47           -3.9075    -0.8067     0.0720 H       
  48 H48           -2.0968    -3.9901     0.0265 H       
  49 H49           -2.7651    -2.6920    -0.9924 H       
  50 H50           -0.3150    -2.4508    -0.7877 H       
  51 H51           -0.4574    -2.4109     0.9865 H       
  52 H52           -4.9671    -3.0345     0.1443 H       
  53 H53           -4.1949    -4.3253     1.0962 H       
  54 H54           -5.0121    -2.9773     1.9228 H       
@<TRIPOS>BOND
   1    1    2 ar
   2    1    6 ar
   3    1   32 1
   4    2    3 ar
   5    2   25 1
   6    3    4 ar
   7    3    7 1
   8    4    5 ar
   9    4   33 1
  10    5    6 ar
  11    5    8 1
  12    6   34 1
  13    8    9 1
  14    8   35 1
  15    9   10 2
  16    9   11 1
  17   10   13 1
  18   11   12 2
  19   12   13 1
  20   12   15 1
  21   13   14 1
  22   14   16 ar
  23   14   17 ar
  24   15   36 1
  25   15   37 1
  26   16   20 ar
  27   16   24 ar
  28   17   18 ar
  29   18   19 ar
  30   18   38 1
  31   19   20 ar
  32   19   39 1
  33   20   21 ar
  34   21   22 ar
  35   21   40 1
  36   22   23 ar
  37   22   41 1
  38   23   24 ar
  39   23   42 1
  40   24   43 1
  41   25   26 1
  42   25   30 1
  43   26   27 1
  44   26   44 1
  45   26   45 1
  46   27   28 1
  47   27   46 1
  48   27   47 1
  49   28   29 1
  50   28   31 1
  51   29   30 1
  52   29   48 1
  53   29   49 1
  54   30   50 1
  55   30   51 1
  56   31   52 1
  57   31   53 1
  58   31   54 1

#	End of record

