#	Name: ASD11710024
#	Creating user name:	WinNT
#	Creation time:	15. 06. 2019 21:29

#	Modifying user name:	WinNT
#	Modification time:	15. 06. 2019 21:29

#	Program:	/corina/corina34_cracker 3.40 0067  02.08.2006

@<TRIPOS>MOLECULE
ASD11710024
  49   50    0    0    0
SMALL
NO_CHARGES


@<TRIPOS>ATOM
   1 N1             0.3120     0.9226     0.1802 N.am    
   2 C2             0.5337    -0.3097    -0.3185 C.2     
   3 C3             1.8892    -0.8955    -0.2649 C.ar    
   4 O4            -0.3810    -0.9390    -0.8121 O.2     
   5 C5             2.0527    -2.2678    -0.0666 C.ar    
   6 C6             3.0121    -0.0801    -0.4182 C.ar    
   7 C7             4.2746    -0.6336    -0.3677 C.ar    
   8 C8             4.4296    -1.9936    -0.1655 C.ar    
   9 C9             3.3210    -2.8083    -0.0181 C.ar    
  10 S10            6.0460    -2.6923    -0.1023 S.o2    
  11 N11            6.4813    -2.7768     1.4932 N.am    
  12 C12            6.5725    -1.6097     2.2550 C.ar    
  13 C13            6.0082    -1.5604     3.5234 C.ar    
  14 C14            7.2326    -0.4974     1.7483 C.ar    
  15 C15            7.3208     0.6550     2.5042 C.ar    
  16 C16            6.7534     0.7024     3.7644 C.ar    
  17 C17            6.1001    -0.4048     4.2740 C.ar    
  18 O18            5.9215    -4.0332    -0.5559 O.2     
  19 O19            6.9164    -1.7452    -0.7061 O.2     
  20 C20            1.3831     1.6312     0.8851 C.3     
  21 C21           -0.8934     1.5053     0.0255 C.2     
  22 O22           -1.7799     0.9199    -0.5633 O.2     
  23 O23           -1.1148     2.7360     0.5236 O.3     
  24 C24           -2.4364     3.3017     0.3197 C.3     
  25 C25           -3.4841     2.3988     0.9740 C.3     
  26 C26           -2.4980     4.6943     0.9503 C.3     
  27 C27           -2.7199     3.4080    -1.1801 C.3     
  28 H28            1.1882    -2.9048     0.0490 H       
  29 H29            2.8925     0.9815    -0.5764 H       
  30 H30            5.1441    -0.0040    -0.4865 H       
  31 H31            3.4489    -3.8690     0.1394 H       
  32 H32            6.6731    -3.6369     1.8987 H       
  33 H33            5.4978    -2.4248     3.9220 H       
  34 H34            7.6766    -0.5340     0.7645 H       
  35 H35            7.8339     1.5201     2.1109 H       
  36 H36            6.8244     1.6046     4.3537 H       
  37 H37            5.6580    -0.3645     5.2585 H       
  38 H38            2.0046     2.1611     0.1632 H       
  39 H39            0.9477     2.3459     1.5835 H       
  40 H40            1.9941     0.9138     1.4330 H       
  41 H41           -3.2822     2.3231     2.0424 H       
  42 H42           -4.4762     2.8234     0.8209 H       
  43 H43           -3.4403     1.4067     0.5247 H       
  44 H44           -1.7516     5.3376     0.4841 H       
  45 H45           -3.4901     5.1190     0.7972 H       
  46 H46           -2.2960     4.6186     2.0187 H       
  47 H47           -2.6761     2.4158    -1.6293 H       
  48 H48           -3.7120     3.8326    -1.3331 H       
  49 H49           -1.9735     4.0512    -1.6462 H       
@<TRIPOS>BOND
   1    1    2 am
   2    1   20 1
   3    1   21 am
   4    2    3 1
   5    2    4 2
   6    3    5 ar
   7    3    6 ar
   8    5    9 ar
   9    5   28 1
  10    6    7 ar
  11    6   29 1
  12    7    8 ar
  13    7   30 1
  14    8    9 ar
  15    8   10 1
  16    9   31 1
  17   10   11 am
  18   10   18 2
  19   10   19 2
  20   11   12 1
  21   11   32 1
  22   12   13 ar
  23   12   14 ar
  24   13   17 ar
  25   13   33 1
  26   14   15 ar
  27   14   34 1
  28   15   16 ar
  29   15   35 1
  30   16   17 ar
  31   16   36 1
  32   17   37 1
  33   20   38 1
  34   20   39 1
  35   20   40 1
  36   21   22 2
  37   21   23 1
  38   23   24 1
  39   24   25 1
  40   24   26 1
  41   24   27 1
  42   25   41 1
  43   25   42 1
  44   25   43 1
  45   26   44 1
  46   26   45 1
  47   26   46 1
  48   27   47 1
  49   27   48 1
  50   27   49 1

#	End of record

