#	Name: ASD10610150
#	Creating user name:	WinNT
#	Creation time:	15. 06. 2019 21:28

#	Modifying user name:	WinNT
#	Modification time:	15. 06. 2019 21:28

#	Program:	/corina/corina34_cracker 3.40 0067  02.08.2006

@<TRIPOS>MOLECULE
ASD10610150
  39   42    0    0    0
SMALL
NO_CHARGES


@<TRIPOS>ATOM
   1 N1            -0.0178     1.4648     0.0101 N.3     
   2 C2             0.0021    -0.0041     0.0020 C.3     
   3 C3            -1.4379    -0.5592     0.0128 C.3     
   4 C4            -1.7378    -0.7323    -1.4912 C.3     
   5 C5            -0.3867    -0.9328    -2.1442 C.ar    
   6 C6            -0.0619    -1.4401    -3.3888 C.ar    
   7 C7             1.2715    -1.5302    -3.7804 C.ar    
   8 C8             2.2760    -1.1068    -2.9111 C.ar    
   9 C9             1.9425    -0.6029    -1.6722 C.ar    
  10 C10            0.6140    -0.5141    -1.2856 C.ar    
  11 C11            1.6211    -2.0739    -5.1145 C.ar    
  12 C12            2.4964    -1.3691    -5.9564 C.ar    
  13 C13            2.8175    -1.8909    -7.2090 C.ar    
  14 C14            2.2742    -3.0961    -7.6149 C.ar    
  15 C15            1.4112    -3.7896    -6.7832 C.ar    
  16 C16            1.0880    -3.2879    -5.5363 C.ar    
  17 O17            3.4825     1.5605    -4.3234 O.3     
  18 N18            2.8591     0.5213    -4.3733 N.2     
  19 C19            3.0753    -0.0778    -5.5164 C.2     
  20 N20            3.9267     0.7024    -6.2209 N.2     
  21 C21            4.1749     1.7342    -5.4536 C.2     
  22 C22            5.0724     2.8991    -5.7831 C.3     
  23 F23            3.6585    -1.2193    -8.0256 F       
  24 Cl24           0.7365    -5.3011    -7.3067 Cl      
  25 H25            0.9191     1.8392     0.0032 H       
  26 H26           -0.5563     1.8234    -0.7642 H       
  27 H27            0.5588    -0.3802     0.8603 H       
  28 H28           -1.4795    -1.5183     0.5290 H       
  29 H29           -2.1253     0.1557     0.4651 H       
  30 H30           -2.3694    -1.6059    -1.6528 H       
  31 H31           -2.2198     0.1621    -1.8861 H       
  32 H32           -0.8437    -1.7668    -4.0585 H       
  33 H33            3.3124    -1.1738    -3.2075 H       
  34 H34            2.7206    -0.2753    -0.9987 H       
  35 H35            2.5239    -3.4983    -8.5856 H       
  36 H36            0.4177    -3.8364    -4.8911 H       
  37 H37            5.0792     3.6000    -4.9484 H       
  38 H38            6.0851     2.5382    -5.9627 H       
  39 H39            4.7020     3.4017    -6.6766 H       
@<TRIPOS>BOND
   1    1    2 1
   2    1   25 1
   3    1   26 1
   4    2    3 1
   5    2   10 1
   6    2   27 1
   7    3    4 1
   8    3   28 1
   9    3   29 1
  10    4    5 1
  11    4   30 1
  12    4   31 1
  13    5    6 ar
  14    5   10 ar
  15    6    7 ar
  16    6   32 1
  17    7    8 ar
  18    7   11 1
  19    8    9 ar
  20    8   33 1
  21    9   10 ar
  22    9   34 1
  23   11   12 ar
  24   11   16 ar
  25   12   13 ar
  26   12   19 1
  27   13   14 ar
  28   13   23 1
  29   14   15 ar
  30   14   35 1
  31   15   16 ar
  32   15   24 1
  33   16   36 1
  34   17   18 1
  35   17   21 1
  36   18   19 2
  37   19   20 1
  38   20   21 2
  39   21   22 1
  40   22   37 1
  41   22   38 1
  42   22   39 1

#	End of record

