#	Name: ASD11990002
#	Creating user name:	WinNT
#	Creation time:	15. 06. 2019 21:29

#	Modifying user name:	WinNT
#	Modification time:	15. 06. 2019 21:29

#	Program:	/corina/corina34_cracker 3.40 0067  02.08.2006

@<TRIPOS>MOLECULE
ASD11990002
 104  110    0    0    0
SMALL
NO_CHARGES


@<TRIPOS>ATOM
   1 C1            -0.9531     4.1933    -0.8150 C.3     
   2 N2            -0.4150     3.5187    -3.1394 N.pl3   
   3 O3            -2.4876     2.9488    -2.0907 O.3     
   4 C4            -0.9670     2.7542    -0.2447 C.3     
   5 N5            -2.8294     0.4702     0.5937 N.am    
   6 O6            -1.4220     2.7574     1.1100 O.3     
   7 C7            -1.9635     2.0002    -1.1465 C.3     
   8 N8             0.8644     2.1830    -4.2991 N.2     
   9 O9             0.3752     4.7198    -0.8382 O.3     
  10 C10           -1.4878     3.9777    -2.2537 C.3     
  11 N11            2.5790     5.2944    -5.2199 N.ar    
  12 O12           -4.2149     1.8495    -0.4550 O.2     
  13 C13           -3.0840     1.4355    -0.3118 C.2     
  14 N14            0.7721     5.6099    -3.7941 N.ar    
  15 O15            1.3095     8.2864    -3.8748 O.2     
  16 C16           -3.9186    -0.0787     1.4051 C.3     
  17 N17            3.2362     3.1666    -5.9888 N.pl3   
  18 O18            6.5034    11.0125    -7.4737 O.2     
  19 C19           -3.3639    -1.1506     2.3454 C.3     
  20 N20            3.0532     8.0518    -5.2293 N.am    
  21 C21           -0.1644     2.2305    -3.5013 C.2     
  22 N22            4.7592    11.2476    -6.1187 N.am    
  23 C23            1.3362     3.4334    -4.5023 C.ar    
  24 N24            6.0112    13.0825    -6.8364 N.am    
  25 C25            0.5193     4.3096    -3.7621 C.ar    
  26 N26            9.2228    15.5981    -7.8896 N.3     
  27 C27            2.3971     3.9813    -5.2483 C.ar    
  28 N28           10.1355    16.8168    -9.6763 N.ar    
  29 C29            1.7785     6.0835    -4.5113 C.ar    
  30 C30            4.3401     3.7533    -6.7527 C.3     
  31 C31            5.1065     2.6438    -7.4755 C.3     
  32 C32            6.1641     3.2560    -8.3573 C.ar    
  33 C33            5.7595     1.7411    -6.4607 C.ar    
  34 C34            7.0568     4.1715    -7.8322 C.ar    
  35 C35            8.0269     4.7332    -8.6412 C.ar    
  36 C36            8.1045     4.3790    -9.9751 C.ar    
  37 C37            7.2124     3.4628   -10.5000 C.ar    
  38 C38            6.2450     2.8979    -9.6900 C.ar    
  39 C39            5.5646     0.3741    -6.5248 C.ar    
  40 C40            6.1635    -0.4539    -5.5939 C.ar    
  41 C41            6.9577     0.0851    -4.5991 C.ar    
  42 C42            7.1533     1.4520    -4.5355 C.ar    
  43 C43            6.5579     2.2796    -5.4690 C.ar    
  44 C44            2.0285     7.5453    -4.5153 C.2     
  45 C45            3.3002     9.4958    -5.2332 C.3     
  46 C46            4.5122     9.8035    -6.1148 C.3     
  47 C47            5.7839    11.7540    -6.8328 C.2     
  48 C48            7.1250    13.6331    -7.6125 C.3     
  49 C49            6.8275    15.0917    -7.9707 C.3     
  50 C50            8.0202    15.6793    -8.7285 C.3     
  51 C51            9.5554    14.2035    -7.5721 C.3     
  52 C52            8.4085    13.5718    -6.7798 C.3     
  53 C53           11.5304    16.2740    -7.8534 C.ar    
  54 C54           12.5903    16.9176    -8.4667 C.ar    
  55 C55           12.3796    17.5086    -9.7053 C.ar    
  56 C56           11.1283    17.4375   -10.2844 C.ar    
  57 C57           10.2965    16.2410    -8.4947 C.ar    
  58 H58           -1.6174     4.8437    -0.2459 H       
  59 H59            0.0250     2.3075    -0.3119 H       
  60 H60           -1.9249     0.1391     0.7082 H       
  61 H61           -1.4506     1.8809     1.5174 H       
  62 H62           -1.4505     1.1964    -1.6745 H       
  63 H63            0.7864     4.7884     0.0343 H       
  64 H64           -1.9357     4.8940    -2.6381 H       
  65 H65           -4.3726     0.7198     1.9920 H       
  66 H66           -4.6703    -0.5221     0.7520 H       
  67 H67            3.0934     2.2073    -6.0019 H       
  68 H68           -2.9099    -1.9491     1.7585 H       
  69 H69           -2.6122    -0.7073     2.9985 H       
  70 H70           -4.1743    -1.5591     2.9491 H       
  71 H71            3.6272     7.4602    -5.7407 H       
  72 H72           -0.7345     1.3734    -3.1744 H       
  73 H73            4.1852    11.8392    -5.6074 H       
  74 H74            5.4372    13.6741    -6.3250 H       
  75 H75            3.9422     4.4562    -7.4847 H       
  76 H76            5.0133     4.2774    -6.0743 H       
  77 H77            4.4153     2.0633    -8.0865 H       
  78 H78            6.9962     4.4483    -6.7900 H       
  79 H79            8.7239     5.4490    -8.2311 H       
  80 H80            8.8620     4.8183   -10.6073 H       
  81 H81            7.2728     3.1863   -11.5423 H       
  82 H82            5.5504     2.1792   -10.0992 H       
  83 H83            4.9441    -0.0471    -7.3020 H       
  84 H84            6.0106    -1.5219    -5.6436 H       
  85 H85            7.4250    -0.5618    -3.8714 H       
  86 H86            7.7735     1.8732    -3.7581 H       
  87 H87            6.7138     3.3473    -5.4216 H       
  88 H88            2.4247    10.0131    -5.6257 H       
  89 H89            3.4960     9.8337    -4.2156 H       
  90 H90            4.3164     9.4657    -7.1325 H       
  91 H91            5.3877     9.2863    -5.7224 H       
  92 H92            7.2544    13.0527    -8.5261 H       
  93 H93            5.9383    15.1379    -8.5995 H       
  94 H94            6.6587    15.6634    -7.0582 H       
  95 H95            7.8174    16.7221    -8.9725 H       
  96 H96            8.1798    15.1158    -9.6477 H       
  97 H97            9.7079    13.6469    -8.4967 H       
  98 H98           10.4677    14.1744    -6.9762 H       
  99 H99            8.2646    14.1196    -5.8485 H       
 100 H100           8.6490    12.5321    -6.5577 H       
 101 H101          11.6593    15.8033    -6.8900 H       
 102 H102          13.5598    16.9598    -7.9926 H       
 103 H103          13.1863    18.0191   -10.2104 H       
 104 H104          10.9601    17.8955   -11.2479 H       
@<TRIPOS>BOND
   1    1    4 1
   2    1    9 1
   3    1   10 1
   4    1   58 1
   5    2   10 1
   6    2   21 1
   7    2   25 1
   8    3    7 1
   9    3   10 1
  10    4    6 1
  11    4    7 1
  12    4   59 1
  13    5   13 am
  14    5   16 1
  15    5   60 1
  16    6   61 1
  17    7   13 1
  18    7   62 1
  19    8   21 2
  20    8   23 1
  21    9   63 1
  22   10   64 1
  23   11   27 ar
  24   11   29 ar
  25   12   13 2
  26   14   25 ar
  27   14   29 ar
  28   15   44 2
  29   16   19 1
  30   16   65 1
  31   16   66 1
  32   17   27 1
  33   17   30 1
  34   17   67 1
  35   18   47 2
  36   19   68 1
  37   19   69 1
  38   19   70 1
  39   20   44 am
  40   20   45 1
  41   20   71 1
  42   21   72 1
  43   22   46 1
  44   22   47 am
  45   22   73 1
  46   23   25 ar
  47   23   27 ar
  48   24   47 am
  49   24   48 1
  50   24   74 1
  51   26   50 1
  52   26   51 1
  53   26   57 1
  54   28   56 ar
  55   28   57 ar
  56   29   44 1
  57   30   31 1
  58   30   75 1
  59   30   76 1
  60   31   32 1
  61   31   33 1
  62   31   77 1
  63   32   34 ar
  64   32   38 ar
  65   33   39 ar
  66   33   43 ar
  67   34   35 ar
  68   34   78 1
  69   35   36 ar
  70   35   79 1
  71   36   37 ar
  72   36   80 1
  73   37   38 ar
  74   37   81 1
  75   38   82 1
  76   39   40 ar
  77   39   83 1
  78   40   41 ar
  79   40   84 1
  80   41   42 ar
  81   41   85 1
  82   42   43 ar
  83   42   86 1
  84   43   87 1
  85   45   46 1
  86   45   88 1
  87   45   89 1
  88   46   90 1
  89   46   91 1
  90   48   49 1
  91   48   52 1
  92   48   92 1
  93   49   50 1
  94   49   93 1
  95   49   94 1
  96   50   95 1
  97   50   96 1
  98   51   52 1
  99   51   97 1
 100   51   98 1
 101   52   99 1
 102   52  100 1
 103   53   54 ar
 104   53   57 ar
 105   53  101 1
 106   54   55 ar
 107   54  102 1
 108   55   56 ar
 109   55  103 1
 110   56  104 1

#	End of record

