#	Name: ASD11700001
#	Creating user name:	WinNT
#	Creation time:	15. 06. 2019 21:29

#	Modifying user name:	WinNT
#	Modification time:	15. 06. 2019 21:29

#	Program:	/corina/corina34_cracker 3.40 0067  02.08.2006

@<TRIPOS>MOLECULE
ASD11700001
  27   27    0    0    0
SMALL
NO_CHARGES


@<TRIPOS>ATOM
   1 P1            -0.0180     1.4758     0.0102 P.3     
   2 O2             0.0021    -0.0041     0.0020 O.2     
   3 O3             1.4924     2.0330    -0.0013 O.3     
   4 O4            -0.7967     2.0091    -1.2942 O.3     
   5 O5            -0.7716     1.9950     1.3348 O.3     
   6 N6            -3.1077     3.6862     4.1119 N.ar    
   7 C7            -2.9745     3.4990     5.4099 C.ar    
   8 C8            -3.9149     4.1899     6.3634 C.3     
   9 C9            -1.9775     2.6721     5.9073 C.ar    
  10 O10           -1.8444     2.4814     7.2463 O.3     
  11 C11           -1.1161     2.0410     5.0158 C.ar    
  12 C12           -0.0198     1.1342     5.5126 C.3     
  13 C13           -1.2917     2.2656     3.6597 C.ar    
  14 C14           -0.3850     1.6043     2.6538 C.3     
  15 C15           -2.3083     3.1027     3.2403 C.ar    
  16 H16            1.5557     2.9980     0.0033 H       
  17 H17           -0.3973     1.7338    -2.1307 H       
  18 H18           -4.7818     3.5540     6.5433 H       
  19 H19           -3.4018     4.3799     7.3061 H       
  20 H20           -4.2415     5.1354     5.9304 H       
  21 H21           -2.3562     1.7365     7.5903 H       
  22 H22           -0.3958     0.1135     5.5814 H       
  23 H23            0.8203     1.1660     4.8187 H       
  24 H24            0.3092     1.4674     6.4969 H       
  25 H25           -0.4642     0.5214     2.7499 H       
  26 H26            0.6450     1.9108     2.8364 H       
  27 H27           -2.4502     3.2812     2.1847 H       
@<TRIPOS>BOND
   1    1    2 2
   2    1    3 1
   3    1    4 1
   4    1    5 1
   5    3   16 1
   6    4   17 1
   7    5   14 1
   8    6    7 ar
   9    6   15 ar
  10    7    8 1
  11    7    9 ar
  12    8   18 1
  13    8   19 1
  14    8   20 1
  15    9   10 1
  16    9   11 ar
  17   10   21 1
  18   11   12 1
  19   11   13 ar
  20   12   22 1
  21   12   23 1
  22   12   24 1
  23   13   14 1
  24   13   15 ar
  25   14   25 1
  26   14   26 1
  27   15   27 1

#	End of record

