#	Name: ASD10160433
#	Creating user name:	WinNT
#	Creation time:	15. 06. 2019 21:25

#	Modifying user name:	WinNT
#	Modification time:	15. 06. 2019 21:25

#	Program:	/corina/corina34_cracker 3.40 0067  02.08.2006

@<TRIPOS>MOLECULE
ASD10160433
  45   48    0    0    0
SMALL
NO_CHARGES


@<TRIPOS>ATOM
   1 C1             0.2249     1.4264     0.1368 C.2     
   2 C2             0.2081    -0.0440     0.0516 C.ar    
   3 C3             1.3960    -0.7701     0.2031 C.ar    
   4 C4             1.3748    -2.1478     0.1223 C.ar    
   5 C5             0.1783    -2.8133    -0.1091 C.ar    
   6 C6            -1.0053    -2.0951    -0.2608 C.ar    
   7 C7            -0.9955    -0.7200    -0.1752 C.ar    
   8 O8             1.2708     2.0114     0.3389 O.2     
   9 O9            -0.9188     2.1233    -0.0149 O.3     
  10 F10           -2.1662    -2.7483    -0.4863 F       
  11 F11            2.5607    -0.1232     0.4275 F       
  12 O12            0.1622    -4.1682    -0.1882 O.3     
  13 C13            2.0331    -5.3420    -1.0868 C.ar    
  14 C14            1.3333    -4.8321    -0.0022 C.ar    
  15 C15            1.8478    -5.0098     1.2779 C.ar    
  16 C16            3.0462    -5.6935     1.4172 C.ar    
  17 C17            3.6853    -6.1724     0.2875 C.ar    
  18 N18            3.1695    -5.9863    -0.9119 N.ar    
  19 C19            4.9883    -6.9161     0.4293 C.3     
  20 C20            5.0381    -8.3576    -0.0811 C.3     
  21 C21            5.7555    -7.2478    -0.8522 C.3     
  22 Cl22           3.7365    -5.9449     2.9900 Cl      
  23 C23           -0.8285     3.4781     0.0467 C.ar    
  24 C24           -0.3727     4.1947    -1.0503 C.ar    
  25 C25           -0.2823     5.5716    -0.9854 C.ar    
  26 C26           -0.6453     6.2356     0.1718 C.ar    
  27 C27           -1.0995     5.5237     1.2667 C.ar    
  28 C28           -1.1976     4.1471     1.2047 C.ar    
  29 C29           -0.5453     7.7377     0.2401 C.3     
  30 H30            2.2901    -2.7090     0.2390 H       
  31 H31           -1.9147    -0.1646    -0.2883 H       
  32 H32            1.6400    -5.2134    -2.0845 H       
  33 H33            1.3269    -4.6244     2.1420 H       
  34 H34            5.5721    -6.6763     1.3180 H       
  35 H35            5.6550    -9.0661     0.4716 H       
  36 H36            4.1285    -8.7680    -0.5194 H       
  37 H37            5.3178    -6.9281    -1.7979 H       
  38 H38            6.8443    -7.2262    -0.8068 H       
  39 H39           -0.0883     3.6765    -1.9542 H       
  40 H40            0.0725     6.1299    -1.8391 H       
  41 H41           -1.3821     6.0446     2.1696 H       
  42 H42           -1.5566     3.5919     2.0586 H       
  43 H43           -1.4848     8.1799    -0.0916 H       
  44 H44           -0.3431     8.0421     1.2670 H       
  45 H45            0.2643     8.0777    -0.4057 H       
@<TRIPOS>BOND
   1    1    2 1
   2    1    8 2
   3    1    9 1
   4    2    3 ar
   5    2    7 ar
   6    3    4 ar
   7    3   11 1
   8    4    5 ar
   9    4   30 1
  10    5    6 ar
  11    5   12 1
  12    6    7 ar
  13    6   10 1
  14    7   31 1
  15    9   23 1
  16   12   14 1
  17   13   14 ar
  18   13   18 ar
  19   13   32 1
  20   14   15 ar
  21   15   16 ar
  22   15   33 1
  23   16   17 ar
  24   16   22 1
  25   17   18 ar
  26   17   19 1
  27   19   20 1
  28   19   21 1
  29   19   34 1
  30   20   21 1
  31   20   35 1
  32   20   36 1
  33   21   37 1
  34   21   38 1
  35   23   24 ar
  36   23   28 ar
  37   24   25 ar
  38   24   39 1
  39   25   26 ar
  40   25   40 1
  41   26   27 ar
  42   26   29 1
  43   27   28 ar
  44   27   41 1
  45   28   42 1
  46   29   43 1
  47   29   44 1
  48   29   45 1

#	End of record

