#	Name: ASD14640025
#	Creating user name:	WinNT
#	Creation time:	15. 06. 2019 21:31

#	Modifying user name:	WinNT
#	Modification time:	15. 06. 2019 21:31

#	Program:	/corina/corina34_cracker 3.40 0067  02.08.2006

@<TRIPOS>MOLECULE
ASD14640025
  47   49    0    0    0
SMALL
NO_CHARGES


@<TRIPOS>ATOM
   1 C1            -0.0167     1.3826     0.0096 C.ar    
   2 C2             0.0021    -0.0041     0.0020 C.ar    
   3 C3            -1.1905    -0.7127     0.0101 C.ar    
   4 C4            -5.4876    -1.7504     1.4907 C.3     
   5 C5            -5.8909    -2.0111     2.9485 C.3     
   6 C6            -5.9163    -0.6875     3.6694 C.2     
   7 C7            -6.4748    -0.3863     4.8447 C.2     
   8 C8            -5.5631     1.4392     4.0998 C.2     
   9 C9            -7.2257    -1.3401     5.7376 C.3     
  10 C10           -6.5261    -1.4252     7.0957 C.3     
  11 C11           -8.6574    -0.8368     5.9321 C.3     
  12 C12            2.3762     0.1256    -0.0218 C.3     
  13 C13           -2.3949    -0.0366     0.0257 C.ar    
  14 C14           -2.4122     1.3481     0.0333 C.ar    
  15 C15           -1.2228     2.0565     0.0306 C.ar    
  16 F16           -3.5908     2.0082     0.0481 F       
  17 C17           -3.6906    -0.8060     0.0340 C.3     
  18 C18           -4.6090     0.5572     1.9178 C.3     
  19 C19           -4.2431    -0.8592     1.4597 C.3     
  20 N20           -5.3326     0.4664     3.1877 N.pl3   
  21 N21           -6.2501     0.9184     5.0928 N.2     
  22 N22           -5.1477     2.7569     4.0035 N.pl3   
  23 O23            1.1881    -0.6683    -0.0138 O.3     
  24 H24            0.9110     1.9356     0.0038 H       
  25 H25           -1.1773    -1.7926     0.0038 H       
  26 H26           -5.2685    -2.6982     0.9989 H       
  27 H27           -6.3055    -1.2515     0.9707 H       
  28 H28           -6.8803    -2.4672     2.9811 H       
  29 H29           -5.1643    -2.6736     3.4189 H       
  30 H30           -7.2472    -2.3280     5.2775 H       
  31 H31           -6.5046    -0.4373     7.5558 H       
  32 H32           -7.0693    -2.1151     7.7416 H       
  33 H33           -5.5062    -1.7838     6.9572 H       
  34 H34           -9.1557    -0.7762     4.9646 H       
  35 H35           -9.2005    -1.5267     6.5780 H       
  36 H36           -8.6359     0.1511     6.3922 H       
  37 H37            3.2492    -0.5270    -0.0343 H       
  38 H38            2.3837     0.7594    -0.9085 H       
  39 H39            2.4021     0.7499     0.8713 H       
  40 H40           -1.2378     3.1363     0.0365 H       
  41 H41           -4.4113    -0.3109    -0.6168 H       
  42 H42           -3.5134    -1.8198    -0.3251 H       
  43 H43           -3.7004     1.1433     2.0557 H       
  44 H44           -5.2430     1.0316     1.1687 H       
  45 H45           -3.4861    -1.2717     2.1267 H       
  46 H46           -4.6435     3.0511     3.2289 H       
  47 H47           -5.3610     3.3856     4.7108 H       
@<TRIPOS>BOND
   1    1    2 ar
   2    1   24 1
   3    1   15 ar
   4    2    3 ar
   5    2   23 1
   6    3   25 1
   7    3   13 ar
   8    4    5 1
   9    4   26 1
  10    4   27 1
  11    4   19 1
  12    5   28 1
  13    5   29 1
  14    5    6 1
  15    6    7 2
  16    6   20 1
  17    7    9 1
  18    7   21 1
  19    8   20 1
  20    8   21 2
  21    8   22 1
  22    9   11 1
  23    9   30 1
  24    9   10 1
  25   10   31 1
  26   10   32 1
  27   10   33 1
  28   11   34 1
  29   11   35 1
  30   11   36 1
  31   12   37 1
  32   12   38 1
  33   12   39 1
  34   12   23 1
  35   13   17 1
  36   13   14 ar
  37   14   15 ar
  38   14   16 1
  39   15   40 1
  40   17   19 1
  41   17   41 1
  42   17   42 1
  43   18   19 1
  44   18   20 1
  45   18   43 1
  46   18   44 1
  47   19   45 1
  48   22   46 1
  49   22   47 1

#	End of record

