#	Name: ASD13990001
#	Creating user name:	WinNT
#	Creation time:	15. 06. 2019 21:30

#	Modifying user name:	WinNT
#	Modification time:	15. 06. 2019 21:30

#	Program:	/corina/corina34_cracker 3.40 0067  02.08.2006

@<TRIPOS>MOLECULE
ASD13990001
  47   49    0    0    0
SMALL
NO_CHARGES


@<TRIPOS>ATOM
   1 C1            -0.2650     1.3386    -0.4830 C.ar    
   2 C2            -0.2094    -0.0500    -0.4012 C.ar    
   3 C3             1.0358    -0.6708    -0.5020 C.ar    
   4 N4             2.1204     0.0791    -0.6716 N.ar    
   5 C5             2.0292     1.3987    -0.7449 C.ar    
   6 N6             0.8658     2.0232    -0.6536 N.ar    
   7 C7            -1.5659     2.0465    -0.3876 C.ar    
   8 N8            -2.6831     1.3501    -0.2234 N.ar    
   9 C9            -3.8571     1.9394    -0.1338 C.ar    
  10 C10           -3.9683     3.3167    -0.2088 C.ar    
  11 C11           -2.8250     4.0827    -0.3802 C.ar    
  12 C12           -1.6030     3.4362    -0.4656 C.ar    
  13 N13            3.1816     2.1445    -0.9218 N.pl3   
  14 C14            4.4798     1.4734    -1.0254 C.3     
  15 N15            1.1409    -2.0504    -0.4260 N.pl3   
  16 C16           -0.0607    -2.8672    -0.2385 C.3     
  17 C17            0.3245    -4.3234    -0.1892 C.ar    
  18 C18            0.8329    -4.8639     0.9789 C.ar    
  19 C19            1.1866    -6.1994     1.0270 C.ar    
  20 C20            1.0310    -6.9980    -0.0985 C.ar    
  21 C21            0.5201    -6.4515    -1.2693 C.ar    
  22 C22            0.1637    -5.1180    -1.3095 C.ar    
  23 N23            1.3877    -8.3476    -0.0536 N.am    
  24 S24            2.7800    -8.8609    -0.7887 S.o2    
  25 O25            2.8219   -10.2565    -0.5243 O.2     
  26 O26            2.6759    -8.3700    -2.1181 O.2     
  27 C27            4.1059    -8.0037     0.1045 C.3     
  28 Cl28           1.0273    -3.8640     2.3846 Cl      
  29 H29           -1.1083    -0.6324    -0.2628 H       
  30 H30           -4.7453     1.3397    -0.0003 H       
  31 H31           -4.9361     3.7904    -0.1349 H       
  32 H32           -2.8857     5.1592    -0.4420 H       
  33 H33           -0.6921     4.0018    -0.5948 H       
  34 H34            3.1298     3.1115    -0.9773 H       
  35 H35            5.2640     2.2182    -1.1608 H       
  36 H36            4.6699     0.9073    -0.1135 H       
  37 H37            4.4712     0.7954    -1.8788 H       
  38 H38            2.0100    -2.4752    -0.4969 H       
  39 H39           -0.5476    -2.5883     0.6960 H       
  40 H40           -0.7465    -2.7008    -1.0693 H       
  41 H41            1.5837    -6.6211     1.9385 H       
  42 H42            0.3984    -7.0701    -2.1462 H       
  43 H43           -0.2337    -4.6932    -2.2194 H       
  44 H44            0.8199    -8.9843     0.4081 H       
  45 H45            4.0200    -8.2128     1.1708 H       
  46 H46            5.0728    -8.3532    -0.2575 H       
  47 H47            4.0217    -6.9300    -0.0631 H       
@<TRIPOS>BOND
   1    1    2 ar
   2    1    6 ar
   3    1    7 1
   4    2    3 ar
   5    2   29 1
   6    3    4 ar
   7    3   15 1
   8    4    5 ar
   9    5    6 ar
  10    5   13 1
  11    7    8 ar
  12    7   12 ar
  13    8    9 ar
  14    9   10 ar
  15    9   30 1
  16   10   11 ar
  17   10   31 1
  18   11   12 ar
  19   11   32 1
  20   12   33 1
  21   13   14 1
  22   13   34 1
  23   14   35 1
  24   14   36 1
  25   14   37 1
  26   15   16 1
  27   15   38 1
  28   16   17 1
  29   16   39 1
  30   16   40 1
  31   17   18 ar
  32   17   22 ar
  33   18   19 ar
  34   18   28 1
  35   19   20 ar
  36   19   41 1
  37   20   21 ar
  38   20   23 1
  39   21   22 ar
  40   21   42 1
  41   22   43 1
  42   23   24 am
  43   23   44 1
  44   24   25 2
  45   24   26 2
  46   24   27 1
  47   27   45 1
  48   27   46 1
  49   27   47 1

#	End of record

