#	Name: ASD13490036
#	Creating user name:	WinNT
#	Creation time:	15. 06. 2019 21:30

#	Modifying user name:	WinNT
#	Modification time:	15. 06. 2019 21:30

#	Program:	/corina/corina34_cracker 3.40 0067  02.08.2006

@<TRIPOS>MOLECULE
ASD13490036
  50   54    0    0    0
SMALL
NO_CHARGES


@<TRIPOS>ATOM
   1 C1             0.2410     1.3101    -0.7324 C.ar    
   2 C2            -1.4354     1.3278    -2.3125 C.ar    
   3 N3            -0.5226     1.9645    -1.5929 N.ar    
   4 N4             0.1296     0.0027    -0.5579 N.ar    
   5 C5            -1.5949    -0.0406    -2.1499 C.ar    
   6 C6            -0.7669    -0.7033    -1.2457 C.ar    
   7 O7            -2.5504    -0.6797    -2.8751 O.3     
   8 N8            -0.8323    -2.0738    -1.0442 N.3     
   9 C9            -2.0739    -2.6369    -1.5872 C.3     
  10 C10           -2.4519    -2.1056    -2.9756 C.3     
  11 N11            1.1863     2.0116     0.0015 N.pl3   
  12 C12            1.2420     3.4071    -0.0818 C.ar    
  13 C13            2.5164     5.4418    -0.0588 C.ar    
  14 C14            1.3457     6.1726    -0.2468 C.ar    
  15 C15            0.1277     5.5165    -0.3467 C.ar    
  16 C16            0.0752     4.1390    -0.2641 C.ar    
  17 C17            2.4625     4.0604     0.0234 C.ar    
  18 N18            1.3978     7.5741    -0.3301 N.pl3   
  19 C19            2.0222     8.4069     0.5331 C.2     
  20 N20            1.8509     9.6356     0.1265 N.2     
  21 C21            1.1197     9.6324    -0.9978 C.2     
  22 C22            0.8306     8.3528    -1.3044 C.2     
  23 C23            0.7000    10.8476    -1.7842 C.3     
  24 O24            3.7104     6.0837     0.0436 O.3     
  25 C25            4.8698     5.2706     0.2351 C.3     
  26 C26           -0.6826    -2.4044     0.3792 C.3     
  27 C27           -2.4094    -4.0909    -1.2642 C.3     
  28 C28           -3.2066    -2.9574    -0.6147 C.3     
  29 H29           -2.0544     1.8700    -3.0120 H       
  30 H30           -3.4107    -2.5226    -3.2837 H       
  31 H31           -1.6808    -2.3739    -3.6978 H       
  32 H32            1.8087     1.5347     0.5725 H       
  33 H33           -0.7801     6.0832    -0.4921 H       
  34 H34           -0.8741     3.6299    -0.3417 H       
  35 H35            3.3691     3.4918     0.1696 H       
  36 H36            2.5709     8.1056     1.4132 H       
  37 H37            0.2594     8.0074    -2.1535 H       
  38 H38            1.4585    11.0755    -2.5331 H       
  39 H39           -0.2510    10.6497    -2.2787 H       
  40 H40            0.5890    11.6964    -1.1095 H       
  41 H41            5.7527     5.9063     0.3004 H       
  42 H42            4.7645     4.6991     1.1573 H       
  43 H43            4.9764     4.5859    -0.6063 H       
  44 H44           -1.4387    -1.8728     0.9572 H       
  45 H45           -0.8078    -3.4782     0.5179 H       
  46 H46            0.3096    -2.1073     0.7188 H       
  47 H47           -2.9060    -4.6767    -2.0377 H       
  48 H48           -1.7107    -4.6406    -0.6336 H       
  49 H49           -3.0324    -2.7615     0.4433 H       
  50 H50           -4.2277    -2.7975    -0.9609 H       
@<TRIPOS>BOND
   1    1    4 ar
   2    1   11 1
   3    1    3 ar
   4    2    3 ar
   5    2    5 ar
   6    2   29 1
   7    4    6 ar
   8    5    6 ar
   9    5    7 1
  10    6    8 1
  11    7   10 1
  12    8    9 1
  13    8   26 1
  14    9   10 1
  15    9   27 1
  16    9   28 1
  17   10   30 1
  18   10   31 1
  19   11   12 1
  20   11   32 1
  21   12   17 ar
  22   12   16 ar
  23   13   17 ar
  24   13   14 ar
  25   13   24 1
  26   14   15 ar
  27   14   18 1
  28   15   16 ar
  29   15   33 1
  30   16   34 1
  31   17   35 1
  32   18   19 1
  33   18   22 1
  34   19   20 2
  35   19   36 1
  36   20   21 1
  37   21   22 2
  38   21   23 1
  39   22   37 1
  40   23   38 1
  41   23   39 1
  42   23   40 1
  43   24   25 1
  44   25   41 1
  45   25   42 1
  46   25   43 1
  47   26   44 1
  48   26   45 1
  49   26   46 1
  50   27   28 1
  51   27   47 1
  52   27   48 1
  53   28   49 1
  54   28   50 1

#	End of record

