#	Name: ASD11000306
#	Creating user name:	WinNT
#	Creation time:	15. 06. 2019 21:29

#	Modifying user name:	WinNT
#	Modification time:	15. 06. 2019 21:29

#	Program:	/corina/corina34_cracker 3.40 0067  02.08.2006

@<TRIPOS>MOLECULE
ASD11000306
  55   59    0    0    0
SMALL
NO_CHARGES


@<TRIPOS>ATOM
   1 N1            -0.0145     1.3264     0.0172 N.ar    
   2 C2             0.0026    -0.0050     0.0127 C.ar    
   3 N3             1.1614    -0.6531     0.0111 N.ar    
   4 C4             2.3039     0.0335     0.0141 C.ar    
   5 N5             2.2762     1.3683     0.0187 N.ar    
   6 C6             1.1194     2.0056     0.0202 C.ar    
   7 N7            -1.1846    -0.7115     0.0100 N.pl3   
   8 C8            -2.4017    -0.0339     0.1313 C.ar    
   9 C9            -3.5269    -0.4989    -0.5373 C.ar    
  10 C10           -4.7274     0.1727    -0.4154 C.ar    
  11 C11           -4.8101     1.3071     0.3712 C.ar    
  12 C12           -3.6918     1.7727     1.0381 C.ar    
  13 C13           -2.4896     1.1025     0.9251 C.ar    
  14 C14           -6.1217     2.0377     0.5014 C.3     
  15 F15           -6.8394     1.5182     1.5842 F       
  16 F16           -5.8782     3.3989     0.7134 F       
  17 F17           -6.8652     1.8741    -0.6723 F       
  18 C18            3.5915    -0.6774     0.0129 C.2     
  19 C19            4.7430     0.0171     0.0159 C.2     
  20 N20            9.7620    -2.4557     0.0134 N.pl3   
  21 N21           10.5733    -1.3167     0.0168 N.2     
  22 C22            9.8374    -0.2425     0.0188 C.2     
  23 C23            8.4384    -0.6617     0.0167 C.ar    
  24 C24            7.2225     0.0249     0.0179 C.ar    
  25 C25            6.0322    -0.6947     0.0147 C.ar    
  26 C26            6.0576    -2.0991     0.0108 C.ar    
  27 C27            7.2414    -2.7721     0.0101 C.ar    
  28 C28            8.4477    -2.0711     0.0132 C.ar    
  29 C29           10.2418    -3.8399     0.0049 C.3     
  30 C30           10.7584    -4.1927    -1.3924 C.3     
  31 C31           11.3132    -5.6204    -1.3777 C.3     
  32 C32           12.4078    -5.7201    -0.3109 C.3     
  33 C33           11.8274    -5.3084     1.0446 C.3     
  34 O34           11.3012    -3.9829     0.9532 O.3     
  35 H35            1.0998     3.0854     0.0235 H       
  36 H36           -1.1738    -1.6776    -0.0760 H       
  37 H37           -3.4629    -1.3846    -1.1520 H       
  38 H38           -5.6026    -0.1882    -0.9353 H       
  39 H39           -3.7597     2.6589     1.6516 H       
  40 H40           -1.6177     1.4640     1.4500 H       
  41 H41            3.6122    -1.7572     0.0095 H       
  42 H42            4.7223     1.0969     0.0193 H       
  43 H43           10.1970     0.7759     0.0219 H       
  44 H44            7.2064     1.1048     0.0221 H       
  45 H45            5.1290    -2.6506     0.0088 H       
  46 H46            7.2466    -3.8521     0.0075 H       
  47 H47            9.4237    -4.5098     0.2698 H       
  48 H48            9.9409    -4.1269    -2.1103 H       
  49 H49           11.5491    -3.4975    -1.6746 H       
  50 H50           10.5113    -6.3208    -1.1440 H       
  51 H51           11.7336    -5.8583    -2.3548 H       
  52 H52           12.7699    -6.7467    -0.2554 H       
  53 H53           13.2318    -5.0558    -0.5712 H       
  54 H54           11.0303    -5.9976     1.3232 H       
  55 H55           12.6128    -5.3364     1.7999 H       
@<TRIPOS>BOND
   1    1    2 ar
   2    1    6 ar
   3    2    3 ar
   4    2    7 1
   5    3    4 ar
   6    4    5 ar
   7    4   18 1
   8    5    6 ar
   9    6   35 1
  10    7    8 1
  11    7   36 1
  12    8    9 ar
  13    8   13 ar
  14    9   10 ar
  15    9   37 1
  16   10   11 ar
  17   10   38 1
  18   11   12 ar
  19   11   14 1
  20   12   13 ar
  21   12   39 1
  22   13   40 1
  23   14   15 1
  24   14   16 1
  25   14   17 1
  26   18   19 2
  27   18   41 1
  28   19   25 1
  29   19   42 1
  30   20   21 1
  31   20   28 1
  32   20   29 1
  33   21   22 2
  34   22   23 1
  35   22   43 1
  36   23   24 ar
  37   23   28 ar
  38   24   25 ar
  39   24   44 1
  40   25   26 ar
  41   26   27 ar
  42   26   45 1
  43   27   28 ar
  44   27   46 1
  45   29   30 1
  46   29   34 1
  47   29   47 1
  48   30   31 1
  49   30   48 1
  50   30   49 1
  51   31   32 1
  52   31   50 1
  53   31   51 1
  54   32   33 1
  55   32   52 1
  56   32   53 1
  57   33   34 1
  58   33   54 1
  59   33   55 1

#	End of record

