#	Name: ASD10410026
#	Creating user name:	WinNT
#	Creation time:	15. 06. 2019 21:26

#	Modifying user name:	WinNT
#	Modification time:	15. 06. 2019 21:26

#	Program:	/corina/corina34_cracker 3.40 0067  02.08.2006

@<TRIPOS>MOLECULE
ASD10410026
  66   70    0    0    0
SMALL
NO_CHARGES


@<TRIPOS>ATOM
   1 C1             0.0368     1.2264    -0.0430 C.3     
   2 C2             0.0706    -0.2697    -0.2211 C.ar    
   3 C3             1.4453     1.7619    -0.0241 C.ar    
   4 N4             2.0664     2.0524    -1.1551 N.ar    
   5 C5             2.1045     1.9618     1.1802 C.ar    
   6 C6             3.3997     2.4567     1.1522 C.ar    
   7 N7             3.9640     2.7216    -0.0146 N.ar    
   8 C8             3.3045     2.5240    -1.1464 C.ar    
   9 Cl9            1.3250     1.6009     2.6888 Cl      
  10 N10            3.9267     2.8124    -2.3507 N.pl3   
  11 C11            5.1919     3.4073    -2.3590 C.ar    
  12 C12            6.0958     3.1065    -3.3698 C.ar    
  13 C13            7.3446     3.6963    -3.3754 C.ar    
  14 C14            7.6955     4.5853    -2.3760 C.ar    
  15 C15            6.7980     4.8870    -1.3682 C.ar    
  16 C16            5.5456     4.3048    -1.3596 C.ar    
  17 C17            9.0592     5.2266    -2.3850 C.3     
  18 N18            9.0048     6.4824    -3.1451 N.3     
  19 C19           10.2455     7.2524    -2.9795 C.3     
  20 C20           10.1811     8.5114    -3.8476 C.3     
  21 N21            9.0118     9.3121    -3.4587 N.3     
  22 C22            7.7712     8.5421    -3.6243 C.3     
  23 C23            7.8355     7.2832    -2.7562 C.3     
  24 C24            8.9574    10.5680    -4.2188 C.3     
  25 C25           -1.1137    -1.0064    -0.1742 C.ar    
  26 C26            1.2719    -0.9134    -0.4363 C.ar    
  27 C27            1.3045    -2.2866    -0.6003 C.ar    
  28 C28            0.1344    -3.0237    -0.5498 C.ar    
  29 C29           -1.0737    -2.3919    -0.3400 C.ar    
  30 C30           -2.4051    -0.3226     0.0505 C.2     
  31 O31           -2.4505     0.8913     0.0940 O.2     
  32 N32           -3.5320    -1.0451     0.2070 N.am    
  33 C33           -4.8117    -0.3675     0.4297 C.3     
  34 C34           -6.0855    -1.1137     0.0278 C.3     
  35 C35           -5.7356    -0.9390     1.5070 C.3     
  36 H36           -0.5126     1.6783    -0.8689 H       
  37 H37           -0.4569     1.4693     0.8979 H       
  38 H38            3.9409     2.6242     2.0717 H       
  39 H39            3.4844     2.6015    -3.1878 H       
  40 H40            5.8225     2.4120    -4.1504 H       
  41 H41            8.0480     3.4626    -4.1609 H       
  42 H42            7.0751     5.5817    -0.5891 H       
  43 H43            4.8451     4.5407    -0.5722 H       
  44 H44            9.3696     5.4348    -1.3611 H       
  45 H45            9.7756     4.5503    -2.8514 H       
  46 H46           10.3599     7.5373    -1.9337 H       
  47 H47           11.0955     6.6427    -3.2857 H       
  48 H48           11.0881     9.0987    -3.7042 H       
  49 H49           10.0942     8.2261    -4.8960 H       
  50 H50            6.9211     9.1518    -3.3181 H       
  51 H51            7.6568     8.2572    -4.6701 H       
  52 H52            6.9286     6.6958    -2.8996 H       
  53 H53            7.9225     7.5684    -1.7078 H       
  54 H54            8.8901    10.3455    -5.2837 H       
  55 H55            8.0827    11.1411    -3.9114 H       
  56 H56            9.8590    11.1491    -4.0253 H       
  57 H57            2.1886    -0.3439    -0.4772 H       
  58 H58            2.2474    -2.7857    -0.7689 H       
  59 H59            0.1667    -4.0954    -0.6793 H       
  60 H60           -1.9862    -2.9683    -0.3008 H       
  61 H61           -3.4958    -2.0138     0.1723 H       
  62 H62           -4.7997     0.7145     0.2987 H       
  63 H63           -6.9117    -0.5225    -0.3672 H       
  64 H64           -5.9714    -2.1088    -0.4022 H       
  65 H65           -5.3914    -1.8192     2.0501 H       
  66 H66           -6.3316    -0.2329     2.0852 H       
@<TRIPOS>BOND
   1    1    2 1
   2    1    3 1
   3    1   36 1
   4    1   37 1
   5    2   25 ar
   6    2   26 ar
   7    3    4 ar
   8    3    5 ar
   9    4    8 ar
  10    5    6 ar
  11    5    9 1
  12    6    7 ar
  13    6   38 1
  14    7    8 ar
  15    8   10 1
  16   10   11 1
  17   10   39 1
  18   11   12 ar
  19   11   16 ar
  20   12   13 ar
  21   12   40 1
  22   13   14 ar
  23   13   41 1
  24   14   15 ar
  25   14   17 1
  26   15   16 ar
  27   15   42 1
  28   16   43 1
  29   17   18 1
  30   17   44 1
  31   17   45 1
  32   18   19 1
  33   18   23 1
  34   19   20 1
  35   19   46 1
  36   19   47 1
  37   20   21 1
  38   20   48 1
  39   20   49 1
  40   21   22 1
  41   21   24 1
  42   22   23 1
  43   22   50 1
  44   22   51 1
  45   23   52 1
  46   23   53 1
  47   24   54 1
  48   24   55 1
  49   24   56 1
  50   25   30 1
  51   25   29 ar
  52   26   27 ar
  53   26   57 1
  54   27   28 ar
  55   27   58 1
  56   28   29 ar
  57   28   59 1
  58   29   60 1
  59   30   31 2
  60   30   32 am
  61   32   33 1
  62   32   61 1
  63   33   34 1
  64   33   35 1
  65   33   62 1
  66   34   35 1
  67   34   63 1
  68   34   64 1
  69   35   65 1
  70   35   66 1

#	End of record

