#	Name: ASD11000020
#	Creating user name:	WinNT
#	Creation time:	15. 06. 2019 21:28

#	Modifying user name:	WinNT
#	Modification time:	15. 06. 2019 21:28

#	Program:	/corina/corina34_cracker 3.40 0067  02.08.2006

@<TRIPOS>MOLECULE
ASD11000020
  57   60    0    0    0
SMALL
NO_CHARGES


@<TRIPOS>ATOM
   1 C1             0.1111    -1.7719    -5.7305 C.ar    
   2 C2             0.4950    -2.7087    -4.7892 C.ar    
   3 C3            -0.1820    -2.7983    -3.5873 C.ar    
   4 C4            -1.2425    -1.9507    -3.3265 C.ar    
   5 C5            -1.6257    -1.0134    -4.2674 C.ar    
   6 C6            -0.9497    -0.9247    -5.4699 C.ar    
   7 C7             0.2358    -3.8202    -2.5615 C.3     
   8 C8             1.2858    -3.2093    -1.6314 C.3     
   9 C9             1.6212    -4.2037    -0.5180 C.3     
  10 N10            0.4076    -4.5060     0.2482 N.am    
  11 C11            2.1677    -5.4716    -1.1254 C.ar    
  12 C12            1.7100    -6.7190    -0.7626 C.ar    
  13 C13            3.1681    -5.3508    -2.0806 C.ar    
  14 C14            2.2646    -7.8514    -1.3470 C.ar    
  15 C15            3.2637    -7.7367    -2.2956 C.ar    
  16 C16            3.7178    -6.4753    -2.6688 C.ar    
  17 C17            0.4394    -5.6879     1.1256 C.3     
  18 C18            0.6073    -6.9236     0.2430 C.3     
  19 O19            4.6964    -6.3493    -3.6046 O.3     
  20 C20            5.1103    -5.0223    -3.9359 C.3     
  21 O21            3.7999    -8.8510    -2.8615 O.3     
  22 C22            3.2831   -10.1111    -2.4290 C.3     
  23 C23           -0.6921    -3.7327     0.1534 C.2     
  24 O24           -0.6547    -2.6984    -0.4841 O.2     
  25 C25           -1.9441    -4.1425     0.8247 C.ar    
  26 C26           -2.7052    -3.2031     1.5213 C.ar    
  27 C27           -3.8745    -3.5931     2.1465 C.ar    
  28 C28           -4.2899    -4.9133     2.0818 C.ar    
  29 C29           -3.5380    -5.8479     1.3925 C.ar    
  30 C30           -2.3724    -5.4695     0.7592 C.ar    
  31 F31           -4.6132    -2.6859     2.8221 F       
  32 H32            0.6429    -1.6989    -6.6677 H       
  33 H33            1.3235    -3.3708    -4.9930 H       
  34 H34           -1.7718    -2.0212    -2.3877 H       
  35 H35           -2.4544    -0.3515    -4.0638 H       
  36 H36           -1.2488    -0.1921    -6.2049 H       
  37 H37           -0.6328    -4.1255    -1.9781 H       
  38 H38            0.6586    -4.6892    -3.0657 H       
  39 H39            2.1876    -2.9831    -2.2003 H       
  40 H40            0.8931    -2.2919    -1.1929 H       
  41 H41            2.3692    -3.7679     0.1443 H       
  42 H42            3.5197    -4.3705    -2.3669 H       
  43 H43            1.9120    -8.8302    -1.0572 H       
  44 H44            1.2787    -5.6116     1.8169 H       
  45 H45           -0.4941    -5.7578     1.6841 H       
  46 H46           -0.3270    -7.1173    -0.2840 H       
  47 H47            0.8488    -7.7819     0.8701 H       
  48 H48            5.8938    -5.0642    -4.6924 H       
  49 H49            4.2595    -4.4627    -4.3246 H       
  50 H50            5.4933    -4.5277    -3.0432 H       
  51 H51            3.7958   -10.9148    -2.9575 H       
  52 H52            3.4439   -10.2210    -1.3565 H       
  53 H53            2.2154   -10.1588    -2.6430 H       
  54 H54           -2.3813    -2.1741     1.5721 H       
  55 H55           -5.2042    -5.2140     2.5717 H       
  56 H56           -3.8670    -6.8755     1.3461 H       
  57 H57           -1.7871    -6.2008     0.2217 H       
@<TRIPOS>BOND
   1    1    2 ar
   2    1    6 ar
   3    1   32 1
   4    2    3 ar
   5    2   33 1
   6    3    4 ar
   7    3    7 1
   8    4    5 ar
   9    4   34 1
  10    5    6 ar
  11    5   35 1
  12    6   36 1
  13    7    8 1
  14    7   37 1
  15    7   38 1
  16    8    9 1
  17    8   39 1
  18    8   40 1
  19    9   10 1
  20    9   11 1
  21    9   41 1
  22   10   17 1
  23   10   23 am
  24   11   12 ar
  25   11   13 ar
  26   12   14 ar
  27   12   18 1
  28   13   16 ar
  29   13   42 1
  30   14   15 ar
  31   14   43 1
  32   15   16 ar
  33   15   21 1
  34   16   19 1
  35   17   18 1
  36   17   44 1
  37   17   45 1
  38   18   46 1
  39   18   47 1
  40   19   20 1
  41   20   48 1
  42   20   49 1
  43   20   50 1
  44   21   22 1
  45   22   51 1
  46   22   52 1
  47   22   53 1
  48   23   24 2
  49   23   25 1
  50   25   26 ar
  51   25   30 ar
  52   26   27 ar
  53   26   54 1
  54   27   28 ar
  55   27   31 1
  56   28   29 ar
  57   28   55 1
  58   29   30 ar
  59   29   56 1
  60   30   57 1

#	End of record

