#	Name: ASD10410131
#	Creating user name:	WinNT
#	Creation time:	15. 06. 2019 21:26

#	Modifying user name:	WinNT
#	Modification time:	15. 06. 2019 21:26

#	Program:	/corina/corina34_cracker 3.40 0067  02.08.2006

@<TRIPOS>MOLECULE
ASD10410131
  53   56    0    0    0
SMALL
NO_CHARGES


@<TRIPOS>ATOM
   1 C1            -0.0134     1.8250     0.0510 C.ar    
   2 C2             0.0186     0.4385     0.0253 C.ar    
   3 C3             1.2349    -0.2283     0.0364 C.ar    
   4 C4             2.4151     0.4879     0.0736 C.ar    
   5 C5             2.3840     1.8761     0.0993 C.ar    
   6 C6             1.1658     2.5428     0.0877 C.ar    
   7 O7            -1.1431    -0.2675    -0.0103 O.3     
   8 N8             3.5797     2.6028     0.1374 N.pl3   
   9 C9             3.6515     3.8596    -0.4635 C.2     
  10 N10            4.6829     4.6682    -0.4164 N.2     
  11 N11            2.6811     4.4320    -1.1857 N.2     
  12 C12            3.0788     5.6147    -1.6035 C.2     
  13 N13            4.3370     5.8167    -1.1466 N.pl3   
  14 C14            5.1332     6.9440    -1.3594 C.ar    
  15 N15            2.3432     6.4939    -2.3752 N.pl3   
  16 C16            6.1405     7.2555    -0.4548 C.ar    
  17 C17           -1.0359    -1.6923    -0.0353 C.3     
  18 C18           -2.4358    -2.3085    -0.0738 C.3     
  19 N19           -3.1139    -1.9062    -1.3132 N.3     
  20 C20           -4.4266    -2.5542    -1.4290 C.3     
  21 N21            4.9244     7.7026    -2.4241 N.ar    
  22 C22            5.6541     8.7761    -2.6628 C.ar    
  23 C23            6.6703     9.1479    -1.8013 C.ar    
  24 C24            6.9235     8.3756    -0.6771 C.ar    
  25 C25           -5.1629    -2.0031    -2.6522 C.3     
  26 C26           -4.3282    -2.2707    -3.9077 C.3     
  27 C27           -2.9492    -1.6264    -3.7412 C.3     
  28 C28           -2.2771    -2.1884    -2.4864 C.3     
  29 Cl29           5.3350     9.7329    -4.0758 Cl      
  30 H30           -0.9608     2.3434     0.0378 H       
  31 H31            1.2589    -1.3078     0.0164 H       
  32 H32            3.3620    -0.0315     0.0829 H       
  33 H33            1.1406     3.6223     0.1074 H       
  34 H34            4.3584     2.2324     0.5816 H       
  35 H35            1.4457     6.2577    -2.6572 H       
  36 H36            2.7244     7.3472    -2.6349 H       
  37 H37            6.3105     6.6322     0.4107 H       
  38 H38           -0.4793    -1.9993    -0.9207 H       
  39 H39           -0.5134    -2.0330     0.8586 H       
  40 H40           -2.3555    -3.3950    -0.0397 H       
  41 H41           -3.0101    -1.9595     0.7844 H       
  42 H42           -4.2919    -3.6301    -1.5405 H       
  43 H43           -5.0116    -2.3526    -0.5317 H       
  44 H44            7.2629    10.0278    -2.0038 H       
  45 H45            7.7112     8.6442     0.0113 H       
  46 H46           -6.1307    -2.4956    -2.7469 H       
  47 H47           -5.3101    -0.9295    -2.5352 H       
  48 H48           -4.2136    -3.3457    -4.0466 H       
  49 H49           -4.8283    -1.8416    -4.7759 H       
  50 H50           -2.3354    -1.8497    -4.6138 H       
  51 H51           -3.0616    -0.5468    -3.6413 H       
  52 H52           -1.3009    -1.7211    -2.3571 H       
  53 H53           -2.1525    -3.2660    -2.5929 H       
@<TRIPOS>BOND
   1    1    2 ar
   2    1    6 ar
   3    1   30 1
   4    2    3 ar
   5    2    7 1
   6    3    4 ar
   7    3   31 1
   8    4    5 ar
   9    4   32 1
  10    5    6 ar
  11    5    8 1
  12    6   33 1
  13    7   17 1
  14    8    9 1
  15    8   34 1
  16    9   10 2
  17    9   11 1
  18   10   13 1
  19   11   12 2
  20   12   13 1
  21   12   15 1
  22   13   14 1
  23   14   16 ar
  24   14   21 ar
  25   15   35 1
  26   15   36 1
  27   16   24 ar
  28   16   37 1
  29   17   18 1
  30   17   38 1
  31   17   39 1
  32   18   19 1
  33   18   40 1
  34   18   41 1
  35   19   20 1
  36   19   28 1
  37   20   25 1
  38   20   42 1
  39   20   43 1
  40   21   22 ar
  41   22   23 ar
  42   22   29 1
  43   23   24 ar
  44   23   44 1
  45   24   45 1
  46   25   26 1
  47   25   46 1
  48   25   47 1
  49   26   27 1
  50   26   48 1
  51   26   49 1
  52   27   28 1
  53   27   50 1
  54   27   51 1
  55   28   52 1
  56   28   53 1

#	End of record

