#	Name: ASD11710012
#	Creating user name:	WinNT
#	Creation time:	15. 06. 2019 21:29

#	Modifying user name:	WinNT
#	Modification time:	15. 06. 2019 21:29

#	Program:	/corina/corina34_cracker 3.40 0067  02.08.2006

@<TRIPOS>MOLECULE
ASD11710012
  51   53    0    0    0
SMALL
NO_CHARGES


@<TRIPOS>ATOM
   1 C1             2.9652     5.4276     2.6481 C.ar    
   2 C2             2.0798     6.4883     2.6913 C.ar    
   3 C3             1.0290     6.5484     1.7952 C.ar    
   4 C4             0.8639     5.5480     0.8555 C.ar    
   5 C5             1.7498     4.4878     0.8118 C.ar    
   6 C6             2.7998     4.4270     1.7088 C.ar    
   7 C7             1.5695     3.3969    -0.2123 C.3     
   8 N8             2.3057     3.7441    -1.4303 N.am    
   9 C9             3.5887     3.3578    -1.5754 C.2     
  10 C10            4.2991     3.6156    -2.8462 C.ar    
  11 O11            4.1619     2.7976    -0.6615 O.2     
  12 C12            4.0332     4.7758    -3.5750 C.ar    
  13 C13            5.2428     2.7025    -3.3193 C.ar    
  14 C14            5.9025     2.9492    -4.5055 C.ar    
  15 C15            5.6308     4.0990    -5.2256 C.ar    
  16 C16            4.7000     5.0105    -4.7597 C.ar    
  17 S17            6.4787     4.4070    -6.7391 S.o2    
  18 N18            5.5092     3.8586    -7.9645 N.am    
  19 C19            5.1763     2.5042    -8.0388 C.ar    
  20 C20            3.8629     2.1233    -8.2782 C.ar    
  21 C21            6.1600     1.5363    -7.8787 C.ar    
  22 C22            5.8305     0.1966    -7.9522 C.ar    
  23 C23            4.5228    -0.1842    -8.1848 C.ar    
  24 C24            3.5366     0.7785    -8.3511 C.ar    
  25 O25            6.5453     5.8193    -6.8815 O.2     
  26 O26            7.6281     3.5715    -6.7323 O.2     
  27 O27            2.2509     0.4023    -8.5799 O.3     
  28 C28            1.9859    -1.0007    -8.6367 C.3     
  29 C29            1.6472     4.5110    -2.4907 C.3     
  30 H30            3.7888     5.3830     3.3453 H       
  31 H31            2.2088     7.2699     3.4254 H       
  32 H32            0.3368     7.3767     1.8294 H       
  33 H33            0.0425     5.5945     0.1559 H       
  34 H34            3.4922     3.5988     1.6744 H       
  35 H35            1.9505     2.4570     0.1872 H       
  36 H36            0.5103     3.2895    -0.4461 H       
  37 H37            3.3069     5.4882    -3.2124 H       
  38 H38            5.4564     1.8049    -2.7578 H       
  39 H39            6.6330     2.2435    -4.8727 H       
  40 H40            4.4924     5.9061    -5.3266 H       
  41 H41            5.1725     4.4780    -8.6307 H       
  42 H42            3.0969     2.8737    -8.4071 H       
  43 H43            7.1830     1.8313    -7.6972 H       
  44 H44            6.5965    -0.5544    -7.8279 H       
  45 H45            4.2684    -1.2322    -8.2420 H       
  46 H46            2.5696    -1.4485    -9.4410 H       
  47 H47            2.2614    -1.4613    -7.6880 H       
  48 H48            0.9245    -1.1627    -8.8245 H       
  49 H49            1.8204     5.5752    -2.3305 H       
  50 H50            2.0554     4.2181    -3.4580 H       
  51 H51            0.5760     4.3104    -2.4726 H       
@<TRIPOS>BOND
   1    1    2 ar
   2    1    6 ar
   3    1   30 1
   4    2    3 ar
   5    2   31 1
   6    3    4 ar
   7    3   32 1
   8    4    5 ar
   9    4   33 1
  10    5    6 ar
  11    5    7 1
  12    6   34 1
  13    7    8 1
  14    7   35 1
  15    7   36 1
  16    8    9 am
  17    8   29 1
  18    9   10 1
  19    9   11 2
  20   10   12 ar
  21   10   13 ar
  22   12   16 ar
  23   12   37 1
  24   13   14 ar
  25   13   38 1
  26   14   15 ar
  27   14   39 1
  28   15   16 ar
  29   15   17 1
  30   16   40 1
  31   17   18 am
  32   17   25 2
  33   17   26 2
  34   18   19 1
  35   18   41 1
  36   19   20 ar
  37   19   21 ar
  38   20   24 ar
  39   20   42 1
  40   21   22 ar
  41   21   43 1
  42   22   23 ar
  43   22   44 1
  44   23   24 ar
  45   23   45 1
  46   24   27 1
  47   27   28 1
  48   28   46 1
  49   28   47 1
  50   28   48 1
  51   29   49 1
  52   29   50 1
  53   29   51 1

#	End of record

