#	Name: ASD11000063
#	Creating user name:	WinNT
#	Creation time:	15. 06. 2019 21:28

#	Modifying user name:	WinNT
#	Modification time:	15. 06. 2019 21:28

#	Program:	/corina/corina34_cracker 3.40 0067  02.08.2006

@<TRIPOS>MOLECULE
ASD11000063
  33   35    0    0    0
SMALL
NO_CHARGES


@<TRIPOS>ATOM
   1 C1            -0.0167     1.3802     0.0096 C.ar    
   2 C2             0.0021    -0.0041     0.0020 C.ar    
   3 C3            -1.1811    -0.7128     0.0100 C.ar    
   4 C4            -2.3995    -0.0311     0.0257 C.ar    
   5 C5            -2.4116     1.3650     0.0333 C.ar    
   6 C6            -1.2214     2.0620     0.0306 C.ar    
   7 C7            -3.6708    -0.7841     0.0338 C.2     
   8 O8            -3.6574    -1.9997     0.0268 O.2     
   9 N9            -4.8454    -0.1233     0.0490 N.am    
  10 C10           -6.0369    -0.8290     0.0566 C.2     
  11 C11           -7.2769    -0.2574     0.0720 C.2     
  12 C12           -8.3625    -1.2345     0.0770 C.2     
  13 C13           -7.9178    -2.4876     0.0655 C.2     
  14 S14           -6.1551    -2.5257     0.0408 S.3     
  15 C15           -7.4963     1.1902     0.0831 C.2     
  16 O16           -7.5857     1.8497     1.2563 O.3     
  17 O17           -7.5979     1.7980    -0.9657 O.2     
  18 I18            1.7858     2.4478    -0.0018 I       
  19 C19           -9.8885    -1.2161     0.0926 C.3     
  20 C20          -10.3070    -2.6299    -0.3585 C.3     
  21 C21           -9.0854    -3.4671     0.0712 C.3     
  22 H22            0.9452    -0.5301    -0.0105 H       
  23 H23           -1.1651    -1.7926     0.0037 H       
  24 H24           -3.3508     1.8981     0.0456 H       
  25 H25           -1.2294     3.1419     0.0364 H       
  26 H26           -4.8561     0.8466     0.0547 H       
  27 H27           -7.7309     2.8048     1.2130 H       
  28 H28          -10.2549    -1.0154     1.0993 H       
  29 H29          -10.2657    -0.4685    -0.6051 H       
  30 H30          -11.2069    -2.9558     0.1630 H       
  31 H31          -10.4473    -2.6697    -1.4387 H       
  32 H32           -8.9082    -4.2726    -0.6414 H       
  33 H33           -9.2361    -3.8716     1.0721 H       
@<TRIPOS>BOND
   1    1    2 ar
   2    1   18 1
   3    1    6 ar
   4    2    3 ar
   5    2   22 1
   6    3    4 ar
   7    3   23 1
   8    4    5 ar
   9    4    7 1
  10    5    6 ar
  11    5   24 1
  12    6   25 1
  13    7    8 2
  14    7    9 am
  15    9   10 1
  16    9   26 1
  17   10   11 2
  18   10   14 1
  19   11   12 1
  20   11   15 1
  21   12   13 2
  22   12   19 1
  23   13   14 1
  24   13   21 1
  25   15   16 1
  26   15   17 2
  27   16   27 1
  28   19   20 1
  29   19   28 1
  30   19   29 1
  31   20   21 1
  32   20   30 1
  33   20   31 1
  34   21   32 1
  35   21   33 1

#	End of record

