#	Name: ASD10420097
#	Creating user name:	WinNT
#	Creation time:	15. 06. 2019 21:27

#	Modifying user name:	WinNT
#	Modification time:	15. 06. 2019 21:27

#	Program:	/corina/corina34_cracker 3.40 0067  02.08.2006

@<TRIPOS>MOLECULE
ASD10420097
  81   86    0    0    0
SMALL
NO_CHARGES


@<TRIPOS>ATOM
   1 N1            -0.1365     0.2550    -0.6120 N.pl3   
   2 C2            -0.5462    -0.9744    -1.0530 C.2     
   3 C3            -1.9518    -0.9729    -1.1068 C.2     
   4 C4            -2.3806     0.2860    -0.6881 C.2     
   5 C5            -1.2533     1.0353    -0.3909 C.2     
   6 C6             1.1941     0.5226    -0.4685 C.2     
   7 C7             2.1224    -0.4156    -0.7574 C.2     
   8 C8             1.7296    -1.6832    -1.2114 C.2     
   9 C9             0.4030    -1.9626    -1.3575 C.2     
  10 C10           -1.2484     2.3746     0.0714 C.2     
  11 O11           -1.2707     2.6063     1.2670 O.2     
  12 C12           -3.8106     0.7498    -0.5830 C.3     
  13 C13           -4.3296     0.4676     0.8033 C.ar    
  14 C14           -4.5072     1.5053     1.6989 C.ar    
  15 C15           -4.6333    -0.8280     1.1770 C.ar    
  16 C16           -5.1096    -1.0884     2.4486 C.ar    
  17 C17           -5.2830    -0.0533     3.3474 C.ar    
  18 C18           -2.8156    -2.0989    -1.5300 C.ar    
  19 C19           -2.8507    -3.2748    -0.7804 C.ar    
  20 C20           -3.6578    -4.3202    -1.1796 C.ar    
  21 C21           -4.4314    -4.2039    -2.3208 C.ar    
  22 C22           -4.4006    -3.0404    -3.0688 C.ar    
  23 C23           -3.6018    -1.9858    -2.6768 C.ar    
  24 C24           -4.1823     2.9187     1.2891 C.3     
  25 C25           -4.9840     1.2459     2.9725 C.ar    
  26 F26           -5.1527     2.2587     3.8505 F       
  27 N27           -1.2189     3.3922    -0.8118 N.am    
  28 C28           -1.3291     4.7875    -0.3598 C.3     
  29 C29           -0.1754     5.5897    -0.9712 C.3     
  30 N30           -0.1746     5.4072    -2.4288 N.3     
  31 C31            0.0679     4.0041    -2.7900 C.3     
  32 C32           -1.0697     3.1372    -2.2526 C.3     
  33 C33           -0.3547     7.0732    -0.6425 C.3     
  34 C34            0.8412     7.8454    -1.1373 C.2     
  35 N35            0.9034     9.1796    -0.9571 N.am    
  36 O36            1.7475     7.2662    -1.6976 O.2     
  37 N37            2.7895    11.6760    -2.9933 N.3     
  38 C38            1.6116    10.9785    -2.4572 C.3     
  39 C39            2.0659     9.9303    -1.4380 C.3     
  40 O40            2.9882     9.0335    -2.0629 O.3     
  41 C41            4.1477     9.6793    -2.5958 C.3     
  42 C42            3.7145    10.7250    -3.6266 C.3     
  43 C43           -0.1915     9.8792    -0.2802 C.3     
  44 H44            1.5085     1.4954    -0.1204 H       
  45 H45            3.1715    -0.1883    -0.6387 H       
  46 H46            2.4723    -2.4325    -1.4428 H       
  47 H47            0.0857    -2.9344    -1.7059 H       
  48 H48           -3.8605     1.8209    -0.7787 H       
  49 H49           -4.4196     0.2181    -1.3142 H       
  50 H50           -4.4988    -1.6376     0.4749 H       
  51 H51           -5.3465    -2.1011     2.7394 H       
  52 H52           -5.6557    -0.2568     4.3404 H       
  53 H53           -2.2470    -3.3669     0.1104 H       
  54 H54           -3.6856    -5.2312    -0.6003 H       
  55 H55           -5.0616    -5.0249    -2.6293 H       
  56 H56           -5.0061    -2.9558    -3.9590 H       
  57 H57           -3.5787    -1.0780    -3.2614 H       
  58 H58           -5.0428     3.3574     0.7839 H       
  59 H59           -3.9417     3.5075     2.1743 H       
  60 H60           -3.3275     2.9135     0.6128 H       
  61 H61           -2.2804     5.2051    -0.6894 H       
  62 H62           -1.2661     4.8261     0.7276 H       
  63 H63            0.7706     5.2374    -0.5600 H       
  64 H64           -1.0353     5.7417    -2.8355 H       
  65 H65            0.1166     3.9110    -3.8749 H       
  66 H66            1.0105     3.6738    -2.3535 H       
  67 H67           -0.8352     2.0853    -2.4159 H       
  68 H68           -1.9956     3.3931    -2.7676 H       
  69 H69           -1.2554     7.4470    -1.1294 H       
  70 H70           -0.4466     7.1978     0.4364 H       
  71 H71            2.5171    12.4009    -3.6402 H       
  72 H72            0.9529    11.6978    -1.9705 H       
  73 H73            1.0776    10.4876    -3.2709 H       
  74 H74            2.5526    10.4261    -0.5982 H       
  75 H75            4.6950    10.1678    -1.7896 H       
  76 H76            4.7885     8.9392    -3.0752 H       
  77 H77            3.2142    10.2300    -4.4590 H       
  78 H78            4.5909    11.2592    -3.9936 H       
  79 H79            0.0040     9.9088     0.7917 H       
  80 H80           -0.2650    10.8966    -0.6644 H       
  81 H81           -1.1279     9.3527    -0.4644 H       
@<TRIPOS>BOND
   1    1    2 1
   2    1    6 1
   3    1    5 1
   4    2    3 2
   5    2    9 1
   6    3    4 1
   7    3   18 1
   8    4    5 2
   9    4   12 1
  10    5   10 1
  11    6    7 2
  12    6   44 1
  13    7    8 1
  14    7   45 1
  15    8    9 2
  16    8   46 1
  17    9   47 1
  18   10   11 2
  19   10   27 am
  20   12   13 1
  21   12   48 1
  22   12   49 1
  23   13   14 ar
  24   13   15 ar
  25   14   24 1
  26   14   25 ar
  27   15   16 ar
  28   15   50 1
  29   16   17 ar
  30   16   51 1
  31   17   25 ar
  32   17   52 1
  33   18   19 ar
  34   18   23 ar
  35   19   20 ar
  36   19   53 1
  37   20   21 ar
  38   20   54 1
  39   21   22 ar
  40   21   55 1
  41   22   23 ar
  42   22   56 1
  43   23   57 1
  44   24   58 1
  45   24   59 1
  46   24   60 1
  47   25   26 1
  48   27   28 1
  49   27   32 1
  50   28   29 1
  51   28   61 1
  52   28   62 1
  53   29   30 1
  54   29   33 1
  55   29   63 1
  56   30   31 1
  57   30   64 1
  58   31   32 1
  59   31   65 1
  60   31   66 1
  61   32   67 1
  62   32   68 1
  63   33   34 1
  64   33   69 1
  65   33   70 1
  66   34   35 am
  67   34   36 2
  68   35   43 1
  69   35   39 1
  70   37   38 1
  71   37   42 1
  72   37   71 1
  73   38   39 1
  74   38   72 1
  75   38   73 1
  76   39   40 1
  77   39   74 1
  78   40   41 1
  79   41   42 1
  80   41   75 1
  81   41   76 1
  82   42   77 1
  83   42   78 1
  84   43   79 1
  85   43   80 1
  86   43   81 1

#	End of record

