#	Name: ASD12970015
#	Creating user name:	WinNT
#	Creation time:	15. 06. 2019 21:30

#	Modifying user name:	WinNT
#	Modification time:	15. 06. 2019 21:30

#	Program:	/corina/corina34_cracker 3.40 0067  02.08.2006

@<TRIPOS>MOLECULE
ASD12970015
  15   14    0    0    0
SMALL
NO_CHARGES


@<TRIPOS>ATOM
   1 C1            -0.0187     1.5258     0.0104 C.3     
   2 C2             0.0021    -0.0041     0.0020 C.3     
   3 C3            -1.4333    -0.5336     0.0129 C.3     
   4 C4            -1.4126    -2.0635     0.0045 C.3     
   5 O5            -2.7532    -2.5581     0.0146 O.3     
   6 H6             1.0039     1.9031     0.0027 H       
   7 H7            -0.5459     1.8868    -0.8726 H       
   8 H8            -0.5289     1.8773     0.9072 H       
   9 H9             0.5123    -0.3556    -0.8948 H       
  10 H10            0.5293    -0.3651     0.8851 H       
  11 H11           -1.9435    -0.1821     0.9097 H       
  12 H12           -1.9605    -0.1726    -0.8702 H       
  13 H13           -0.9024    -2.4150    -0.8923 H       
  14 H14           -0.8854    -2.4246     0.8875 H       
  15 H15           -2.8165    -3.5230     0.0100 H       
@<TRIPOS>BOND
   1    1    2 1
   2    1    6 1
   3    1    7 1
   4    1    8 1
   5    2    3 1
   6    2    9 1
   7    2   10 1
   8    3    4 1
   9    3   11 1
  10    3   12 1
  11    4    5 1
  12    4   13 1
  13    4   14 1
  14    5   15 1

#	End of record

