#	Name: ASD10160429
#	Creating user name:	WinNT
#	Creation time:	15. 06. 2019 21:25

#	Modifying user name:	WinNT
#	Modification time:	15. 06. 2019 21:25

#	Program:	/corina/corina34_cracker 3.40 0067  02.08.2006

@<TRIPOS>MOLECULE
ASD10160429
  25   26    0    0    0
SMALL
NO_CHARGES


@<TRIPOS>ATOM
   1 C1            -0.3993     1.1088    -1.9440 C.2     
   2 C2            -0.2792    -0.2696    -1.4385 C.ar    
   3 C3             0.9052    -0.9903    -1.6376 C.ar    
   4 C4             1.0123    -2.2812    -1.1613 C.ar    
   5 C5            -0.0519    -2.8645    -0.4860 C.ar    
   6 C6            -1.2305    -2.1513    -0.2863 C.ar    
   7 C7            -1.3453    -0.8609    -0.7530 C.ar    
   8 O8             0.5301     1.6224    -2.5350 O.2     
   9 O9            -1.5419     1.7983    -1.7561 O.3     
  10 F10            1.9404    -0.4232    -2.2949 F       
  11 O11            0.0574    -4.1342    -0.0197 O.3     
  12 C12            1.5457    -5.5230    -1.2594 C.ar    
  13 C13            1.2599    -4.7568    -0.1396 C.ar    
  14 C14            2.2205    -4.6332     0.8596 C.ar    
  15 C15            3.4318    -5.2855     0.6934 C.ar    
  16 C16            3.6447    -6.0338    -0.4541 C.ar    
  17 N17            2.7107    -6.1290    -1.3822 N.ar    
  18 F18            4.8225    -6.6733    -0.6247 F       
  19 Cl19           4.6677    -5.1666     1.9068 Cl      
  20 Cl20          -2.5559    -2.8878     0.5589 Cl      
  21 H21            1.9247    -2.8386    -1.3142 H       
  22 H22           -2.2590    -0.3076    -0.5935 H       
  23 H23           -1.5735     2.6993    -2.1057 H       
  24 H24            0.8044    -5.6282    -2.0377 H       
  25 H25            2.0269    -4.0428     1.7430 H       
@<TRIPOS>BOND
   1    1    2 1
   2    1    8 2
   3    1    9 1
   4    2    3 ar
   5    2    7 ar
   6    3    4 ar
   7    3   10 1
   8    4    5 ar
   9    4   21 1
  10    5    6 ar
  11    5   11 1
  12    6    7 ar
  13    6   20 1
  14    7   22 1
  15    9   23 1
  16   11   13 1
  17   12   13 ar
  18   12   17 ar
  19   12   24 1
  20   13   14 ar
  21   14   15 ar
  22   14   25 1
  23   15   16 ar
  24   15   19 1
  25   16   17 ar
  26   16   18 1

#	End of record

