#	Name: ASD10100002
#	Creating user name:	WinNT
#	Creation time:	15. 06. 2019 21:24

#	Modifying user name:	WinNT
#	Modification time:	15. 06. 2019 21:24

#	Program:	/corina/corina34_cracker 3.40 0067  02.08.2006

@<TRIPOS>MOLECULE
ASD10100002
  32   34    0    0    0
SMALL
NO_CHARGES


@<TRIPOS>ATOM
   1 C1             0.1952     1.4940    -0.2482 C.2     
   2 N2             0.2148     0.1703    -0.4897 N.am    
   3 C3             1.3503    -0.5366    -0.3207 C.2     
   4 C4             2.5275     0.1288     0.1152 C.2     
   5 C5             2.4798     1.4604     0.3508 C.2     
   6 N6             1.3005     2.1401     0.1651 N.am    
   7 O7            -0.8366     2.1169    -0.4108 O.2     
   8 O8             1.3666    -1.7346    -0.5392 O.2     
   9 C9             1.2461     3.5819     0.4190 C.3     
  10 C10            1.3028     4.3250    -0.8908 C.ar    
  11 C11            0.1354     4.6171    -1.5709 C.ar    
  12 C12            0.1875     5.2988    -2.7724 C.ar    
  13 C13            1.4070     5.6888    -3.2935 C.ar    
  14 C14            2.5744     5.3975    -2.6129 C.ar    
  15 C15            2.5220     4.7196    -1.4093 C.ar    
  16 O16            3.7158     3.6187     0.7167 O.3     
  17 C17            3.7124     2.1930     0.8144 C.3     
  18 C18            3.5844     3.0984     2.0411 C.3     
  19 N19            3.7249    -0.5863     0.2997 N.pl3   
  20 H20           -0.5926    -0.2777    -0.7868 H       
  21 H21            0.3172     3.8252     0.9348 H       
  22 H22            2.0934     3.8738     1.0394 H       
  23 H23           -0.8174     4.3124    -1.1638 H       
  24 H24           -0.7246     5.5264    -3.3041 H       
  25 H25            1.4477     6.2207    -4.2325 H       
  26 H26            3.5272     5.7019    -3.0202 H       
  27 H27            3.4338     4.4953    -0.8758 H       
  28 H28            4.6575     1.6713     0.6636 H       
  29 H29            4.4448     3.1779     2.7057 H       
  30 H30            2.6080     3.1696     2.5202 H       
  31 H31            3.7509    -1.5408     0.1290 H       
  32 H32            4.5244    -0.1248     0.5975 H       
@<TRIPOS>BOND
   1    1    2 am
   2    1    6 am
   3    1    7 2
   4    2    3 am
   5    2   20 1
   6    3    4 1
   7    3    8 2
   8    4    5 2
   9    4   19 1
  10    5    6 1
  11    5   17 1
  12    6    9 1
  13    9   10 1
  14    9   21 1
  15    9   22 1
  16   10   11 ar
  17   10   15 ar
  18   11   12 ar
  19   11   23 1
  20   12   13 ar
  21   12   24 1
  22   13   14 ar
  23   13   25 1
  24   14   15 ar
  25   14   26 1
  26   15   27 1
  27   16   17 1
  28   16   18 1
  29   17   18 1
  30   17   28 1
  31   18   29 1
  32   18   30 1
  33   19   31 1
  34   19   32 1

#	End of record

