#	Name: ASD11320004
#	Creating user name:	WinNT
#	Creation time:	15. 06. 2019 21:29

#	Modifying user name:	WinNT
#	Modification time:	15. 06. 2019 21:29

#	Program:	/corina/corina34_cracker 3.40 0067  02.08.2006

@<TRIPOS>MOLECULE
ASD11320004
  39   42    0    0    0
SMALL
NO_CHARGES


@<TRIPOS>ATOM
   1 O1            -2.4122     3.6486    -0.9638 O.2     
   2 C2            -1.3367     3.0908    -0.9076 C.2     
   3 C3            -0.0755     3.8525    -1.2239 C.3     
   4 C4            -0.2180     5.3263    -1.6092 C.3     
   5 C5             0.3550     4.9448    -0.2428 C.3     
   6 N6            -1.2691     1.7912    -0.5569 N.am    
   7 C7            -2.4206     1.1169    -0.1572 C.ar    
   8 C8            -2.3707    -0.2525     0.0987 C.ar    
   9 N9            -3.4564    -0.8976     0.4775 N.ar    
  10 C10           -4.6052    -0.2437     0.6175 C.ar    
  11 C11           -4.6591     1.1362     0.3610 C.ar    
  12 N12           -3.5595     1.7801    -0.0159 N.ar    
  13 C13           -5.9361     1.8719     0.5145 C.ar    
  14 C14           -5.9688     3.1120     1.1597 C.ar    
  15 C15           -7.1869     3.7590     1.2769 C.ar    
  16 C16           -8.3219     3.1641     0.7570 C.ar    
  17 N17           -8.2604     1.9927     0.1532 N.ar    
  18 C18           -7.1242     1.3417     0.0128 C.ar    
  19 C19           -5.8252    -0.9683     1.0426 C.ar    
  20 C20           -6.5776    -0.5290     2.1362 C.ar    
  21 C21           -7.7073    -1.2337     2.4983 C.ar    
  22 N22           -8.0808    -2.3072     1.8291 N.ar    
  23 C23           -7.4015    -2.7570     0.7916 C.ar    
  24 C24           -6.2606    -2.1093     0.3565 C.ar    
  25 F25           -5.5700    -2.5758    -0.7068 F       
  26 H26            0.7103     3.2779    -1.7143 H       
  27 H27            0.4742     5.7214    -2.3528 H       
  28 H28           -1.2241     5.7450    -1.6340 H       
  29 H29           -0.2741     5.1125     0.6314 H       
  30 H30            1.4242     5.0889    -0.0875 H       
  31 H31           -0.4187     1.3255    -0.5829 H       
  32 H32           -1.4391    -0.7872    -0.0140 H       
  33 H33           -5.0667     3.5535     1.5569 H       
  34 H34           -7.2503     4.7181     1.7694 H       
  35 H35           -9.2738     3.6662     0.8471 H       
  36 H36           -7.1139     0.3849    -0.4880 H       
  37 H37           -6.2785     0.3488     2.6898 H       
  38 H38           -8.2941    -0.9016     3.3420 H       
  39 H39           -7.7435    -3.6405     0.2729 H       
@<TRIPOS>BOND
   1    1    2 2
   2    2    3 1
   3    2    6 am
   4    3    4 1
   5    3    5 1
   6    3   26 1
   7    4    5 1
   8    4   27 1
   9    4   28 1
  10    5   29 1
  11    5   30 1
  12    6    7 1
  13    6   31 1
  14    7    8 ar
  15    7   12 ar
  16    8    9 ar
  17    8   32 1
  18    9   10 ar
  19   10   11 ar
  20   10   19 1
  21   11   12 ar
  22   11   13 1
  23   13   14 ar
  24   13   18 ar
  25   14   15 ar
  26   14   33 1
  27   15   16 ar
  28   15   34 1
  29   16   17 ar
  30   16   35 1
  31   17   18 ar
  32   18   36 1
  33   19   20 ar
  34   19   24 ar
  35   20   21 ar
  36   20   37 1
  37   21   22 ar
  38   21   38 1
  39   22   23 ar
  40   23   24 ar
  41   23   39 1
  42   24   25 1

#	End of record

