#	Name: ASD14350004
#	Creating user name:	WinNT
#	Creation time:	15. 06. 2019 21:31

#	Modifying user name:	WinNT
#	Modification time:	15. 06. 2019 21:31

#	Program:	/corina/corina34_cracker 3.40 0067  02.08.2006

@<TRIPOS>MOLECULE
ASD14350004
  63   67    0    0    0
SMALL
NO_CHARGES


@<TRIPOS>ATOM
   1 C1            -0.0165     1.3621     0.0095 C.ar    
   2 C2             0.0021    -0.0041     0.0020 C.ar    
   3 C3             1.2092    -0.6932    -0.0132 C.ar    
   4 O4            11.3910     2.8838    -2.9291 O.3     
   5 C5             5.3364     1.1483     0.8756 C.ar    
   6 C6             6.6930     0.8963     0.8331 C.ar    
   7 C7             6.9829     2.3676    -0.9263 C.ar    
   8 C8             5.6247     2.6650    -0.9530 C.ar    
   9 C9             7.8971     3.0189    -1.8965 C.ar    
  10 C10            9.2354     2.6392    -1.9581 C.ar    
  11 C11           10.0841     3.2512    -2.8662 C.ar    
  12 C12            9.5999     4.2398    -3.7114 C.ar    
  13 C13            8.2712     4.6171    -3.6506 C.ar    
  14 C14            7.4175     4.0086    -2.7529 C.ar    
  15 C15           12.2086     3.5565    -3.8888 C.3     
  16 C16           -0.8864     5.9797     1.4442 C.3     
  17 C17           -1.3704     6.1692     2.8832 C.3     
  18 C18           -0.1949     6.5964     3.7645 C.3     
  19 C19           -0.6788     6.7860     5.2035 C.3     
  20 C20           -1.7619     7.8661     5.2392 C.3     
  21 C21           -2.9374     7.4389     4.3579 C.3     
  22 C22           -2.4535     7.2493     2.9189 C.3     
  23 C23            4.7814     2.0498    -0.0322 C.ar    
  24 C24            2.4080    -0.0098    -0.0210 C.ar    
  25 C25            1.1854     2.0724     0.0019 C.ar    
  26 C26            2.4100     1.3808    -0.0135 C.ar    
  27 C27            2.8632     3.5851    -0.0060 C.2     
  28 C28            1.5244     3.4986     0.0063 C.2     
  29 C29            0.5525     4.6502     0.0213 C.3     
  30 F30            1.2088    -2.0441    -0.0200 F       
  31 N31            3.4123     2.3284    -0.0180 N.pl3   
  32 N32            0.0655     4.8621     1.3909 N.3     
  33 N33            7.4675     1.4984    -0.0474 N.ar    
  34 H34           -0.9581     1.8910     0.0169 H       
  35 H35           -0.9282    -0.5527     0.0083 H       
  36 H36            4.7110     0.6495     1.6011 H       
  37 H37            7.1261     0.1957     1.5316 H       
  38 H38            5.2323     3.3725    -1.6684 H       
  39 H39            9.6109     1.8700    -1.2995 H       
  40 H40           10.2630     4.7160    -4.4185 H       
  41 H41            7.8993     5.3872    -4.3103 H       
  42 H42            6.3790     4.3022    -2.7111 H       
  43 H43           13.2260     3.1692    -3.8345 H       
  44 H44           11.8086     3.3881    -4.8886 H       
  45 H45           12.2149     4.6254    -3.6752 H       
  46 H46           -1.7384     5.7623     0.8000 H       
  47 H47           -0.3960     6.8912     1.1027 H       
  48 H48           -1.7810     5.2305     3.2551 H       
  49 H49            0.5767     5.8269     3.7391 H       
  50 H50            0.2157     7.5351     3.3926 H       
  51 H51           -1.0894     5.8473     5.5754 H       
  52 H52            0.1586     7.0903     5.8314 H       
  53 H53           -2.1067     8.0011     6.2644 H       
  54 H54           -1.3513     8.8048     4.8673 H       
  55 H55           -3.3480     6.5002     4.7298 H       
  56 H56           -3.7090     8.2084     4.3834 H       
  57 H57           -2.0429     8.1880     2.5470 H       
  58 H58           -3.2909     6.9450     2.2911 H       
  59 H59            3.3414    -0.5530    -0.0325 H       
  60 H60            3.4251     4.5074    -0.0068 H       
  61 H61            1.0529     5.5525    -0.3300 H       
  62 H62           -0.2895     4.4236    -0.6327 H       
  63 H63           -0.3455     4.0190     1.7631 H       
@<TRIPOS>BOND
   1    1    2 ar
   2    1   25 ar
   3    1   34 1
   4    2    3 ar
   5    2   35 1
   6    3   30 1
   7    3   24 ar
   8    4   11 1
   9    4   15 1
  10    5    6 ar
  11    5   36 1
  12    5   23 ar
  13    6   33 ar
  14    6   37 1
  15    7   33 ar
  16    7    9 1
  17    7    8 ar
  18    8   38 1
  19    8   23 ar
  20    9   14 ar
  21    9   10 ar
  22   10   11 ar
  23   10   39 1
  24   11   12 ar
  25   12   13 ar
  26   12   40 1
  27   13   41 1
  28   13   14 ar
  29   14   42 1
  30   15   43 1
  31   15   44 1
  32   15   45 1
  33   16   17 1
  34   16   46 1
  35   16   47 1
  36   16   32 1
  37   17   22 1
  38   17   48 1
  39   17   18 1
  40   18   19 1
  41   18   49 1
  42   18   50 1
  43   19   20 1
  44   19   51 1
  45   19   52 1
  46   20   21 1
  47   20   53 1
  48   20   54 1
  49   21   55 1
  50   21   56 1
  51   21   22 1
  52   22   57 1
  53   22   58 1
  54   23   31 1
  55   24   59 1
  56   24   26 ar
  57   25   28 1
  58   25   26 ar
  59   26   31 1
  60   27   31 1
  61   27   60 1
  62   27   28 2
  63   28   29 1
  64   29   61 1
  65   29   62 1
  66   29   32 1
  67   32   63 1

#	End of record

