#	Name: ASD10438008
#	Creating user name:	WinNT
#	Creation time:	15. 06. 2019 21:27

#	Modifying user name:	WinNT
#	Modification time:	15. 06. 2019 21:27

#	Program:	/corina/corina34_cracker 3.40 0067  02.08.2006

@<TRIPOS>MOLECULE
ASD10438008
  41   43    0    0    0
SMALL
NO_CHARGES


@<TRIPOS>ATOM
   1 N1            -0.1239     1.4331     0.0631 N.3     
   2 C2            -1.0735     1.2017     1.1590 C.3     
   3 C3            -0.3116     0.7651     2.4124 C.3     
   4 C4             0.4685    -0.5170     2.1087 C.3     
   5 C5             1.4152    -0.2627     0.9325 C.3     
   6 C6             0.6032     0.2037    -0.2779 C.3     
   7 C7             1.2682    -0.9190     3.3211 C.2     
   8 O8             1.2201    -0.2495     4.3258 O.2     
   9 O9             2.0340    -2.0208     3.2849 O.3     
  10 C10           -0.8045     1.9863    -1.1153 C.3     
  11 C11           -1.1186     3.4644    -0.8759 C.3     
  12 O12            0.1022     4.1991    -0.7667 O.3     
  13 N13           -0.0410     9.6218     0.1020 N.pl3   
  14 C14            1.2993     9.8940     0.1362 C.2     
  15 C15            2.0006     8.7644    -0.0488 C.2     
  16 C16            1.0303     7.6796    -0.2152 C.ar    
  17 C17            1.1418     6.3050    -0.4361 C.ar    
  18 C18           -0.0002     5.5379    -0.5511 C.ar    
  19 C19           -1.2566     6.1296    -0.4476 C.ar    
  20 C20           -1.3783     7.4838    -0.2304 C.ar    
  21 C21           -0.2398     8.2741    -0.1117 C.ar    
  22 H22           -1.6187     2.1223     1.3677 H       
  23 H23           -1.7770     0.4205     0.8711 H       
  24 H24            0.3823     1.5516     2.7089 H       
  25 H25           -1.0181     0.5783     3.2211 H       
  26 H26           -0.2280    -1.3145     1.8499 H       
  27 H27            2.1363     0.5077     1.2058 H       
  28 H28            1.9425    -1.1837     0.6840 H       
  29 H29           -0.1081    -0.5728    -0.5591 H       
  30 H30            1.2760     0.3994    -1.1130 H       
  31 H31            2.5287    -2.2382     4.0869 H       
  32 H32           -0.1580     1.8888    -1.9874 H       
  33 H33           -1.7324     1.4411    -1.2882 H       
  34 H34           -1.7023     3.8518    -1.7109 H       
  35 H35           -1.6898     3.5697     0.0465 H       
  36 H36           -0.7461    10.2782     0.2152 H       
  37 H37            1.7294    10.8728     0.2891 H       
  38 H38            3.0765     8.6728    -0.0711 H       
  39 H39            2.1156     5.8450    -0.5174 H       
  40 H40           -2.1439     5.5207    -0.5390 H       
  41 H41           -2.3576     7.9324    -0.1525 H       
@<TRIPOS>BOND
   1    1    2 1
   2    1    6 1
   3    1   10 1
   4    2    3 1
   5    2   22 1
   6    2   23 1
   7    3    4 1
   8    3   24 1
   9    3   25 1
  10    4    5 1
  11    4    7 1
  12    4   26 1
  13    5    6 1
  14    5   27 1
  15    5   28 1
  16    6   29 1
  17    6   30 1
  18    7    8 2
  19    7    9 1
  20    9   31 1
  21   10   11 1
  22   10   32 1
  23   10   33 1
  24   11   12 1
  25   11   34 1
  26   11   35 1
  27   12   18 1
  28   13   14 1
  29   13   21 1
  30   13   36 1
  31   14   15 2
  32   14   37 1
  33   15   16 1
  34   15   38 1
  35   16   17 ar
  36   16   21 ar
  37   17   18 ar
  38   17   39 1
  39   18   19 ar
  40   19   20 ar
  41   19   40 1
  42   20   21 ar
  43   20   41 1

#	End of record

