#	Name: ASD11000295
#	Creating user name:	WinNT
#	Creation time:	15. 06. 2019 21:29

#	Modifying user name:	WinNT
#	Modification time:	15. 06. 2019 21:29

#	Program:	/corina/corina34_cracker 3.40 0067  02.08.2006

@<TRIPOS>MOLECULE
ASD11000295
  54   57    0    0    0
SMALL
NO_CHARGES


@<TRIPOS>ATOM
   1 C1             9.1804    -0.1879     3.5713 C.ar    
   2 C2             8.9584    -1.5131     3.2092 C.ar    
   3 C3             8.0888    -1.8242     2.1875 C.ar    
   4 C4             7.4226    -0.8096     1.5072 C.ar    
   5 C5             8.5268     0.8326     2.9058 C.ar    
   6 C6             7.6460     0.5267     1.8724 C.ar    
   7 N7             6.5137    -0.8127     0.4664 N.pl3   
   8 C8             6.1479     0.4438     0.1505 C.2     
   9 C9             6.8019     1.3372     0.9724 C.2     
  10 N10            5.9356     4.8768     0.0538 N.3     
  11 C11            4.9099     5.5711    -0.7350 C.3     
  12 C12            7.2860     5.2812    -0.3577 C.3     
  13 C13            7.4672     6.7812    -0.1141 C.3     
  14 C14            6.4162     7.5541    -0.9157 C.3     
  15 C15            5.0201     7.0797    -0.5026 C.3     
  16 C16            6.5532     9.0507    -0.6289 C.3     
  17 C17            5.6021     9.8200    -1.5091 C.ar    
  18 C18            5.1425    10.9566    -3.5658 C.ar    
  19 C19            6.0124    10.2512    -2.7571 C.ar    
  20 C20            4.3190    10.0885    -1.0696 C.ar    
  21 C21            3.4451    10.7931    -1.8748 C.ar    
  22 C22            3.8561    11.2318    -3.1251 C.ar    
  23 O23           10.0378     0.1037     4.5854 O.3     
  24 C24            6.6869     2.7494     0.9564 C.2     
  25 C25            5.7721     3.4197    -0.0361 C.3     
  26 O26            7.3253     3.4194     1.7422 O.2     
  27 O27            2.9985    11.9255    -3.9188 O.3     
  28 C28            1.6900    12.1724    -3.4001 C.3     
  29 H29            9.4728    -2.3046     3.7339 H       
  30 H30            7.9242    -2.8559     1.9141 H       
  31 H31            8.6990     1.8613     3.1860 H       
  32 H32            6.1847    -1.6107     0.0239 H       
  33 H33            5.4490     0.7113    -0.6283 H       
  34 H34            5.0573     5.3549    -1.7931 H       
  35 H35            3.9218     5.2277    -0.4285 H       
  36 H36            8.0237     4.7273     0.2228 H       
  37 H37            7.4223     5.0663    -1.4176 H       
  38 H38            7.3447     6.9948     0.9477 H       
  39 H39            8.4641     7.0840    -0.4342 H       
  40 H40            6.5629     7.3713    -1.9802 H       
  41 H41            4.2688     7.5958    -1.1003 H       
  42 H42            4.8591     7.2980     0.5531 H       
  43 H43            6.3163     9.2434     0.4175 H       
  44 H44            7.5756     9.3679    -0.8343 H       
  45 H45            5.4635    11.2935    -4.5404 H       
  46 H46            7.0139    10.0368    -3.0997 H       
  47 H47            3.9995     9.7467    -0.0962 H       
  48 H48            2.4427    11.0019    -1.5313 H       
  49 H49           10.9530     0.2340     4.3016 H       
  50 H50            4.7383     3.1556     0.1868 H       
  51 H51            6.0229     3.0874    -1.0434 H       
  52 H52            1.1089    12.7334    -4.1319 H       
  53 H53            1.1957    11.2229    -3.1942 H       
  54 H54            1.7675    12.7490    -2.4783 H       
@<TRIPOS>BOND
   1    1    2 ar
   2    1    5 ar
   3    1   23 1
   4    2    3 ar
   5    2   29 1
   6    3    4 ar
   7    3   30 1
   8    4    7 1
   9    4    6 ar
  10    5    6 ar
  11    5   31 1
  12    6    9 1
  13    7    8 1
  14    7   32 1
  15    8    9 2
  16    8   33 1
  17    9   24 1
  18   10   12 1
  19   10   11 1
  20   10   25 1
  21   11   15 1
  22   11   34 1
  23   11   35 1
  24   12   13 1
  25   12   36 1
  26   12   37 1
  27   13   14 1
  28   13   38 1
  29   13   39 1
  30   14   15 1
  31   14   16 1
  32   14   40 1
  33   15   41 1
  34   15   42 1
  35   16   17 1
  36   16   43 1
  37   16   44 1
  38   17   20 ar
  39   17   19 ar
  40   18   19 ar
  41   18   22 ar
  42   18   45 1
  43   19   46 1
  44   20   21 ar
  45   20   47 1
  46   21   22 ar
  47   21   48 1
  48   22   27 1
  49   23   49 1
  50   24   25 1
  51   24   26 2
  52   25   50 1
  53   25   51 1
  54   27   28 1
  55   28   52 1
  56   28   53 1
  57   28   54 1

#	End of record

