#	Name: ASD13010055
#	Creating user name:	WinNT
#	Creation time:	15. 06. 2019 21:30

#	Modifying user name:	WinNT
#	Modification time:	15. 06. 2019 21:30

#	Program:	/corina/corina34_cracker 3.40 0067  02.08.2006

@<TRIPOS>MOLECULE
ASD13010055
  44   47    0    0    0
SMALL
NO_CHARGES


@<TRIPOS>ATOM
   1 C1             0.0232     1.2714    -0.5346 C.2     
   2 C2             0.0512    -0.0868    -0.3881 C.2     
   3 C3             1.2758    -0.7323    -0.1715 C.2     
   4 C4             2.4231    -0.0170    -0.1072 C.2     
   5 N5             2.4049     1.3355    -0.2515 N.pl3   
   6 C6             1.2209     1.9903    -0.4651 C.2     
   7 C7             3.3922     2.2902    -0.2315 C.2     
   8 N8             2.8501     3.4815    -0.4227 N.2     
   9 C9             1.5351     3.3592    -0.5712 C.2     
  10 C10            0.5764     4.4598    -0.8041 C.ar    
  11 C11           -0.5390     4.2527    -1.6224 C.ar    
  12 C12           -1.4281     5.2634    -1.8426 C.ar    
  13 C13           -1.2299     6.5159    -1.2506 C.ar    
  14 C14           -0.1125     6.7319    -0.4272 C.ar    
  15 C15            0.7826     5.7021    -0.2027 C.ar    
  16 C16           -2.1900     7.6048    -1.4906 C.2     
  17 O17           -2.0168     8.6922    -0.9759 O.2     
  18 O18           -3.2616     7.3964    -2.2813 O.3     
  19 C19            4.8170     2.0308    -0.0306 C.2     
  20 C20            5.7924     3.1351    -0.1446 C.ar    
  21 O21            5.2000     0.9042     0.2308 O.2     
  22 C22            6.2081     3.8248     0.9966 C.ar    
  23 C23            7.1188     4.8538     0.8832 C.ar    
  24 C24            7.6217     5.2046    -0.3580 C.ar    
  25 C25            7.2151     4.5272    -1.4930 C.ar    
  26 C26            6.3077     3.4905    -1.3941 C.ar    
  27 Cl27           5.8035     2.6360    -2.8187 Cl      
  28 C28            5.6620     3.4454     2.3489 C.3     
  29 F29            6.2233     4.2729     3.3274 F       
  30 F30            4.2714     3.5989     2.3501 F       
  31 F31            5.9842     2.1123     2.6248 F       
  32 O32            0.0851     7.9440     0.1491 O.3     
  33 H33           -0.9121     1.7833    -0.7066 H       
  34 H34           -0.8638    -0.6584    -0.4385 H       
  35 H35            1.3044    -1.8056    -0.0549 H       
  36 H36            3.3615    -0.5247     0.0605 H       
  37 H37           -0.6968     3.2882    -2.0822 H       
  38 H38           -2.2870     5.0968    -2.4758 H       
  39 H39            1.6416     5.8602     0.4325 H       
  40 H40           -3.8643     8.1417    -2.4093 H       
  41 H41            7.4405     5.3879     1.7651 H       
  42 H42            8.3348     6.0116    -0.4404 H       
  43 H43            7.6112     4.8064    -2.4582 H       
  44 H44           -0.3260     8.0375     1.0194 H       
@<TRIPOS>BOND
   1    1    2 2
   2    1    6 1
   3    1   33 1
   4    2    3 1
   5    2   34 1
   6    3    4 2
   7    3   35 1
   8    4    5 1
   9    4   36 1
  10    5    7 1
  11    5    6 1
  12    6    9 2
  13    7    8 2
  14    7   19 1
  15    8    9 1
  16    9   10 1
  17   10   11 ar
  18   10   15 ar
  19   11   12 ar
  20   11   37 1
  21   12   13 ar
  22   12   38 1
  23   13   14 ar
  24   13   16 1
  25   14   15 ar
  26   14   32 1
  27   15   39 1
  28   16   17 2
  29   16   18 1
  30   18   40 1
  31   19   20 1
  32   19   21 2
  33   20   22 ar
  34   20   26 ar
  35   22   23 ar
  36   22   28 1
  37   23   24 ar
  38   23   41 1
  39   24   25 ar
  40   24   42 1
  41   25   26 ar
  42   25   43 1
  43   26   27 1
  44   28   29 1
  45   28   30 1
  46   28   31 1
  47   32   44 1

#	End of record

