#	Name: ASD11000246
#	Creating user name:	WinNT
#	Creation time:	15. 06. 2019 21:29

#	Modifying user name:	WinNT
#	Modification time:	15. 06. 2019 21:29

#	Program:	/corina/corina34_cracker 3.40 0067  02.08.2006

@<TRIPOS>MOLECULE
ASD11000246
  51   54    0    0    0
SMALL
NO_CHARGES


@<TRIPOS>ATOM
   1 N1            -0.0172     1.3215    -0.0112 N.ar    
   2 C2             0.0016    -0.0034    -0.0060 C.ar    
   3 N3             1.1403    -0.6810    -0.0155 N.ar    
   4 C4             2.3025    -0.0498    -0.0306 C.ar    
   5 C5             2.3192     1.3363    -0.0364 C.ar    
   6 C6             1.1098     2.0136    -0.0262 C.ar    
   7 N7            -1.1973    -0.6965     0.0102 N.pl3   
   8 C8            -1.2008    -2.0923    -0.1029 C.ar    
   9 C9            -2.1491    -2.8421     0.5799 C.ar    
  10 C10           -0.2594    -2.7269    -0.9028 C.ar    
  11 C11           -0.2638    -4.1031    -1.0143 C.ar    
  12 C12           -1.2086    -4.8520    -0.3278 C.ar    
  13 C13           -2.1521    -4.2187     0.4674 C.ar    
  14 C14            3.6238     2.0904    -0.0531 C.3     
  15 C15            4.0504     2.3397    -1.5011 C.3     
  16 C16            5.3550     3.0939    -1.5177 C.ar    
  17 C17            6.5514     2.4010    -1.5273 C.ar    
  18 C18            7.7516     3.0870    -1.5417 C.ar    
  19 C19            7.7510     4.4728    -1.5466 C.ar    
  20 C20            6.5453     5.1664    -1.5386 C.ar    
  21 C21            5.3517     4.4781    -1.5291 C.ar    
  22 O22           -1.2126    -6.2073    -0.4384 O.3     
  23 N23            8.9498     5.1949    -1.5577 N.am    
  24 C24            8.9392     6.5077    -1.2494 C.2     
  25 O25            7.7944     7.1240    -0.9036 O.3     
  26 C26            6.5718     6.6741    -1.5493 C.3     
  27 O27            9.9756     7.1411    -1.2838 O.2     
  28 C28            0.7577    -4.7919    -1.8821 C.3     
  29 C29           -2.2134    -6.9153     0.2959 C.3     
  30 F30           -2.0650    -6.6500     1.6615 F       
  31 F31           -3.4815    -6.5001    -0.1247 F       
  32 H32            3.2273    -0.6075    -0.0379 H       
  33 H33            1.0881     3.0934    -0.0307 H       
  34 H34           -2.0347    -0.2151     0.1000 H       
  35 H35           -2.8838    -2.3492     1.1992 H       
  36 H36            0.4757    -2.1440    -1.4378 H       
  37 H37           -2.8873    -4.8024     1.0015 H       
  38 H38            3.4983     3.0449     0.4582 H       
  39 H39            4.3891     1.5038     0.4553 H       
  40 H40            4.1759     1.3853    -2.0124 H       
  41 H41            3.2851     2.9263    -2.0094 H       
  42 H42            6.5484     1.3210    -1.5232 H       
  43 H43            8.6858     2.5452    -1.5486 H       
  44 H44            4.4159     5.0172    -1.5215 H       
  45 H45            9.7832     4.7538    -1.7855 H       
  46 H46            6.5484     7.0328    -2.5783 H       
  47 H47            5.7086     7.0587    -1.0061 H       
  48 H48            1.6413    -5.0250    -1.2880 H       
  49 H49            0.3338    -5.7138    -2.2802 H       
  50 H50            1.0367    -4.1349    -2.7060 H       
  51 H51           -2.1045    -7.9854     0.1197 H       
@<TRIPOS>BOND
   1    1    2 ar
   2    1    6 ar
   3    2    3 ar
   4    2    7 1
   5    3    4 ar
   6    4    5 ar
   7    4   32 1
   8    5    6 ar
   9    5   14 1
  10    6   33 1
  11    7    8 1
  12    7   34 1
  13    8    9 ar
  14    8   10 ar
  15    9   13 ar
  16    9   35 1
  17   10   11 ar
  18   10   36 1
  19   11   12 ar
  20   11   28 1
  21   12   13 ar
  22   12   22 1
  23   13   37 1
  24   14   15 1
  25   14   38 1
  26   14   39 1
  27   15   16 1
  28   15   40 1
  29   15   41 1
  30   16   17 ar
  31   16   21 ar
  32   17   18 ar
  33   17   42 1
  34   18   19 ar
  35   18   43 1
  36   19   20 ar
  37   19   23 1
  38   20   21 ar
  39   20   26 1
  40   21   44 1
  41   22   29 1
  42   23   24 am
  43   23   45 1
  44   24   25 1
  45   24   27 2
  46   25   26 1
  47   26   46 1
  48   26   47 1
  49   28   48 1
  50   28   49 1
  51   28   50 1
  52   29   30 1
  53   29   31 1
  54   29   51 1

#	End of record

