#	Name: ASD13680019
#	Creating user name:	WinNT
#	Creation time:	15. 06. 2019 21:30

#	Modifying user name:	WinNT
#	Modification time:	15. 06. 2019 21:30

#	Program:	/corina/corina34_cracker 3.40 0067  02.08.2006

@<TRIPOS>MOLECULE
ASD13680019
  45   47    0    0    0
SMALL
NO_CHARGES


@<TRIPOS>ATOM
   1 C1            -0.0185     1.5104     0.0103 C.3     
   2 C2             0.0021    -0.0041     0.0020 C.2     
   3 C3             0.7575    -0.7668     0.7974 C.2     
   4 C4             1.7348    -0.2334     1.8306 C.3     
   5 C5             1.8926     2.2240     1.4372 C.3     
   6 C6             1.4096     2.0534    -0.0004 C.3     
   7 C7             1.2830     1.1386     2.3215 C.3     
   8 C8             0.5460    -2.1875     0.5647 C.2     
   9 C9            -0.3656    -2.4467    -0.4199 C.2     
  10 S10           -0.9768    -0.9976    -1.0693 S.3     
  11 N11           -0.7407    -3.7145    -0.8321 N.am    
  12 C12            1.2423    -3.2367     1.3118 C.2     
  13 O13            0.7593    -3.6749     2.3386 O.2     
  14 O14            2.4194    -3.7173     0.8614 O.3     
  15 C15           -1.6512    -3.8617    -1.8149 C.2     
  16 C16           -2.0511    -5.2133    -2.2543 C.ar    
  17 C17           -1.4881    -6.3419    -1.6540 C.ar    
  18 C18           -1.8662    -7.6010    -2.0687 C.ar    
  19 C19           -2.8017    -7.7505    -3.0784 C.ar    
  20 C20           -3.3647    -6.6401    -3.6787 C.ar    
  21 C21           -2.9998    -5.3702    -3.2698 C.ar    
  22 F22           -3.5544    -4.2849    -3.8528 F       
  23 O23           -2.1432    -2.8816    -2.3395 O.2     
  24 C24            3.0533    -4.7565     1.6529 C.3     
  25 C25            4.3679    -5.1723     0.9897 C.3     
  26 H26           -0.5486     1.8697    -0.8717 H       
  27 H27           -0.5316     1.8602     0.9061 H       
  28 H28            1.7804    -0.9220     2.6743 H       
  29 H29            2.7246    -0.1487     1.3819 H       
  30 H30            2.9795     2.1462     1.4657 H       
  31 H31            1.5910     3.2041     1.8066 H       
  32 H32            2.0615     1.3533    -0.5228 H       
  33 H33            1.4286     3.0179    -0.5078 H       
  34 H34            0.1958     1.2008     2.2755 H       
  35 H35            1.6114     1.2822     3.3509 H       
  36 H36           -0.3482    -4.4966    -0.4135 H       
  37 H37           -0.7576    -6.2283    -0.8666 H       
  38 H38           -1.4310    -8.4737    -1.6047 H       
  39 H39           -3.0928    -8.7399    -3.3989 H       
  40 H40           -4.0938    -6.7643    -4.4657 H       
  41 H41            3.2557    -4.3777     2.6547 H       
  42 H42            2.3903    -5.6192     1.7178 H       
  43 H43            5.0310    -4.3096     0.9249 H       
  44 H44            4.8438    -5.9525     1.5839 H       
  45 H45            4.1655    -5.5512    -0.0121 H       
@<TRIPOS>BOND
   1    1    2 1
   2    1    6 1
   3    1   26 1
   4    1   27 1
   5    2   10 1
   6    2    3 2
   7    3    4 1
   8    3    8 1
   9    4    7 1
  10    4   28 1
  11    4   29 1
  12    5    6 1
  13    5    7 1
  14    5   30 1
  15    5   31 1
  16    6   32 1
  17    6   33 1
  18    7   34 1
  19    7   35 1
  20    8    9 2
  21    8   12 1
  22    9   10 1
  23    9   11 1
  24   11   15 am
  25   11   36 1
  26   12   13 2
  27   12   14 1
  28   14   24 1
  29   15   16 1
  30   15   23 2
  31   16   17 ar
  32   16   21 ar
  33   17   18 ar
  34   17   37 1
  35   18   19 ar
  36   18   38 1
  37   19   20 ar
  38   19   39 1
  39   20   21 ar
  40   20   40 1
  41   21   22 1
  42   24   25 1
  43   24   41 1
  44   24   42 1
  45   25   43 1
  46   25   44 1
  47   25   45 1

#	End of record

