#	Name: ASD11550001
#	Creating user name:	WinNT
#	Creation time:	15. 06. 2019 21:29

#	Modifying user name:	WinNT
#	Modification time:	15. 06. 2019 21:29

#	Program:	/corina/corina34_cracker 3.40 0067  02.08.2006

@<TRIPOS>MOLECULE
ASD11550001
  24   23    0    0    0
SMALL
NO_CHARGES


@<TRIPOS>ATOM
   1 O1             0.0021    -0.0041     0.0020 O.2     
   2 C2            -0.0143     1.2034     0.0087 C.2     
   3 C3             1.2804     1.9746     0.0004 C.3     
   4 O4             2.3790     1.0609    -0.0150 O.3     
   5 C5             1.3614     2.8485     1.2537 C.3     
   6 O6             1.1913     2.0331     2.4148 O.3     
   7 C7             2.7273     3.5357     1.3088 C.3     
   8 O8             3.7596     2.5505     1.2334 O.3     
   9 C9             2.8561     4.3099     2.6221 C.3     
  10 O10            1.8238     5.2952     2.6975 O.3     
  11 C11            4.2220     4.9971     2.6772 C.3     
  12 O12            4.3891     5.6232     3.9508 O.3     
  13 H13           -0.9568     1.7306     0.0160 H       
  14 H14            1.3211     2.6067    -0.8866 H       
  15 H15            2.4062     0.4657     0.7467 H       
  16 H16            0.5759     3.6035     1.2216 H       
  17 H17            1.8569     1.3379     2.5082 H       
  18 H18            2.8212     4.2252     0.4698 H       
  19 H19            3.7374     1.9019     1.9503 H       
  20 H20            2.7622     3.6204     3.4611 H       
  21 H21            1.8460     5.9437     1.9806 H       
  22 H22            5.0077     4.2560     2.5307 H       
  23 H23            4.2817     5.7502     1.8915 H       
  24 H24            5.2351     6.0796     4.0568 H       
@<TRIPOS>BOND
   1    1    2 2
   2    2    3 1
   3    2   13 1
   4    3    4 1
   5    3    5 1
   6    3   14 1
   7    4   15 1
   8    5    6 1
   9    5    7 1
  10    5   16 1
  11    6   17 1
  12    7    8 1
  13    7    9 1
  14    7   18 1
  15    8   19 1
  16    9   10 1
  17    9   11 1
  18    9   20 1
  19   10   21 1
  20   11   12 1
  21   11   22 1
  22   11   23 1
  23   12   24 1

#	End of record

