#	Name: ASD11030028
#	Creating user name:	WinNT
#	Creation time:	15. 06. 2019 21:29

#	Modifying user name:	WinNT
#	Modification time:	15. 06. 2019 21:29

#	Program:	/corina/corina34_cracker 3.40 0067  02.08.2006

@<TRIPOS>MOLECULE
ASD11030028
  22   23    0    0    0
SMALL
NO_CHARGES


@<TRIPOS>ATOM
   1 C1            -0.0167     1.3786     0.0096 C.ar    
   2 C2             0.0021    -0.0041     0.0020 C.ar    
   3 C3             1.2191    -0.6644    -0.0132 C.ar    
   4 C4             2.3866     0.0989    -0.0203 C.ar    
   5 C5             2.2847     1.4865    -0.0119 C.ar    
   6 N6             1.1050     2.0728     0.0026 N.ar    
   7 S7             3.9659    -0.6821    -0.0390 S.3     
   8 S8             5.2647     0.9040    -0.0432 S.3     
   9 C9             5.4160     1.2968     1.6678 C.ar    
  10 C10            6.2344     2.3471     2.0835 C.ar    
  11 C11            6.3202     2.6166     3.4391 C.ar    
  12 C12            5.5983     1.8428     4.3291 C.ar    
  13 N13            4.8330     0.8556     3.9048 N.ar    
  14 C14            4.7167     0.5678     2.6245 C.ar    
  15 H15           -0.9637     1.8978     0.0169 H       
  16 H16           -0.9222    -0.5627     0.0082 H       
  17 H17            1.2633    -1.7435    -0.0191 H       
  18 H18            3.1812     2.0887    -0.0172 H       
  19 H19            6.7875     2.9352     1.3662 H       
  20 H20            6.9443     3.4220     3.7972 H       
  21 H21            5.6623     2.0494     5.3872 H       
  22 H22            4.0800    -0.2479     2.3153 H       
@<TRIPOS>BOND
   1    1    2 ar
   2    1    6 ar
   3    1   15 1
   4    2    3 ar
   5    2   16 1
   6    3    4 ar
   7    3   17 1
   8    4    5 ar
   9    4    7 1
  10    5    6 ar
  11    5   18 1
  12    7    8 1
  13    8    9 1
  14    9   10 ar
  15    9   14 ar
  16   10   11 ar
  17   10   19 1
  18   11   12 ar
  19   11   20 1
  20   12   13 ar
  21   12   21 1
  22   13   14 ar
  23   14   22 1

#	End of record

