#	Name: ASD10420162
#	Creating user name:	WinNT
#	Creation time:	15. 06. 2019 21:27

#	Modifying user name:	WinNT
#	Modification time:	15. 06. 2019 21:27

#	Program:	/corina/corina34_cracker 3.40 0067  02.08.2006

@<TRIPOS>MOLECULE
ASD10420162
  36   37    0    0    0
SMALL
NO_CHARGES


@<TRIPOS>ATOM
   1 C1            -0.0173     1.4248     0.0099 C.3     
   2 C2            -3.8756    -4.6194     0.0133 C.3     
   3 C3             0.1559    -3.8267     0.8713 C.2     
   4 C4            -0.0159    -2.8297    -0.0130 C.2     
   5 C5            -3.5974    -0.5434     0.0330 C.ar    
   6 C6            -2.3726     0.0989     0.0252 C.ar    
   7 C7            -3.6644    -1.9248     0.0258 C.ar    
   8 C8             1.5780    -5.6571     1.7749 C.ar    
   9 C9             2.3981    -4.3360    -0.0787 C.ar    
  10 C10            1.3975    -4.6194     0.8557 C.ar    
  11 C11            3.7344    -6.1120     0.8257 C.ar    
  12 C12            2.7411    -6.3969     1.7570 C.ar    
  13 C13            3.5584    -5.0801    -0.0906 C.ar    
  14 C14           -1.2568    -2.0376     0.0027 C.ar    
  15 C15           -1.1996    -0.6371     0.0101 C.ar    
  16 C16           -2.5030    -2.6789     0.0106 C.ar    
  17 N17            4.9114    -6.8637     0.8106 N.pl3   
  18 O18            0.0021    -0.0041     0.0020 O.3     
  19 O19           -2.5714    -4.0355     0.0040 O.3     
  20 Br20           2.9868    -7.8004     3.0002 Br      
  21 Br21           4.9122    -4.6983    -1.3544 Br      
  22 H22            1.0053     1.8021     0.0021 H       
  23 H23           -0.5445     1.7859    -0.8732 H       
  24 H24           -0.5275     1.7763     0.9067 H       
  25 H25           -4.4257    -4.2941    -0.8697 H       
  26 H26           -3.7874    -5.7058     0.0066 H       
  27 H27           -4.4087    -4.3037     0.9102 H       
  28 H28           -0.6164    -4.0470     1.5935 H       
  29 H29            0.7563    -2.6094    -0.7352 H       
  30 H30           -4.5076     0.0376     0.0494 H       
  31 H31           -2.3307     1.1781     0.0306 H       
  32 H32           -4.6257    -2.4171     0.0323 H       
  33 H33            0.8092    -5.8760     2.5011 H       
  34 H34            2.2619    -3.5353    -0.7906 H       
  35 H35            5.0354    -7.5835     1.4489 H       
  36 H36            5.6048    -6.6661     0.1617 H       
@<TRIPOS>BOND
   1    1   18 1
   2    1   22 1
   3    1   23 1
   4    1   24 1
   5    2   19 1
   6    2   25 1
   7    2   26 1
   8    2   27 1
   9    3    4 2
  10    3   10 1
  11    3   28 1
  12    4   14 1
  13    4   29 1
  14    5    6 ar
  15    5    7 ar
  16    5   30 1
  17    6   15 ar
  18    6   31 1
  19    7   16 ar
  20    7   32 1
  21    8   10 ar
  22    8   12 ar
  23    8   33 1
  24    9   10 ar
  25    9   13 ar
  26    9   34 1
  27   11   12 ar
  28   11   13 ar
  29   11   17 1
  30   12   20 1
  31   13   21 1
  32   14   15 ar
  33   14   16 ar
  34   15   18 1
  35   16   19 1
  36   17   35 1
  37   17   36 1

#	End of record

