#	Name: ASD10610184
#	Creating user name:	WinNT
#	Creation time:	15. 06. 2019 21:28

#	Modifying user name:	WinNT
#	Modification time:	15. 06. 2019 21:28

#	Program:	/corina/corina34_cracker 3.40 0067  02.08.2006

@<TRIPOS>MOLECULE
ASD10610184
  48   50    0    0    0
SMALL
NO_CHARGES


@<TRIPOS>ATOM
   1 C1            -0.0170     1.4032     0.0098 C.ar    
   2 C2             0.0021    -0.0041     0.0020 C.ar    
   3 C3             1.2264    -0.6761    -0.0133 C.ar    
   4 C4             2.4065     0.0417    -0.0207 C.ar    
   5 C5             2.3845     1.4257    -0.0126 C.ar    
   6 C6             1.1831     2.1069     0.0021 C.ar    
   7 C7            -1.3077     2.1310     0.0198 C.ar    
   8 C8            -1.5320     3.1449     0.9503 C.ar    
   9 C9            -2.7377     3.8203     0.9543 C.ar    
  10 C10           -3.7217     3.4903     0.0360 C.ar    
  11 C11           -3.5028     2.4854    -0.8883 C.ar    
  12 C12           -2.3001     1.8084    -0.9048 C.ar    
  13 C13           -1.2614    -0.7635     0.0105 C.2     
  14 O14           -1.7925    -1.0708    -1.0382 O.2     
  15 O15           -1.8273    -1.1169     1.1813 O.3     
  16 F16           -2.9575     4.8031     1.8548 F       
  17 Cl17           1.2649    -2.4117    -0.0224 Cl      
  18 C18           -5.0351     4.2291     0.0450 C.3     
  19 C19           -4.9036     5.5133    -0.7763 C.3     
  20 N20           -6.0767     3.3804    -0.5391 N.am    
  21 C21           -7.3683     3.5727    -0.2055 C.2     
  22 O22           -7.6683     4.4483     0.5783 O.2     
  23 O23          -10.1981     3.7727    -0.5950 O.3     
  24 C24           -9.7141     2.5815     0.0388 C.3     
  25 C25           -8.4397     2.6997    -0.8063 C.3     
  26 C26           -9.4088     3.4325    -1.7423 C.3     
  27 N27           -7.9325     1.4237    -1.3282 N.3     
  28 C28           -3.0708    -1.8634     1.1137 C.3     
  29 H29            3.3521    -0.4800    -0.0325 H       
  30 H30            3.3133     1.9767    -0.0181 H       
  31 H31            1.1753     3.1869     0.0080 H       
  32 H32           -0.7654     3.4016     1.6665 H       
  33 H33           -4.2732     2.2325    -1.6017 H       
  34 H34           -2.1297     1.0266    -1.6302 H       
  35 H35           -5.3039     4.4799     1.0711 H       
  36 H36           -4.6349     5.2624    -1.8024 H       
  37 H37           -5.8537     6.0476    -0.7698 H       
  38 H38           -4.1287     6.1447    -0.3417 H       
  39 H39           -5.8368     2.6801    -1.1660 H       
  40 H40           -9.5373     2.7013     1.1076 H       
  41 H41          -10.3067     1.6966    -0.1932 H       
  42 H42           -9.9216     2.7698    -2.4393 H       
  43 H43           -8.9644     4.2979    -2.2339 H       
  44 H44           -7.1398     1.5707    -1.9349 H       
  45 H45           -7.7002     0.7922    -0.5763 H       
  46 H46           -3.8224    -1.2709     0.5921 H       
  47 H47           -2.9056    -2.7964     0.5748 H       
  48 H48           -3.4179    -2.0835     2.1232 H       
@<TRIPOS>BOND
   1    1    2 ar
   2    1    6 ar
   3    1    7 1
   4    2    3 ar
   5    2   13 1
   6    3    4 ar
   7    3   17 1
   8    4    5 ar
   9    4   29 1
  10    5    6 ar
  11    5   30 1
  12    6   31 1
  13    7    8 ar
  14    7   12 ar
  15    8    9 ar
  16    8   32 1
  17    9   10 ar
  18    9   16 1
  19   10   11 ar
  20   10   18 1
  21   11   12 ar
  22   11   33 1
  23   12   34 1
  24   13   14 2
  25   13   15 1
  26   15   28 1
  27   18   19 1
  28   18   20 1
  29   18   35 1
  30   19   36 1
  31   19   37 1
  32   19   38 1
  33   20   21 am
  34   20   39 1
  35   21   22 2
  36   21   25 1
  37   23   24 1
  38   23   26 1
  39   24   25 1
  40   24   40 1
  41   24   41 1
  42   25   26 1
  43   25   27 1
  44   26   42 1
  45   26   43 1
  46   27   44 1
  47   27   45 1
  48   28   46 1
  49   28   47 1
  50   28   48 1

#	End of record

