#	Name: ASD11530009
#	Creating user name:	WinNT
#	Creation time:	15. 06. 2019 21:29

#	Modifying user name:	WinNT
#	Modification time:	15. 06. 2019 21:29

#	Program:	/corina/corina34_cracker 3.40 0067  02.08.2006

@<TRIPOS>MOLECULE
ASD11530009
  27   29    0    0    0
SMALL
NO_CHARGES


@<TRIPOS>ATOM
   1 C1            -0.0203     1.4265    -0.3121 C.ar    
   2 C2             0.0142    -0.0250    -0.3745 C.ar    
   3 C3             1.2104    -0.6554    -0.2810 C.ar    
   4 C4             4.4710    -2.8121    -0.6858 C.ar    
   5 C5             4.4475    -4.1903    -0.5863 C.ar    
   6 C6             3.5432    -4.8093     0.2589 C.ar    
   7 C7             1.2624     2.1577    -0.1479 C.ar    
   8 C8             2.4531     1.4175    -0.0605 C.ar    
   9 C9             2.4135     0.0576    -0.1252 C.ar    
  10 C10            3.5861    -2.0470     0.0641 C.ar    
  11 C11            2.6797    -2.6699     0.9122 C.ar    
  12 C12            2.6602    -4.0499     1.0081 C.ar    
  13 N13           -0.9022     2.3913    -0.3533 N.2     
  14 N14            0.8783     3.4113    -0.1295 N.2     
  15 N15            3.6085    -0.6538    -0.0345 N.pl3   
  16 N16            3.7491     2.1145     0.1032 N.pl3   
  17 O17           -0.3298     3.4579    -0.2491 O.3     
  18 O18            4.1755     2.3533     1.2189 O.2     
  19 O19            4.3888     2.4491    -0.8778 O.2     
  20 Cl20           5.5527    -5.1462    -1.5236 Cl      
  21 F21            1.7790    -4.6569     1.8327 F       
  22 H22           -0.8975    -0.5916    -0.4931 H       
  23 H23            1.2410    -1.7340    -0.3269 H       
  24 H24            5.1800    -2.3298    -1.3424 H       
  25 H25            3.5265    -5.8865     0.3347 H       
  26 H26            1.9910    -2.0776     1.4964 H       
  27 H27            4.4557    -0.1815    -0.0399 H       
@<TRIPOS>BOND
   1    1    2 ar
   2    1    7 ar
   3    1   13 2
   4    2    3 ar
   5    2   22 1
   6    3    9 ar
   7    3   23 1
   8    4    5 ar
   9    4   10 ar
  10    4   24 1
  11    5    6 ar
  12    5   20 1
  13    6   12 ar
  14    6   25 1
  15    7    8 ar
  16    7   14 2
  17    8    9 ar
  18    8   16 1
  19    9   15 1
  20   10   11 ar
  21   10   15 1
  22   11   12 ar
  23   11   26 1
  24   12   21 1
  25   13   17 1
  26   14   17 1
  27   15   27 1
  28   16   18 2
  29   16   19 2

#	End of record

