#	Name: ASD10410025
#	Creating user name:	WinNT
#	Creation time:	15. 06. 2019 21:26

#	Modifying user name:	WinNT
#	Modification time:	15. 06. 2019 21:26

#	Program:	/corina/corina34_cracker 3.40 0067  02.08.2006

@<TRIPOS>MOLECULE
ASD10410025
  69   73    0    0    0
SMALL
NO_CHARGES


@<TRIPOS>ATOM
   1 C1            -0.2950     1.2914     0.1159 C.3     
   2 C2            -0.2648    -0.1925    -0.1451 C.ar    
   3 C3             1.1009     1.7786     0.4079 C.ar    
   4 N4             1.9189     2.0983    -0.5810 N.ar    
   5 C5             1.5417     1.9029     1.7174 C.ar    
   6 C6             2.8334     2.3554     1.9414 C.ar    
   7 N7             3.6012     2.6530     0.9061 N.ar    
   8 C8             3.1473     2.5278    -0.3321 C.ar    
   9 Cl9            0.4993     1.5013     3.0463 Cl      
  10 N10            3.9794     2.8487    -1.3929 N.pl3   
  11 C11            5.2404     3.4012    -1.1499 C.ar    
  12 C12            6.3012     3.1153    -1.9999 C.ar    
  13 C13            7.5455     3.6632    -1.7572 C.ar    
  14 C14            7.7360     4.4956    -0.6695 C.ar    
  15 C15            6.6821     4.7823     0.1786 C.ar    
  16 C16            5.4340     4.2419    -0.0613 C.ar    
  17 C17            9.0953     5.0912    -0.4076 C.3     
  18 N18            9.2073     6.3803    -1.1032 N.3     
  19 C19           10.4179     7.1009    -0.6849 C.3     
  20 C20           10.5393     8.3980    -1.4881 C.3     
  21 N21            9.3398     9.2192    -1.2718 N.3     
  22 C22            8.1293     8.4985    -1.6901 C.3     
  23 C23            8.0079     7.2014    -0.8869 C.3     
  24 C24            9.4519    10.5082    -1.9674 C.3     
  25 C25            0.0293    -0.6722    -1.4222 C.ar    
  26 C26           -0.5223    -1.0801     0.8795 C.ar    
  27 C27           -0.4945    -2.4426     0.6417 C.ar    
  28 C28           -0.2088    -2.9247    -0.6235 C.ar    
  29 C29            0.0552    -2.0483    -1.6554 C.ar    
  30 C30            0.3118     0.2730    -2.5234 C.2     
  31 O31           -0.4564     1.1869    -2.7520 O.2     
  32 N32            1.4210     0.1213    -3.2738 N.am    
  33 C33            1.7681     0.9168    -4.4605 C.3     
  34 C34            3.1063     0.3716    -5.0023 C.3     
  35 C35            3.1548    -1.0675    -4.4241 C.3     
  36 C36            2.4902    -0.8656    -3.0370 C.3     
  37 H37           -0.6835     1.8069    -0.7625 H       
  38 H38           -0.9380     1.4968     0.9717 H       
  39 H39            3.2077     2.4638     2.9487 H       
  40 H40            3.6869     2.6898    -2.3040 H       
  41 H41            6.1531     2.4650    -2.8493 H       
  42 H42            8.3707     3.4410    -2.4175 H       
  43 H43            6.8342     5.4328     1.0272 H       
  44 H44            4.6113     4.4662     0.6016 H       
  45 H45            9.2247     5.2440     0.6638 H       
  46 H46            9.8659     4.4127    -0.7735 H       
  47 H47           10.3524     7.3358     0.3775 H       
  48 H48           11.2933     6.4774    -0.8665 H       
  49 H49           11.4208     8.9483    -1.1592 H       
  50 H50           10.6321     8.1620    -2.5482 H       
  51 H51            7.2539     9.1220    -1.5084 H       
  52 H52            8.1948     8.2636    -2.7525 H       
  53 H53            7.1264     6.6511    -1.2158 H       
  54 H54            7.9151     7.4374     0.1732 H       
  55 H55            9.5685    10.3349    -3.0372 H       
  56 H56            8.5511    11.0959    -1.7906 H       
  57 H57           10.3192    11.0503    -1.5904 H       
  58 H58           -0.7457    -0.7103     1.8693 H       
  59 H59           -0.6965    -3.1331     1.4472 H       
  60 H60           -0.1880    -3.9896    -0.8024 H       
  61 H61            0.2782    -2.4258    -2.6424 H       
  62 H62            0.9911     0.8114    -5.2177 H       
  63 H63            1.8796     1.9653    -4.1843 H       
  64 H64            3.1008     0.3494    -6.0920 H       
  65 H65            3.9426     0.9644    -4.6317 H       
  66 H66            2.5775    -1.7560    -5.0412 H       
  67 H67            4.1837    -1.4107    -4.3163 H       
  68 H68            3.2165    -0.4814    -2.3207 H       
  69 H69            2.0641    -1.8034    -2.6804 H       
@<TRIPOS>BOND
   1    1    2 1
   2    1    3 1
   3    1   37 1
   4    1   38 1
   5    2   25 ar
   6    2   26 ar
   7    3    4 ar
   8    3    5 ar
   9    4    8 ar
  10    5    6 ar
  11    5    9 1
  12    6    7 ar
  13    6   39 1
  14    7    8 ar
  15    8   10 1
  16   10   11 1
  17   10   40 1
  18   11   12 ar
  19   11   16 ar
  20   12   13 ar
  21   12   41 1
  22   13   14 ar
  23   13   42 1
  24   14   15 ar
  25   14   17 1
  26   15   16 ar
  27   15   43 1
  28   16   44 1
  29   17   18 1
  30   17   45 1
  31   17   46 1
  32   18   19 1
  33   18   23 1
  34   19   20 1
  35   19   47 1
  36   19   48 1
  37   20   21 1
  38   20   49 1
  39   20   50 1
  40   21   22 1
  41   21   24 1
  42   22   23 1
  43   22   51 1
  44   22   52 1
  45   23   53 1
  46   23   54 1
  47   24   55 1
  48   24   56 1
  49   24   57 1
  50   25   30 1
  51   25   29 ar
  52   26   27 ar
  53   26   58 1
  54   27   28 ar
  55   27   59 1
  56   28   29 ar
  57   28   60 1
  58   29   61 1
  59   30   31 2
  60   30   32 am
  61   32   33 1
  62   32   36 1
  63   33   34 1
  64   33   62 1
  65   33   63 1
  66   34   35 1
  67   34   64 1
  68   34   65 1
  69   35   36 1
  70   35   66 1
  71   35   67 1
  72   36   68 1
  73   36   69 1

#	End of record

