#	Name: ASD10160177
#	Creating user name:	WinNT
#	Creation time:	15. 06. 2019 21:25

#	Modifying user name:	WinNT
#	Modification time:	15. 06. 2019 21:25

#	Program:	/corina/corina34_cracker 3.40 0067  02.08.2006

@<TRIPOS>MOLECULE
ASD10160177
  42   43    0    0    0
SMALL
NO_CHARGES


@<TRIPOS>ATOM
   1 C1            -0.0158     1.4705    -0.0191 C.2     
   2 C2             0.0042    -0.0040    -0.0196 C.ar    
   3 C3             0.0421    -0.7060     1.1908 C.ar    
   4 C4             0.0603    -2.0864     1.1850 C.ar    
   5 C5             0.0410    -2.7777    -0.0186 C.ar    
   6 C6             0.0032    -2.0831    -1.2248 C.ar    
   7 C7            -0.0205    -0.7052    -1.2289 C.ar    
   8 O8             0.0006     2.0784     1.0339 O.2     
   9 N9            -0.0467     2.1444    -1.1859 N.am    
  10 S10           -0.0692     3.8003    -1.1854 S.o2    
  11 O11           -0.1254     4.1504    -2.5614 O.2     
  12 O12           -1.1289     4.1361    -0.3001 O.2     
  13 C13            1.5301     4.2744    -0.4726 C.3     
  14 F14           -0.0150    -2.7613    -2.3931 F       
  15 F15            0.0614    -0.0338     2.3625 F       
  16 O16            0.0594    -4.1352    -0.0197 O.3     
  17 C17            3.5379    -4.6515    -0.4612 C.ar    
  18 N18            2.3638    -4.0491    -0.3443 N.ar    
  19 C19            1.2585    -4.7552    -0.1393 C.ar    
  20 C20            1.3488    -6.1437    -0.0482 C.ar    
  21 C21            2.5921    -6.7336    -0.1756 C.ar    
  22 N22            3.6541    -5.9685    -0.3790 N.ar    
  23 C23            2.7381    -8.2307    -0.0836 C.3     
  24 N24            4.6701    -3.8864    -0.6802 N.pl3   
  25 C25            4.5612    -2.4288    -0.7801 C.3     
  26 C26            5.9775    -4.5340    -0.8123 C.3     
  27 H27            0.0899    -2.6292     2.1182 H       
  28 H28           -0.0542    -0.1677    -2.1651 H       
  29 H29           -0.0558     1.6595    -2.0260 H       
  30 H30            2.3353     3.8786    -1.0915 H       
  31 H31            1.6025     5.3613    -0.4336 H       
  32 H32            1.6134     3.8683     0.5354 H       
  33 H33            0.4670    -6.7446     0.1185 H       
  34 H34            2.6332    -8.6677    -1.0766 H       
  35 H35            3.7208    -8.4758     0.3193 H       
  36 H36            1.9659    -8.6313     0.5731 H       
  37 H37            4.6764    -1.9872     0.2098 H       
  38 H38            5.3421    -2.0505    -1.4398 H       
  39 H39            3.5842    -2.1643    -1.1845 H       
  40 H40            5.8605    -5.6129    -0.7107 H       
  41 H41            6.3993    -4.3048    -1.7909 H       
  42 H42            6.6456    -4.1661    -0.0335 H       
@<TRIPOS>BOND
   1    1    2 1
   2    1    8 2
   3    1    9 am
   4    2    3 ar
   5    2    7 ar
   6    3    4 ar
   7    3   15 1
   8    4    5 ar
   9    4   27 1
  10    5    6 ar
  11    5   16 1
  12    6    7 ar
  13    6   14 1
  14    7   28 1
  15    9   10 am
  16    9   29 1
  17   10   11 2
  18   10   12 2
  19   10   13 1
  20   13   30 1
  21   13   31 1
  22   13   32 1
  23   16   19 1
  24   17   18 ar
  25   17   22 ar
  26   17   24 1
  27   18   19 ar
  28   19   20 ar
  29   20   21 ar
  30   20   33 1
  31   21   22 ar
  32   21   23 1
  33   23   34 1
  34   23   35 1
  35   23   36 1
  36   24   25 1
  37   24   26 1
  38   25   37 1
  39   25   38 1
  40   25   39 1
  41   26   40 1
  42   26   41 1
  43   26   42 1

#	End of record

