#	Name: ASD11030020
#	Creating user name:	WinNT
#	Creation time:	15. 06. 2019 21:29

#	Modifying user name:	WinNT
#	Modification time:	15. 06. 2019 21:29

#	Program:	/corina/corina34_cracker 3.40 0067  02.08.2006

@<TRIPOS>MOLECULE
ASD11030020
  37   40    0    0    0
SMALL
NO_CHARGES


@<TRIPOS>ATOM
   1 F1             0.1306     0.0929    -0.9877 F       
   2 C2             0.0813     1.4203    -0.7415 C.ar    
   3 C3            -0.9568     2.1803    -1.2594 C.ar    
   4 C4            -1.0135     3.5345    -1.0120 C.ar    
   5 C5            -0.0202     4.1430    -0.2359 C.ar    
   6 C6             1.0247     3.3698     0.2837 C.ar    
   7 C7             1.0660     2.0157     0.0327 C.ar    
   8 C8            -0.0738     5.5867     0.0318 C.2     
   9 C9            -1.2545     6.2497    -0.0562 C.2     
  10 S10           -2.8702     5.5619    -0.3092 S.3     
  11 C11           -3.7018     7.1265    -0.2801 C.2     
  12 N12           -4.9957     7.3318    -0.4192 N.2     
  13 C13           -5.4911     8.5945    -0.3740 C.2     
  14 N14           -4.7953     9.6914    -0.1992 N.2     
  15 N15           -5.4246    10.7841    -0.1841 N.2     
  16 C16           -6.7180    10.7422    -0.3432 C.2     
  17 S17           -7.1863     9.0532    -0.5476 S.3     
  18 C18           -7.6300    11.9045    -0.3565 C.ar    
  19 C19           -7.1235    13.1948    -0.1889 C.ar    
  20 C20           -7.9799    14.2758    -0.2022 C.ar    
  21 C21           -9.3396    14.0835    -0.3812 C.ar    
  22 C22           -9.8481    12.8061    -0.5474 C.ar    
  23 C23           -9.0011    11.7176    -0.5423 C.ar    
  24 Cl24         -10.4112    15.4492    -0.3967 Cl      
  25 N25           -2.7417     8.0784    -0.0846 N.am    
  26 C26           -1.4822     7.6956     0.0428 C.2     
  27 O27           -0.5751     8.4875     0.2194 O.2     
  28 H28           -1.7223     1.7095    -1.8584 H       
  29 H29           -1.8223     4.1251    -1.4163 H       
  30 H30            1.7945     3.8330     0.8831 H       
  31 H31            1.8715     1.4179     0.4329 H       
  32 H32            0.8266     6.1201     0.2987 H       
  33 H33           -6.0633    13.3460    -0.0489 H       
  34 H34           -7.5894    15.2744    -0.0723 H       
  35 H35          -10.9094    12.6624    -0.6862 H       
  36 H36           -9.3987    10.7219    -0.6723 H       
  37 H37           -2.9798     9.0175    -0.0358 H       
@<TRIPOS>BOND
   1    1    2 1
   2    2    3 ar
   3    2    7 ar
   4    3    4 ar
   5    3   28 1
   6    4    5 ar
   7    4   29 1
   8    5    6 ar
   9    5    8 1
  10    6    7 ar
  11    6   30 1
  12    7   31 1
  13    8    9 2
  14    8   32 1
  15    9   10 1
  16    9   26 1
  17   10   11 1
  18   11   12 2
  19   11   25 1
  20   12   13 1
  21   13   14 2
  22   13   17 1
  23   14   15 1
  24   15   16 2
  25   16   17 1
  26   16   18 1
  27   18   19 ar
  28   18   23 ar
  29   19   20 ar
  30   19   33 1
  31   20   21 ar
  32   20   34 1
  33   21   22 ar
  34   21   24 1
  35   22   23 ar
  36   22   35 1
  37   23   36 1
  38   25   26 am
  39   25   37 1
  40   26   27 2

#	End of record

