#	Name: ASD15280030
#	Creating user name:	WinNT
#	Creation time:	15. 06. 2019 21:31

#	Modifying user name:	WinNT
#	Modification time:	15. 06. 2019 21:31

#	Program:	/corina/corina34_cracker 3.40 0067  02.08.2006

@<TRIPOS>MOLECULE
ASD15280030
  43   46    0    0    0
SMALL
NO_CHARGES


@<TRIPOS>ATOM
   1 F1             0.0021    -0.0041     0.0020 F       
   2 C2            -0.0169     1.3948     0.0097 C.3     
   3 F3             1.2956     1.8790    -0.0002 F       
   4 F4            -0.6935     1.8582    -1.1237 F       
   5 C5            -0.7223     1.8808     1.2496 C.2     
   6 N6            -1.1420     1.1227     2.2056 N.2     
   7 C7            -1.7399     1.7121     3.2213 C.2     
   8 C8            -1.8296     3.0413     3.1163 C.2     
   9 C9            -2.4596     3.9697     4.1225 C.3     
  10 N10           -1.4466     4.4032     5.0880 N.am    
  11 C11           -1.7835     5.2431     6.0868 C.2     
  12 O12           -2.9277     5.6410     6.1864 O.2     
  13 C13           -0.7612     5.6806     7.0613 C.ar    
  14 C14            0.5543     5.2288     6.9443 C.ar    
  15 C15            1.5030     5.6476     7.8547 C.ar    
  16 C16            1.1553     6.5046     8.8813 C.ar    
  17 C17           -0.1504     6.9566     9.0187 C.ar    
  18 N18           -0.5335     7.7943    10.0499 N.am    
  19 C19            0.0216     8.8697    10.5402 C.2     
  20 O20           -0.5911     9.4017    11.4453 O.2     
  21 C21            1.2727     9.5296    10.1620 C.ar    
  22 C22            1.3145    10.9249    10.0522 C.ar    
  23 C23            2.4885    11.5564     9.7032 C.ar    
  24 C24            3.6336    10.8193     9.4599 C.ar    
  25 C25            3.6034     9.4391     9.5636 C.ar    
  26 C26            2.4344     8.7983     9.9081 C.ar    
  27 S27            2.3891     7.0389    10.0251 S.o2    
  28 O28            1.8982     6.7321    11.3228 O.2     
  29 O29            3.6339     6.5678     9.5272 O.2     
  30 C30           -1.1083     6.5483     8.0933 C.ar    
  31 S31           -1.0757     3.5173     1.5966 S.3     
  32 H32           -2.1262     1.1656     4.0690 H       
  33 H33           -2.8674     4.8400     3.6083 H       
  34 H34           -3.2610     3.4483     4.6460 H       
  35 H35           -0.5335     4.0857     5.0086 H       
  36 H36            0.8280     4.5550     6.1459 H       
  37 H37            2.5227     5.3034     7.7646 H       
  38 H38           -1.3612     7.5380    10.4860 H       
  39 H39            0.4248    11.5072    10.2410 H       
  40 H40            2.5147    12.6328     9.6188 H       
  41 H41            4.5510    11.3205     9.1887 H       
  42 H42            4.4977     8.8642     9.3735 H       
  43 H43           -2.1249     6.9026     8.1794 H       
@<TRIPOS>BOND
   1    1    2 1
   2    2    3 1
   3    2    4 1
   4    2    5 1
   5    5   31 1
   6    5    6 2
   7    6    7 1
   8    7    8 2
   9    7   32 1
  10    8    9 1
  11    8   31 1
  12    9   10 1
  13    9   33 1
  14    9   34 1
  15   10   11 am
  16   10   35 1
  17   11   12 2
  18   11   13 1
  19   13   30 ar
  20   13   14 ar
  21   14   15 ar
  22   14   36 1
  23   15   16 ar
  24   15   37 1
  25   16   27 1
  26   16   17 ar
  27   17   18 1
  28   17   30 ar
  29   18   19 am
  30   18   38 1
  31   19   20 2
  32   19   21 1
  33   21   26 ar
  34   21   22 ar
  35   22   23 ar
  36   22   39 1
  37   23   24 ar
  38   23   40 1
  39   24   25 ar
  40   24   41 1
  41   25   26 ar
  42   25   42 1
  43   26   27 1
  44   27   28 2
  45   27   29 2
  46   30   43 1

#	End of record

