#	Name: ASD10160270
#	Creating user name:	WinNT
#	Creation time:	15. 06. 2019 21:25

#	Modifying user name:	WinNT
#	Modification time:	15. 06. 2019 21:25

#	Program:	/corina/corina34_cracker 3.40 0067  02.08.2006

@<TRIPOS>MOLECULE
ASD10160270
  41   42    0    0    0
SMALL
NO_CHARGES


@<TRIPOS>ATOM
   1 C1            -0.3549     1.5070    -0.0955 C.2     
   2 C2            -0.1912     0.0401    -0.0867 C.ar    
   3 C3             0.9974    -0.5350    -0.5447 C.ar    
   4 C4             1.1465    -1.9036    -0.5344 C.ar    
   5 C5             0.1164    -2.7134    -0.0693 C.ar    
   6 C6            -1.0675    -2.1453     0.3865 C.ar    
   7 C7            -1.2220    -0.7768     0.3848 C.ar    
   8 O8             0.5766     2.2207    -0.4136 O.2     
   9 N9            -1.5386     2.0550     0.2436 N.am    
  10 S10           -1.7222     3.7008     0.2337 S.o2    
  11 O11           -3.0617     3.9065     0.6611 O.2     
  12 O12           -0.6266     4.1803     1.0012 O.2     
  13 C13           -1.5313     4.1671    -1.5089 C.3     
  14 C14            2.1143     0.3419    -1.0494 C.3     
  15 O15            0.2670    -4.0620    -0.0608 O.3     
  16 C16            1.2842    -5.9754     0.9340 C.ar    
  17 C17            1.0140    -4.6142     0.9311 C.ar    
  18 C18            1.5191    -3.8230     1.9579 C.ar    
  19 C19            2.2757    -4.4315     2.9467 C.ar    
  20 C20            2.5020    -5.7934     2.8812 C.ar    
  21 N21            2.0086    -6.5151     1.8938 N.ar    
  22 C22            3.3242    -6.4626     3.9523 C.3     
  23 C23            2.5223    -7.6112     4.5677 C.3     
  24 H24            2.0645    -2.3487    -0.8885 H       
  25 H25           -1.8656    -2.7777     0.7463 H       
  26 H26           -2.1404    -0.3359     0.7433 H       
  27 H27           -2.2829     1.4854     0.4935 H       
  28 H28           -2.2963     3.6687    -2.1043 H       
  29 H29           -1.6386     5.2471    -1.6098 H       
  30 H30           -0.5442     3.8657    -1.8596 H       
  31 H31            2.7083     0.6949    -0.2065 H       
  32 H32            2.7483    -0.2309    -1.7262 H       
  33 H33            1.6940     1.1958    -1.5807 H       
  34 H34            0.8932    -6.5996     0.1441 H       
  35 H35            1.3267    -2.7606     1.9836 H       
  36 H36            2.6840    -3.8482     3.7588 H       
  37 H37            4.2422    -6.8543     3.5142 H       
  38 H38            3.5721    -5.7367     4.7267 H       
  39 H39            1.6043    -7.2195     5.0059 H       
  40 H40            2.2744    -8.3370     3.7933 H       
  41 H41            3.1170    -8.0952     5.3425 H       
@<TRIPOS>BOND
   1    1    2 1
   2    1    8 2
   3    1    9 am
   4    2    3 ar
   5    2    7 ar
   6    3    4 ar
   7    3   14 1
   8    4    5 ar
   9    4   24 1
  10    5    6 ar
  11    5   15 1
  12    6    7 ar
  13    6   25 1
  14    7   26 1
  15    9   10 am
  16    9   27 1
  17   10   11 2
  18   10   12 2
  19   10   13 1
  20   13   28 1
  21   13   29 1
  22   13   30 1
  23   14   31 1
  24   14   32 1
  25   14   33 1
  26   15   17 1
  27   16   17 ar
  28   16   21 ar
  29   16   34 1
  30   17   18 ar
  31   18   19 ar
  32   18   35 1
  33   19   20 ar
  34   19   36 1
  35   20   21 ar
  36   20   22 1
  37   22   23 1
  38   22   37 1
  39   22   38 1
  40   23   39 1
  41   23   40 1
  42   23   41 1

#	End of record

