#	Name: ASD10410016
#	Creating user name:	WinNT
#	Creation time:	15. 06. 2019 21:26

#	Modifying user name:	WinNT
#	Modification time:	15. 06. 2019 21:26

#	Program:	/corina/corina34_cracker 3.40 0067  02.08.2006

@<TRIPOS>MOLECULE
ASD10410016
  70   74    0    0    0
SMALL
NO_CHARGES


@<TRIPOS>ATOM
   1 C1            -0.7918     1.4580     1.0247 C.ar    
   2 C2            -1.1633     0.1842     0.5975 C.ar    
   3 C3             0.6008     1.9294     0.8339 C.ar    
   4 N4             0.8709     2.9087    -0.0263 N.ar    
   5 C5             1.6498     1.3563     1.5587 C.ar    
   6 C6             2.9323     1.8292     1.3473 C.ar    
   7 N7             3.1275     2.8029     0.4719 N.ar    
   8 C8             2.1136     3.3314    -0.1979 C.ar    
   9 C9             1.3893     0.2495     2.5477 C.3     
  10 N10            2.3612     4.3485    -1.1054 N.pl3   
  11 C11            3.6657     4.8148    -1.2940 C.ar    
  12 C12            3.8962     6.1659    -1.5194 C.ar    
  13 C13            5.1860     6.6232    -1.7049 C.ar    
  14 C14            6.2474     5.7377    -1.6669 C.ar    
  15 C15            6.0214     4.3919    -1.4432 C.ar    
  16 C16            4.7346     3.9288    -1.2508 C.ar    
  17 C17            7.6535     6.2403    -1.8702 C.3     
  18 N18            8.2338     6.6100    -0.5723 N.3     
  19 C19            9.6733     6.8786    -0.6964 C.3     
  20 C20           10.2227     7.3362     0.6569 C.3     
  21 N21            9.9687     6.2955     1.6630 N.3     
  22 C22            8.5293     6.0270     1.7870 C.3     
  23 C23            7.9799     5.5694     0.4338 C.3     
  24 C24           10.5491     6.6653     2.9608 C.3     
  25 C25           -2.4603    -0.2503     0.7772 C.ar    
  26 C26           -3.0309     1.8489     1.7974 C.ar    
  27 C27           -1.7352     2.2895     1.6270 C.ar    
  28 S28           -1.2761     3.9061     2.1569 S.o2    
  29 O29           -0.5068     4.4702     1.1037 O.2     
  30 O30           -2.4560     4.5111     2.6677 O.2     
  31 N31           -0.2481     3.7269     3.4427 N.am    
  32 C32            1.2073     3.9331     3.4114 C.3     
  33 C33            1.7438     3.6278     4.8258 C.3     
  34 C34            0.6389     2.7201     5.4281 C.3     
  35 C35           -0.6415     3.3405     4.8099 C.3     
  36 C36           -3.3930     0.5773     1.3814 C.ar    
  37 F37           -4.6621     0.1478     1.5550 F       
  38 H38           -0.4371    -0.4614     0.1261 H       
  39 H39            3.7655     1.4089     1.8910 H       
  40 H40            1.3645    -0.7066     2.0247 H       
  41 H41            2.1834     0.2348     3.2941 H       
  42 H42            0.4315     0.4196     3.0394 H       
  43 H43            1.6295     4.7371    -1.6099 H       
  44 H44            3.0676     6.8579    -1.5499 H       
  45 H45            5.3659     7.6736    -1.8801 H       
  46 H46            6.8525     3.7028    -1.4148 H       
  47 H47            4.5588     2.8777    -1.0758 H       
  48 H48            8.2569     5.4564    -2.3279 H       
  49 H49            7.6365     7.1134    -2.5226 H       
  50 H50           10.1872     5.9695    -1.0089 H       
  51 H51            9.8347     7.6611    -1.4378 H       
  52 H52           11.2959     7.5081     0.5744 H       
  53 H53            9.7280     8.2601     0.9565 H       
  54 H54            8.3679     5.2445     2.5284 H       
  55 H55            8.0154     6.9361     2.0995 H       
  56 H56            6.9067     5.3975     0.5163 H       
  57 H57            8.4746     4.6455     0.1341 H       
  58 H58           10.1049     7.5995     3.3045 H       
  59 H59           10.3466     5.8779     3.6869 H       
  60 H60           11.6263     6.7928     2.8541 H       
  61 H61           -2.7492    -1.2369     0.4461 H       
  62 H62           -3.7622     2.4923     2.2638 H       
  63 H63            1.6621     3.2562     2.6883 H       
  64 H64            1.4297     4.9666     3.1457 H       
  65 H65            2.6933     3.0951     4.7714 H       
  66 H66            1.8477     4.5451     5.4052 H       
  67 H67            0.7678     1.6852     5.1114 H       
  68 H68            0.6215     2.7950     6.5154 H       
  69 H69           -0.9538     4.2144     5.3818 H       
  70 H70           -1.4425     2.6021     4.7762 H       
@<TRIPOS>BOND
   1    1    2 ar
   2    1    3 1
   3    1   27 ar
   4    2   25 ar
   5    2   38 1
   6    3    4 ar
   7    3    5 ar
   8    4    8 ar
   9    5    6 ar
  10    5    9 1
  11    6    7 ar
  12    6   39 1
  13    7    8 ar
  14    8   10 1
  15    9   40 1
  16    9   41 1
  17    9   42 1
  18   10   11 1
  19   10   43 1
  20   11   12 ar
  21   11   16 ar
  22   12   13 ar
  23   12   44 1
  24   13   14 ar
  25   13   45 1
  26   14   15 ar
  27   14   17 1
  28   15   16 ar
  29   15   46 1
  30   16   47 1
  31   17   18 1
  32   17   48 1
  33   17   49 1
  34   18   19 1
  35   18   23 1
  36   19   20 1
  37   19   50 1
  38   19   51 1
  39   20   21 1
  40   20   52 1
  41   20   53 1
  42   21   22 1
  43   21   24 1
  44   22   23 1
  45   22   54 1
  46   22   55 1
  47   23   56 1
  48   23   57 1
  49   24   58 1
  50   24   59 1
  51   24   60 1
  52   25   36 ar
  53   25   61 1
  54   26   27 ar
  55   26   36 ar
  56   26   62 1
  57   27   28 1
  58   28   29 2
  59   28   30 2
  60   28   31 am
  61   31   32 1
  62   31   35 1
  63   32   33 1
  64   32   63 1
  65   32   64 1
  66   33   34 1
  67   33   65 1
  68   33   66 1
  69   34   35 1
  70   34   67 1
  71   34   68 1
  72   35   69 1
  73   35   70 1
  74   36   37 1

#	End of record

