#	Name: ASD10220019
#	Creating user name:	WinNT
#	Creation time:	15. 06. 2019 21:26

#	Modifying user name:	WinNT
#	Modification time:	15. 06. 2019 21:26

#	Program:	/corina/corina34_cracker 3.40 0067  02.08.2006

@<TRIPOS>MOLECULE
ASD10220019
  27   29    0    0    0
SMALL
NO_CHARGES


@<TRIPOS>ATOM
   1 C1            -0.0063     1.4630    -0.1711 C.2     
   2 C2             0.0237     0.0553    -0.3194 C.2     
   3 C3            -1.1113    -0.6715    -0.3759 C.2     
   4 C4            -2.4335    -0.0557    -0.2883 C.2     
   5 C5            -2.5492     1.3178    -0.1416 C.2     
   6 C6            -1.3376     2.1503    -0.0695 C.2     
   7 O7            -3.6756    -0.5755    -0.3216 O.3     
   8 C8            -4.6062     0.3736    -0.2056 C.2     
   9 C9            -3.9870     1.6015    -0.0870 C.2     
  10 O10           -1.4123     3.3542     0.0587 O.2     
  11 O11            1.0256     2.1023    -0.1219 O.2     
  12 C12           -4.6330     2.9169     0.0634 C.2     
  13 O13           -3.9566     3.9067     0.2672 O.2     
  14 C14           -6.1032     3.0336    -0.0334 C.ar    
  15 C15           -6.8281     2.1342    -0.8181 C.ar    
  16 C16           -8.2000     2.2489    -0.9040 C.ar    
  17 C17           -8.8581     3.2524    -0.2148 C.ar    
  18 C18           -8.1459     4.1473     0.5643 C.ar    
  19 C19           -6.7744     4.0403     0.6640 C.ar    
  20 H20            0.9767    -0.4479    -0.3891 H       
  21 H21           -1.0405    -1.7431    -0.4899 H       
  22 H22           -5.6734     0.2077    -0.2050 H       
  23 H23           -6.3157     1.3508    -1.3568 H       
  24 H24           -8.7618     1.5542    -1.5108 H       
  25 H25           -9.9324     3.3377    -0.2856 H       
  26 H26           -8.6657     4.9285     1.0990 H       
  27 H27           -6.2198     4.7394     1.2724 H       
@<TRIPOS>BOND
   1    1    2 1
   2    1   11 2
   3    1    6 1
   4    2    3 2
   5    2   20 1
   6    3    4 1
   7    3   21 1
   8    4    5 2
   9    4    7 1
  10    5    6 1
  11    5    9 1
  12    6   10 2
  13    7    8 1
  14    8    9 2
  15    8   22 1
  16    9   12 1
  17   12   13 2
  18   12   14 1
  19   14   15 ar
  20   14   19 ar
  21   15   16 ar
  22   15   23 1
  23   16   17 ar
  24   16   24 1
  25   17   18 ar
  26   17   25 1
  27   18   19 ar
  28   18   26 1
  29   19   27 1

#	End of record

