#	Name: ASD11000233
#	Creating user name:	WinNT
#	Creation time:	15. 06. 2019 21:29

#	Modifying user name:	WinNT
#	Modification time:	15. 06. 2019 21:29

#	Program:	/corina/corina34_cracker 3.40 0067  02.08.2006

@<TRIPOS>MOLECULE
ASD11000233
  44   48    0    0    0
SMALL
NO_CHARGES


@<TRIPOS>ATOM
   1 N1            -0.0172     1.3215    -0.0111 N.ar    
   2 C2             0.0016    -0.0034    -0.0059 C.ar    
   3 N3             1.1403    -0.6810    -0.0153 N.ar    
   4 C4             2.3025    -0.0498    -0.0303 C.ar    
   5 C5             2.3192     1.3362    -0.0362 C.ar    
   6 C6             1.1099     2.0136    -0.0260 C.ar    
   7 N7            -1.1974    -0.6965     0.0102 N.pl3   
   8 C8            -1.2009    -2.0922    -0.1029 C.ar    
   9 C9            -2.1491    -2.8416     0.5799 C.ar    
  10 C10           -0.2594    -2.7264    -0.9027 C.ar    
  11 C11           -0.2634    -4.1064    -1.0142 C.ar    
  12 C12           -1.2128    -4.8561    -0.3231 C.ar    
  13 C13           -2.1534    -4.2194     0.4695 C.ar    
  14 C14            3.6239     2.0904    -0.0527 C.3     
  15 C15            4.0505     2.3397    -1.5007 C.3     
  16 C16            5.3551     3.0938    -1.5172 C.ar    
  17 C17            6.5338     2.4055    -1.5266 C.ar    
  18 C18            7.7443     3.1066    -1.5420 C.ar    
  19 C19            7.7338     4.5151    -1.5476 C.ar    
  20 C20            6.5159     5.1899    -1.5378 C.ar    
  21 C21            5.3467     4.4830    -1.5285 C.ar    
  22 C22            9.1479     2.7071    -1.5548 C.2     
  23 N23            9.8699     3.7910    -1.5667 N.2     
  24 N24            9.0432     4.9192    -1.5628 N.pl3   
  25 O25            0.5363    -4.9587    -1.7195 O.3     
  26 C26            0.3267    -6.2569    -1.1334 C.3     
  27 O27           -1.0069    -6.1787    -0.5965 O.3     
  28 F28            0.4057    -7.2557    -2.1099 F       
  29 F29            1.2545    -6.4911    -0.1128 F       
  30 H30            3.2273    -0.6075    -0.0376 H       
  31 H31            1.0881     3.0933    -0.0305 H       
  32 H32           -2.0347    -0.2151     0.0999 H       
  33 H33           -2.8839    -2.3477     1.1984 H       
  34 H34            0.4755    -2.1433    -1.4379 H       
  35 H35           -2.8891    -4.8008     1.0054 H       
  36 H36            3.4983     3.0448     0.4586 H       
  37 H37            4.3891     1.5038     0.4557 H       
  38 H38            4.1760     1.3853    -2.0120 H       
  39 H39            3.2853     2.9263    -2.0091 H       
  40 H40            6.5319     1.3255    -1.5218 H       
  41 H41            6.4954     6.2697    -1.5416 H       
  42 H42            4.4044     5.0107    -1.5210 H       
  43 H43            9.5211     1.6937    -1.5540 H       
  44 H44            9.3479     5.8401    -1.5694 H       
@<TRIPOS>BOND
   1    1    2 ar
   2    1    6 ar
   3    2    3 ar
   4    2    7 1
   5    3    4 ar
   6    4    5 ar
   7    4   30 1
   8    5    6 ar
   9    5   14 1
  10    6   31 1
  11    7    8 1
  12    7   32 1
  13    8    9 ar
  14    8   10 ar
  15    9   13 ar
  16    9   33 1
  17   10   11 ar
  18   10   34 1
  19   11   12 ar
  20   11   25 1
  21   12   13 ar
  22   12   27 1
  23   13   35 1
  24   14   15 1
  25   14   36 1
  26   14   37 1
  27   15   16 1
  28   15   38 1
  29   15   39 1
  30   16   17 ar
  31   16   21 ar
  32   17   18 ar
  33   17   40 1
  34   18   19 ar
  35   18   22 1
  36   19   20 ar
  37   19   24 1
  38   20   21 ar
  39   20   41 1
  40   21   42 1
  41   22   23 2
  42   22   43 1
  43   23   24 1
  44   24   44 1
  45   25   26 1
  46   26   27 1
  47   26   28 1
  48   26   29 1

#	End of record

