#	Name: ASD12970007
#	Creating user name:	WinNT
#	Creation time:	15. 06. 2019 21:30

#	Modifying user name:	WinNT
#	Modification time:	15. 06. 2019 21:30

#	Program:	/corina/corina34_cracker 3.40 0067  02.08.2006

@<TRIPOS>MOLECULE
ASD12970007
  20   19    0    0    0
SMALL
NO_CHARGES


@<TRIPOS>ATOM
   1 C1            -0.0187     1.5258     0.0104 C.3     
   2 C2             0.0021    -0.0041     0.0020 C.3     
   3 C3            -1.4333    -0.5336     0.0129 C.3     
   4 C4            -1.4129    -2.0405     0.0046 C.2     
   5 O5            -2.5661    -2.7274     0.0119 O.3     
   6 O6            -0.3584    -2.6303    -0.0086 O.2     
   7 C7            -2.4704    -4.1762     0.0032 C.3     
   8 C8            -3.8761    -4.7802     0.0134 C.3     
   9 H9             1.0039     1.9031     0.0027 H       
  10 H10           -0.5459     1.8868    -0.8726 H       
  11 H11           -0.5289     1.8773     0.9072 H       
  12 H12            0.5123    -0.3556    -0.8948 H       
  13 H13            0.5293    -0.3651     0.8851 H       
  14 H14           -1.9435    -0.1821     0.9097 H       
  15 H15           -1.9605    -0.1726    -0.8702 H       
  16 H16           -1.9423    -4.5001    -0.8936 H       
  17 H17           -1.9253    -4.5096     0.8863 H       
  18 H18           -3.8043    -5.8678     0.0069 H       
  19 H19           -4.4043    -4.4563     0.9102 H       
  20 H20           -4.4212    -4.4467    -0.8696 H       
@<TRIPOS>BOND
   1    1    2 1
   2    1    9 1
   3    1   10 1
   4    1   11 1
   5    2    3 1
   6    2   12 1
   7    2   13 1
   8    3    4 1
   9    3   14 1
  10    3   15 1
  11    4    5 1
  12    4    6 2
  13    5    7 1
  14    7    8 1
  15    7   16 1
  16    7   17 1
  17    8   18 1
  18    8   19 1
  19    8   20 1

#	End of record

