#	Name: ASD10610031
#	Creating user name:	WinNT
#	Creation time:	15. 06. 2019 21:27

#	Modifying user name:	WinNT
#	Modification time:	15. 06. 2019 21:27

#	Program:	/corina/corina34_cracker 3.40 0067  02.08.2006

@<TRIPOS>MOLECULE
ASD10610031
  56   59    0    0    0
SMALL
NO_CHARGES


@<TRIPOS>ATOM
   1 O1            -0.2540     1.2027    -1.1926 O.3     
   2 N2            -0.6624     0.1667    -1.6629 N.2     
   3 C3            -1.0321     0.3069    -2.9027 C.2     
   4 C4            -0.8087     1.6605    -3.2395 C.2     
   5 C5            -0.3005     2.2041    -2.0914 C.2     
   6 C6             0.1122     3.6045    -1.8806 C.2     
   7 O7             0.0148     4.4099    -2.7862 O.2     
   8 N8             0.5973     3.9912    -0.6841 N.am    
   9 O9            -0.2523     6.2801     0.7541 O.3     
  10 C10            0.0438     6.4526    -0.6378 C.3     
  11 C11            1.1054     5.3536    -0.5053 C.3     
  12 C12            1.1018     5.8503     0.9457 C.3     
  13 C13            2.3832     5.6229    -1.2575 C.2     
  14 N14            3.3087     4.6513    -1.3832 N.am    
  15 O15            2.5786     6.7139    -1.7499 O.2     
  16 C16            4.5958     4.9435    -2.0189 C.3     
  17 C17            4.4580     4.8058    -3.5365 C.3     
  18 C18            5.6349     3.9734    -1.5188 C.ar    
  19 C19            6.8849     4.4430    -1.1490 C.ar    
  20 C20            7.8363     3.5459    -0.6893 C.ar    
  21 C21            7.4915     2.1935    -0.6176 C.ar    
  22 C22            6.2127     1.8020    -1.0085 C.ar    
  23 N23            5.3390     2.6911    -1.4345 N.ar    
  24 F24            7.1732     5.7600    -1.2359 F       
  25 C25            8.4714     1.1907    -0.1334 C.ar    
  26 C26            9.0819     1.3513     1.1138 C.ar    
  27 C27            9.9968     0.4096     1.5590 C.ar    
  28 C28           10.3035    -0.6848     0.7708 C.ar    
  29 C29            9.7006    -0.8460    -0.4650 C.ar    
  30 C30            8.7828     0.0821    -0.9171 C.ar    
  31 O31            8.7800     2.4272     1.8870 O.3     
  32 C32            7.6558     2.3034     2.7604 C.3     
  33 C33            7.4129     3.6364     3.4710 C.3     
  34 F34            8.5460     3.9813     4.2155 F       
  35 F35            7.1583     4.6316     2.5213 F       
  36 Cl36          10.0935    -2.2231    -1.4462 Cl      
  37 Cl37          10.7584     0.6044     3.1068 Cl      
  38 H38           -1.4312    -0.4615    -3.5481 H       
  39 H39           -0.9952     2.1515    -4.1832 H       
  40 H40            0.6100     3.3675     0.0587 H       
  41 H41           -0.7829     6.1788    -1.2933 H       
  42 H42            0.4614     7.4315    -0.8733 H       
  43 H43            1.7955     6.6719     1.1236 H       
  44 H44            1.2019     5.0488     1.6777 H       
  45 H45            3.1227     3.7586    -1.0526 H       
  46 H46            4.9001     5.9608    -1.7726 H       
  47 H47            5.4156     5.0232    -4.0095 H       
  48 H48            4.1537     3.7885    -3.7828 H       
  49 H49            3.7064     5.5074    -3.8982 H       
  50 H50            8.8190     3.8833    -0.3944 H       
  51 H51            5.9337     0.7598    -0.9579 H       
  52 H52           11.0167    -1.4165     1.1208 H       
  53 H53            8.3107    -0.0492    -1.8795 H       
  54 H54            6.7729     2.0348     2.1803 H       
  55 H55            7.8541     1.5281     3.5003 H       
  56 H56            6.5553     3.5421     4.1372 H       
@<TRIPOS>BOND
   1    1    2 1
   2    1    5 1
   3    2    3 2
   4    3    4 1
   5    3   38 1
   6    4    5 2
   7    4   39 1
   8    5    6 1
   9    6    7 2
  10    6    8 am
  11    8   11 1
  12    8   40 1
  13    9   10 1
  14    9   12 1
  15   10   11 1
  16   10   41 1
  17   10   42 1
  18   11   12 1
  19   11   13 1
  20   12   43 1
  21   12   44 1
  22   13   14 am
  23   13   15 2
  24   14   16 1
  25   14   45 1
  26   16   17 1
  27   16   18 1
  28   16   46 1
  29   17   47 1
  30   17   48 1
  31   17   49 1
  32   18   19 ar
  33   18   23 ar
  34   19   20 ar
  35   19   24 1
  36   20   21 ar
  37   20   50 1
  38   21   22 ar
  39   21   25 1
  40   22   23 ar
  41   22   51 1
  42   25   26 ar
  43   25   30 ar
  44   26   27 ar
  45   26   31 1
  46   27   28 ar
  47   27   37 1
  48   28   29 ar
  49   28   52 1
  50   29   30 ar
  51   29   36 1
  52   30   53 1
  53   31   32 1
  54   32   33 1
  55   32   54 1
  56   32   55 1
  57   33   34 1
  58   33   35 1
  59   33   56 1

#	End of record

