#	Name: ASD10160548
#	Creating user name:	WinNT
#	Creation time:	15. 06. 2019 21:26

#	Modifying user name:	WinNT
#	Modification time:	15. 06. 2019 21:26

#	Program:	/corina/corina34_cracker 3.40 0067  02.08.2006

@<TRIPOS>MOLECULE
ASD10160548
  21   21    0    0    0
SMALL
NO_CHARGES


@<TRIPOS>ATOM
   1 C1            -0.0167     1.3834     0.0096 C.ar    
   2 C2             0.0021    -0.0041     0.0020 C.ar    
   3 C3             1.2267    -0.6631    -0.0133 C.ar    
   4 C4             2.3851     0.0993    -0.0203 C.ar    
   5 C5             2.2850     1.4791    -0.0119 C.ar    
   6 N6             1.1072     2.0719     0.0026 N.ar    
   7 O7            -1.1599    -0.7091     0.0098 O.3     
   8 C8             3.5385     2.3156    -0.0194 C.3     
   9 C9             3.5504     3.2053    -1.2641 C.3     
  10 C10            3.5744     3.1919     1.2342 C.3     
  11 Cl11           3.9420    -0.6684    -0.0388 Cl      
  12 H12           -0.9625     1.9047     0.0170 H       
  13 H13            1.2743    -1.7420    -0.0192 H       
  14 H14           -1.5049    -0.9084    -0.8713 H       
  15 H15            4.4111     1.6625    -0.0313 H       
  16 H16            2.6778     3.8584    -1.2522 H       
  17 H17            4.4570     3.8104    -1.2695 H       
  18 H18            3.5249     2.5810    -2.1572 H       
  19 H19            2.7017     3.8450     1.2461 H       
  20 H20            3.5659     2.5580     2.1210 H       
  21 H21            4.4810     3.7970     1.2288 H       
@<TRIPOS>BOND
   1    1    2 ar
   2    1    6 ar
   3    1   12 1
   4    2    3 ar
   5    2    7 1
   6    3    4 ar
   7    3   13 1
   8    4    5 ar
   9    4   11 1
  10    5    6 ar
  11    5    8 1
  12    7   14 1
  13    8    9 1
  14    8   10 1
  15    8   15 1
  16    9   16 1
  17    9   17 1
  18    9   18 1
  19   10   19 1
  20   10   20 1
  21   10   21 1

#	End of record

