#	Name: ASD10420001
#	Creating user name:	WinNT
#	Creation time:	15. 06. 2019 21:27

#	Modifying user name:	WinNT
#	Modification time:	15. 06. 2019 21:27

#	Program:	/corina/corina34_cracker 3.40 0067  02.08.2006

@<TRIPOS>MOLECULE
ASD10420001
  53   54    0    0    0
SMALL
NO_CHARGES


@<TRIPOS>ATOM
   1 C1             0.0438     1.5298     0.0482 C.3     
   2 C2             0.0732    -0.0036     0.0395 C.3     
   3 N3             0.9221    -0.4507    -1.0737 N.am    
   4 C4             2.3029     0.0459    -1.1553 C.3     
   5 C5             2.2735     1.5793    -1.1466 C.3     
   6 N6             1.4245     2.0265    -0.0334 N.am    
   7 O7             4.8454     4.2984    -1.0903 O.3     
   8 C8             3.7004     3.6067    -1.1999 C.2     
   9 C9             3.6927     2.1191    -0.9590 C.3     
  10 C10            0.4430    -1.3013    -2.0029 C.2     
  11 O11            1.1544    -1.6640    -2.9188 O.2     
  12 O12           -0.8237    -1.7492    -1.9163 O.3     
  13 O13            2.6758     4.1767    -1.4917 O.2     
  14 O14            1.0811     3.3807     1.8352 O.3     
  15 C15            1.6657     4.2907     2.8040 C.3     
  16 C16            2.2502     5.5032     2.0766 C.3     
  17 C17            0.5860     4.7553     3.7835 C.3     
  18 C18            2.7767     3.5726     3.5725 C.3     
  19 C19            1.9036     2.8771     0.8958 C.2     
  20 O20            3.0778     3.1895     0.8857 O.2     
  21 C21           -2.7040    -3.0538    -2.6912 C.ar    
  22 C22           -3.7339    -2.3049    -3.2291 C.ar    
  23 C23           -5.0472    -2.6668    -2.9947 C.ar    
  24 C24           -5.3307    -3.7780    -2.2229 C.ar    
  25 C25           -4.3009    -4.5275    -1.6858 C.ar    
  26 C26           -2.9875    -4.1647    -1.9190 C.ar    
  27 C27           -1.2721    -2.6628    -2.9519 C.3     
  28 H28           -0.5256     1.8896    -0.8088 H       
  29 H29           -0.4176     1.8817     0.9709 H       
  30 H30            0.4838    -0.3669     0.9816 H       
  31 H31           -0.9380    -0.3881    -0.0941 H       
  32 H32            2.8723    -0.3139    -0.2983 H       
  33 H33            2.7642    -0.3059    -2.0780 H       
  34 H34            1.8628     1.9427    -2.0887 H       
  35 H35            4.8006     5.2504    -1.2540 H       
  36 H36            4.0281     1.9139     0.0576 H       
  37 H37            4.3630     1.6328    -1.6678 H       
  38 H38            1.4587     6.0148     1.5290 H       
  39 H39            2.6891     6.1864     2.8038 H       
  40 H40            3.0194     5.1723     1.3788 H       
  41 H41            0.1696     3.8915     4.3017 H       
  42 H42            1.0249     5.4384     4.5107 H       
  43 H43           -0.2055     5.2669     3.2359 H       
  44 H44            3.5459     3.2416     2.8747 H       
  45 H45            3.2156     4.2557     4.2997 H       
  46 H46            2.3603     2.7088     4.0907 H       
  47 H47           -3.5124    -1.4367    -3.8322 H       
  48 H48           -5.8518    -2.0812    -3.4144 H       
  49 H49           -6.3569    -4.0604    -2.0392 H       
  50 H50           -4.5224    -5.3952    -1.0821 H       
  51 H51           -2.1829    -4.7499    -1.4987 H       
  52 H52           -1.2000    -2.1743    -3.9236 H       
  53 H53           -0.6452    -3.5545    -2.9461 H       
@<TRIPOS>BOND
   1    1    2 1
   2    1    6 1
   3    1   28 1
   4    1   29 1
   5    2    3 1
   6    2   30 1
   7    2   31 1
   8    3    4 1
   9    3   10 am
  10    4    5 1
  11    4   32 1
  12    4   33 1
  13    5    6 1
  14    5    9 1
  15    5   34 1
  16    6   19 am
  17    7    8 1
  18    7   35 1
  19    8    9 1
  20    8   13 2
  21    9   36 1
  22    9   37 1
  23   10   11 2
  24   10   12 1
  25   12   27 1
  26   14   15 1
  27   14   19 1
  28   15   16 1
  29   15   17 1
  30   15   18 1
  31   16   38 1
  32   16   39 1
  33   16   40 1
  34   17   41 1
  35   17   42 1
  36   17   43 1
  37   18   44 1
  38   18   45 1
  39   18   46 1
  40   19   20 2
  41   21   22 ar
  42   21   26 ar
  43   21   27 1
  44   22   23 ar
  45   22   47 1
  46   23   24 ar
  47   23   48 1
  48   24   25 ar
  49   24   49 1
  50   25   26 ar
  51   25   50 1
  52   26   51 1
  53   27   52 1
  54   27   53 1

#	End of record

