#	Name: ASD10278001
#	Creating user name:	WinNT
#	Creation time:	15. 06. 2019 21:26

#	Modifying user name:	WinNT
#	Modification time:	15. 06. 2019 21:26

#	Program:	/corina/corina34_cracker 3.40 0067  02.08.2006

@<TRIPOS>MOLECULE
ASD10278001
  29   31    0    0    0
SMALL
NO_CHARGES


@<TRIPOS>ATOM
   1 C1            -0.0184     1.5028     0.0103 C.2     
   2 C2             0.0021    -0.0041     0.0020 C.3     
   3 O3             1.0191     2.1207     0.0037 O.2     
   4 C4            -0.1870    -1.6521     4.6273 C.ar    
   5 C5            -0.8896    -2.1233     5.6978 C.ar    
   6 C6            -2.2676    -2.2887     5.6300 C.ar    
   7 C7            -2.9524    -1.9828     4.4882 C.ar    
   8 C8            -2.2618    -1.4987     3.3761 C.ar    
   9 C9            -2.9552    -1.1572     2.1306 C.ar    
  10 C10           -4.3374    -1.3007     2.0004 C.ar    
  11 C11           -4.9444    -0.9703     0.8219 C.ar    
  12 C12           -4.2012    -0.4924    -0.2504 C.ar    
  13 C13           -2.8487    -0.3417    -0.1536 C.ar    
  14 C14           -2.1957    -0.6713     1.0421 C.ar    
  15 C15           -0.7948    -0.5237     1.1708 C.ar    
  16 C16           -0.1570    -0.8382     2.3161 C.ar    
  17 C17           -0.8601    -1.3291     3.4410 C.ar    
  18 H18           -0.9609     2.0300     0.0176 H       
  19 H19           -0.4361    -0.3683    -0.9272 H       
  20 H20            1.0315    -0.3539     0.0799 H       
  21 H21            0.8832    -1.5243     4.6953 H       
  22 H22           -0.3675    -2.3715     6.6101 H       
  23 H23           -2.8032    -2.6635     6.4897 H       
  24 H24           -4.0234    -2.1154     4.4461 H       
  25 H25           -4.9245    -1.6717     2.8276 H       
  26 H26           -6.0140    -1.0823     0.7225 H       
  27 H27           -4.7010    -0.2371    -1.1732 H       
  28 H28           -2.2832     0.0305    -0.9951 H       
  29 H29            0.9139    -0.7124     2.3761 H       
@<TRIPOS>BOND
   1    1    2 1
   2    1    3 2
   3    1   18 1
   4    2   15 1
   5    2   19 1
   6    2   20 1
   7    4    5 ar
   8    4   17 ar
   9    4   21 1
  10    5    6 ar
  11    5   22 1
  12    6    7 ar
  13    6   23 1
  14    7    8 ar
  15    7   24 1
  16    8    9 ar
  17    8   17 ar
  18    9   10 ar
  19    9   14 ar
  20   10   11 ar
  21   10   25 1
  22   11   12 ar
  23   11   26 1
  24   12   13 ar
  25   12   27 1
  26   13   14 ar
  27   13   28 1
  28   14   15 ar
  29   15   16 ar
  30   16   17 ar
  31   16   29 1

#	End of record

