#	Name: ASD10950037
#	Creating user name:	WinNT
#	Creation time:	15. 06. 2019 21:28

#	Modifying user name:	WinNT
#	Modification time:	15. 06. 2019 21:28

#	Program:	/corina/corina34_cracker 3.40 0067  02.08.2006

@<TRIPOS>MOLECULE
ASD10950037
  57   60    0    0    0
SMALL
NO_CHARGES


@<TRIPOS>ATOM
   1 C1            -0.0474     1.7243    -1.3394 C.3     
   2 O2            -0.0772     0.2787    -1.2068 O.3     
   3 C3             0.7869    -0.4230    -1.9655 C.2     
   4 O4             1.5445     0.1570    -2.7173 O.2     
   5 C5             0.8131    -1.8978    -1.8833 C.ar    
   6 C6            -0.0565    -2.5670    -1.0200 C.ar    
   7 C7            -0.0291    -3.9447    -0.9459 C.ar    
   8 C8             0.8576    -4.6658    -1.7237 C.ar    
   9 C9             1.7267    -4.0092    -2.5849 C.ar    
  10 C10            1.7034    -2.6277    -2.6725 C.ar    
  11 O11            2.5965    -4.7234    -3.3468 O.3     
  12 C12            3.4616    -3.9833    -4.2104 C.3     
  13 C13            0.8813    -6.1701    -1.6363 C.3     
  14 N14            0.9054    -6.5933    -0.2314 N.am    
  15 C15            1.9473    -6.2725     0.7473 C.3     
  16 C16            1.6097    -4.9487     1.4361 C.3     
  17 C17            2.5997    -4.6916     2.5429 C.2     
  18 C18            2.4437    -4.9971     3.8407 C.2     
  19 N19            3.5517    -4.6144     4.5464 N.pl3   
  20 C20            4.4710    -4.0386     3.6984 C.ar    
  21 C21            3.9174    -4.0667     2.4055 C.ar    
  22 C22            4.6362    -3.5441     1.3285 C.ar    
  23 C23            5.8753    -3.0074     1.5365 C.ar    
  24 C24            6.4262    -2.9778     2.8104 C.ar    
  25 C25            5.7359    -3.4908     3.8865 C.ar    
  26 C26           -0.1981    -7.3274    -0.0002 C.2     
  27 O27           -0.4886    -7.8329     1.0655 O.2     
  28 C28           -1.0059    -7.4272    -1.2358 C.2     
  29 C29           -0.3841    -6.7447    -2.2290 C.2     
  30 C30           -0.8335    -6.5989    -3.5628 C.2     
  31 O31           -1.9360    -6.9963    -3.8785 O.2     
  32 C32            0.0567    -5.9502    -4.5912 C.3     
  33 O33           -2.1767    -8.0919    -1.3554 O.3     
  34 H34            0.9430     2.0933    -1.0727 H       
  35 H35           -0.2723     1.9994    -2.3698 H       
  36 H36           -0.7905     2.1655    -0.6751 H       
  37 H37           -0.7500    -2.0068    -0.4105 H       
  38 H38           -0.7023    -4.4612    -0.2777 H       
  39 H39            2.3786    -2.1159    -3.3422 H       
  40 H40            2.8638    -3.4037    -4.9138 H       
  41 H41            4.0783    -3.3091    -3.6160 H       
  42 H42            4.1027    -4.6724    -4.7601 H       
  43 H43            1.7531    -6.5617    -2.1605 H       
  44 H44            2.0026    -7.0661     1.4924 H       
  45 H45            2.9076    -6.1833     0.2395 H       
  46 H46            1.6587    -4.1380     0.7092 H       
  47 H47            0.6041    -5.0023     1.8533 H       
  48 H48            1.5724    -5.4739     4.2650 H       
  49 H49            3.6715    -4.7310     5.5019 H       
  50 H50            4.2143    -3.5644     0.3345 H       
  51 H51            6.4308    -2.6034     0.7031 H       
  52 H52            7.4069    -2.5506     2.9589 H       
  53 H53            6.1730    -3.4630     4.8737 H       
  54 H54            1.0359    -5.7560    -4.1536 H       
  55 H55            0.1669    -6.6153    -5.4477 H       
  56 H56           -0.3888    -5.0100    -4.9163 H       
  57 H57           -2.4703    -8.5212    -0.5401 H       
@<TRIPOS>BOND
   1    1    2 1
   2    1   34 1
   3    1   35 1
   4    1   36 1
   5    2    3 1
   6    3    4 2
   7    3    5 1
   8    5    6 ar
   9    5   10 ar
  10    6    7 ar
  11    6   37 1
  12    7    8 ar
  13    7   38 1
  14    8    9 ar
  15    8   13 1
  16    9   10 ar
  17    9   11 1
  18   10   39 1
  19   11   12 1
  20   12   40 1
  21   12   41 1
  22   12   42 1
  23   13   14 1
  24   13   29 1
  25   13   43 1
  26   14   15 1
  27   14   26 am
  28   15   16 1
  29   15   44 1
  30   15   45 1
  31   16   17 1
  32   16   46 1
  33   16   47 1
  34   17   18 2
  35   17   21 1
  36   18   19 1
  37   18   48 1
  38   19   20 1
  39   19   49 1
  40   20   21 ar
  41   20   25 ar
  42   21   22 ar
  43   22   23 ar
  44   22   50 1
  45   23   24 ar
  46   23   51 1
  47   24   25 ar
  48   24   52 1
  49   25   53 1
  50   26   27 2
  51   26   28 1
  52   28   29 2
  53   28   33 1
  54   29   30 1
  55   30   31 2
  56   30   32 1
  57   32   54 1
  58   32   55 1
  59   32   56 1
  60   33   57 1

#	End of record

