#	Name: ASD11530001
#	Creating user name:	WinNT
#	Creation time:	15. 06. 2019 21:29

#	Modifying user name:	WinNT
#	Modification time:	15. 06. 2019 21:29

#	Program:	/corina/corina34_cracker 3.40 0067  02.08.2006

@<TRIPOS>MOLECULE
ASD11530001
  29   30    0    0    0
SMALL
NO_CHARGES


@<TRIPOS>ATOM
   1 O1             0.9457     1.7080    -0.5948 O.2     
   2 N2            -0.0133     1.2170    -0.0266 N.pl3   
   3 O3             0.0926     0.1350     0.5226 O.2     
   4 C4            -1.3056     1.9379     0.0017 C.ar    
   5 C5            -2.4906     1.2366    -0.1006 C.ar    
   6 C6            -3.6987     1.9095    -0.0738 C.ar    
   7 C7            -3.7243     3.2859     0.0550 C.ar    
   8 C8            -2.5425     3.9936     0.1574 C.ar    
   9 C9            -1.3278     3.3204     0.1370 C.ar    
  10 N10           -0.1309     4.0329     0.2408 N.pl3   
  11 C11           -0.1483     5.4978     0.2429 C.3     
  12 C12            1.2613     6.0167     0.3643 C.2     
  13 C13            2.0278     6.2670    -0.6983 C.2     
  14 S14            3.5977     6.8560    -0.1676 S.3     
  15 C15            3.1105     6.7254     1.5174 C.2     
  16 C16            1.8568     6.2753     1.5869 C.2     
  17 C17           -4.9900     1.1407    -0.1857 C.3     
  18 F18           -5.4296     0.7788     1.0922 F       
  19 F19           -5.9575     1.9415    -0.8023 F       
  20 F20           -4.7819    -0.0117    -0.9510 F       
  21 H21           -2.4741     0.1615    -0.2021 H       
  22 H22           -4.6693     3.8082     0.0753 H       
  23 H23           -2.5632     5.0687     0.2573 H       
  24 H24            0.7118     3.5578     0.3115 H       
  25 H25           -0.5890     5.8573    -0.6870 H       
  26 H26           -0.7402     5.8529     1.0865 H       
  27 H27            1.7300     6.1287    -1.7272 H       
  28 H28            3.7300     6.9759     2.3658 H       
  29 H29            1.3477     6.1168     2.5261 H       
@<TRIPOS>BOND
   1    1    2 2
   2    2    3 2
   3    2    4 1
   4    4    5 ar
   5    4    9 ar
   6    5    6 ar
   7    5   21 1
   8    6    7 ar
   9    6   17 1
  10    7    8 ar
  11    7   22 1
  12    8    9 ar
  13    8   23 1
  14    9   10 1
  15   10   11 1
  16   10   24 1
  17   11   12 1
  18   11   25 1
  19   11   26 1
  20   12   13 2
  21   12   16 1
  22   13   14 1
  23   13   27 1
  24   14   15 1
  25   15   16 2
  26   15   28 1
  27   16   29 1
  28   17   18 1
  29   17   19 1
  30   17   20 1

#	End of record

