#	Name: ASD10410074
#	Creating user name:	WinNT
#	Creation time:	15. 06. 2019 21:26

#	Modifying user name:	WinNT
#	Modification time:	15. 06. 2019 21:26

#	Program:	/corina/corina34_cracker 3.40 0067  02.08.2006

@<TRIPOS>MOLECULE
ASD10410074
  77   83    0    0    0
SMALL
NO_CHARGES


@<TRIPOS>ATOM
   1 C1             0.2151     0.9167     0.6406 C.ar    
   2 C2             0.3181    -0.4539     0.4421 C.ar    
   3 C3             1.5570    -1.0275     0.1879 C.ar    
   4 C4             2.6864    -0.2352     0.1326 C.ar    
   5 C5             2.5834     1.1355     0.3307 C.ar    
   6 C6             1.3445     1.7092     0.5848 C.ar    
   7 N7             3.7289     1.9390     0.2751 N.pl3   
   8 C8             3.6302     3.2663    -0.1422 C.2     
   9 N9             4.6083     4.1401    -0.1396 N.2     
  10 N10            2.5236     3.8518    -0.6150 N.2     
  11 C11            2.7803     5.1069    -0.9153 C.2     
  12 N12            4.0832     5.3445    -0.6349 N.pl3   
  13 C13            4.7689     6.5488    -0.8043 C.ar    
  14 N14            1.8797     6.0203    -1.4294 N.pl3   
  15 N15           -0.8268    -1.2572     0.4986 N.3     
  16 C16           -0.4922    -2.6683     0.2614 C.3     
  17 C17           -1.7544    -3.5210     0.4099 C.3     
  18 N18           -2.7714    -3.0564    -0.5437 N.3     
  19 C19           -3.1060    -1.6452    -0.3065 C.3     
  20 C20           -1.8437    -0.7925    -0.4551 C.3     
  21 C21           -3.9729    -3.8995    -0.4844 C.3     
  22 N22            4.3478     7.4313    -1.6984 N.ar    
  23 N23            4.9496     8.5491    -1.8974 N.ar    
  24 C24            6.0334     8.8891    -1.2182 C.ar    
  25 C25            6.5394     8.0291    -0.2391 C.ar    
  26 C26            5.8952     6.8264    -0.0275 C.ar    
  27 C27            7.7339     8.4267     0.5790 C.3     
  28 C28           -4.7054    -3.6456     0.8053 C.3     
  29 C29           -4.9106    -3.5485    -1.6578 C.3     
  30 C30           -5.8675    -4.6083    -1.9393 C.3     
  31 C31           -6.8086    -4.8823    -0.7484 C.3     
  32 C32           -6.0796    -5.7410     0.2493 C.3     
  33 C33           -5.3937    -4.9112     1.3514 C.3     
  34 C34            6.7239    10.1782    -1.4565 C.ar    
  35 C35            8.0219    10.3529    -0.9801 C.ar    
  36 C36            8.7217     9.2291    -0.2635 C.3     
  37 C37            6.0888    11.2080    -2.1447 C.ar    
  38 C38            6.7459    12.4062    -2.3422 C.ar    
  39 C39            8.0293    12.5813    -1.8563 C.ar    
  40 C40            8.6657    11.5581    -1.1772 C.ar    
  41 H41           -0.7489     1.3634     0.8342 H       
  42 H42            1.6371    -2.0935     0.0339 H       
  43 H43            3.6500    -0.6815    -0.0643 H       
  44 H44            1.2643     2.7752     0.7385 H       
  45 H45            4.5911     1.5726     0.5267 H       
  46 H46            0.9626     5.7540    -1.5998 H       
  47 H47            2.1646     6.9278    -1.6200 H       
  48 H48           -0.0924    -2.7829    -0.7462 H       
  49 H49            0.2532    -2.9924     0.9877 H       
  50 H50           -1.5144    -4.5645     0.2060 H       
  51 H51           -2.1388    -3.4278     1.4256 H       
  52 H52           -3.8513    -1.3211    -1.0329 H       
  53 H53           -3.5057    -1.5306     0.7010 H       
  54 H54           -2.0837     0.2510    -0.2511 H       
  55 H55           -1.4593    -0.8858    -1.4708 H       
  56 H56           -3.6868    -4.9494    -0.5458 H       
  57 H57            6.2546     6.1216     0.7078 H       
  58 H58            7.4054     9.0338     1.4226 H       
  59 H59            8.2272     7.5298     0.9536 H       
  60 H60           -3.9956    -3.2818     1.5482 H       
  61 H61           -5.4608    -2.8782     0.6366 H       
  62 H62           -5.4555    -2.6366    -1.4136 H       
  63 H63           -4.3091    -3.3701    -2.5491 H       
  64 H64           -6.4664    -4.3226    -2.8040 H       
  65 H65           -5.3226    -5.5222    -2.1760 H       
  66 H66           -7.0924    -3.9391    -0.2815 H       
  67 H67           -7.6997    -5.4036    -1.0982 H       
  68 H68           -6.7912    -6.4239     0.7134 H       
  69 H69           -5.3232    -6.3254    -0.2745 H       
  70 H70           -4.6465    -5.5323     1.8455 H       
  71 H71           -6.1426    -4.6149     2.0858 H       
  72 H72            9.4935     9.6430     0.3855 H       
  73 H73            9.1861     8.5699    -0.9969 H       
  74 H74            5.0866    11.0702    -2.5228 H       
  75 H75            6.2575    13.2074    -2.8769 H       
  76 H76            8.5372    13.5222    -2.0082 H       
  77 H77            9.6677    11.7022    -0.8007 H       
@<TRIPOS>BOND
   1    1    2 ar
   2    1    6 ar
   3    1   41 1
   4    2    3 ar
   5    2   15 1
   6    3    4 ar
   7    3   42 1
   8    4    5 ar
   9    4   43 1
  10    5    6 ar
  11    5    7 1
  12    6   44 1
  13    7    8 1
  14    7   45 1
  15    8    9 2
  16    8   10 1
  17    9   12 1
  18   10   11 2
  19   11   12 1
  20   11   14 1
  21   12   13 1
  22   13   22 ar
  23   13   26 ar
  24   14   46 1
  25   14   47 1
  26   15   16 1
  27   15   20 1
  28   16   17 1
  29   16   48 1
  30   16   49 1
  31   17   18 1
  32   17   50 1
  33   17   51 1
  34   18   19 1
  35   18   21 1
  36   19   20 1
  37   19   52 1
  38   19   53 1
  39   20   54 1
  40   20   55 1
  41   21   29 1
  42   21   28 1
  43   21   56 1
  44   22   23 ar
  45   23   24 ar
  46   24   25 ar
  47   24   34 1
  48   25   26 ar
  49   25   27 1
  50   26   57 1
  51   27   36 1
  52   27   58 1
  53   27   59 1
  54   28   33 1
  55   28   60 1
  56   28   61 1
  57   29   30 1
  58   29   62 1
  59   29   63 1
  60   30   31 1
  61   30   64 1
  62   30   65 1
  63   31   32 1
  64   31   66 1
  65   31   67 1
  66   32   33 1
  67   32   68 1
  68   32   69 1
  69   33   70 1
  70   33   71 1
  71   34   35 ar
  72   34   37 ar
  73   35   36 1
  74   35   40 ar
  75   36   72 1
  76   36   73 1
  77   37   38 ar
  78   37   74 1
  79   38   39 ar
  80   38   75 1
  81   39   40 ar
  82   39   76 1
  83   40   77 1

#	End of record

