#	Name: ASD10160028
#	Creating user name:	WinNT
#	Creation time:	15. 06. 2019 21:25

#	Modifying user name:	WinNT
#	Modification time:	15. 06. 2019 21:25

#	Program:	/corina/corina34_cracker 3.40 0067  02.08.2006

@<TRIPOS>MOLECULE
ASD10160028
  41   43    0    0    0
SMALL
NO_CHARGES


@<TRIPOS>ATOM
   1 C1             0.0724     1.0311    -1.4420 C.ar    
   2 C2             0.0494    -0.1966    -0.7729 C.ar    
   3 C3             1.2891     1.6959    -1.6338 C.ar    
   4 C4             2.4599     1.1368    -1.1617 C.ar    
   5 C5             2.4306    -0.0826    -0.4986 C.ar    
   6 C6             1.2221    -0.7463    -0.3058 C.ar    
   7 C7            -1.1804     1.6204    -1.9493 C.2     
   8 N8            -2.3501     0.9758    -1.7684 N.am    
   9 O9            -1.1582     2.6881    -2.5309 O.2     
  10 S10           -3.7570     1.6377    -2.3382 S.o2    
  11 O11           -4.7625     0.7118    -1.9494 O.2     
  12 O12           -3.7493     2.9658    -1.8329 O.2     
  13 O13            3.5837    -0.6293    -0.0369 O.3     
  14 C14            4.7257     0.1002    -0.1489 C.ar    
  15 C15            5.1009     0.9814     0.8614 C.ar    
  16 C16            5.5333    -0.0286    -1.2676 C.ar    
  17 N17            6.6435     0.6750    -1.3834 N.ar    
  18 C18            7.0287     1.5249    -0.4469 C.ar    
  19 C19            6.2721     1.7035     0.7050 C.ar    
  20 Cl20           6.7857     2.8216     1.9296 Cl      
  21 C21            8.9156     1.9961    -1.8125 C.3     
  22 O22            8.1792     2.2273    -0.6099 O.3     
  23 C23            9.7165     3.2196    -2.2964 C.3     
  24 O24           10.7813     2.2809    -2.5489 O.3     
  25 C25           10.2859     1.3306    -1.5845 C.3     
  26 F26            1.3178     2.8821    -2.2798 F       
  27 Cl27           1.1938    -2.2704     0.5249 Cl      
  28 C28           -3.5579     1.6414    -4.1412 C.3     
  29 H29           -0.8872    -0.7129    -0.6225 H       
  30 H30            3.3996     1.6484    -1.3088 H       
  31 H31           -2.3677     0.1241    -1.3045 H       
  32 H32            4.4927     1.0994     1.7460 H       
  33 H33            5.2510    -0.7133    -2.0537 H       
  34 H34            8.3191     1.5237    -2.5930 H       
  35 H35            9.3136     3.6822    -3.1974 H       
  36 H36            9.9406     3.9394    -1.5092 H       
  37 H37           10.6839     1.4735    -0.5799 H       
  38 H38           10.3345     0.2949    -1.9208 H       
  39 H39           -3.4172     0.6195    -4.4933 H       
  40 H40           -4.4488     2.0658    -4.6042 H       
  41 H41           -2.6882     2.2412    -4.4094 H       
@<TRIPOS>BOND
   1    1    2 ar
   2    1    3 ar
   3    1    7 1
   4    2    6 ar
   5    2   29 1
   6    3    4 ar
   7    3   26 1
   8    4    5 ar
   9    4   30 1
  10    5    6 ar
  11    5   13 1
  12    6   27 1
  13    7    8 am
  14    7    9 2
  15    8   10 am
  16    8   31 1
  17   10   11 2
  18   10   12 2
  19   10   28 1
  20   13   14 1
  21   14   15 ar
  22   14   16 ar
  23   15   19 ar
  24   15   32 1
  25   16   17 ar
  26   16   33 1
  27   17   18 ar
  28   18   19 ar
  29   18   22 1
  30   19   20 1
  31   21   23 1
  32   21   22 1
  33   21   25 1
  34   21   34 1
  35   23   24 1
  36   23   35 1
  37   23   36 1
  38   24   25 1
  39   25   37 1
  40   25   38 1
  41   28   39 1
  42   28   40 1
  43   28   41 1

#	End of record

