#	Name: ASD10420064
#	Creating user name:	WinNT
#	Creation time:	15. 06. 2019 21:27

#	Modifying user name:	WinNT
#	Modification time:	15. 06. 2019 21:27

#	Program:	/corina/corina34_cracker 3.40 0067  02.08.2006

@<TRIPOS>MOLECULE
ASD10420064
  34   35    0    0    0
SMALL
NO_CHARGES


@<TRIPOS>ATOM
   1 C1            -0.0118     1.0584     0.5906 C.ar    
   2 C2             0.1208    -0.3108     0.4312 C.ar    
   3 C3             1.3578    -0.8558     0.1447 C.ar    
   4 C4             2.4630    -0.0347     0.0176 C.ar    
   5 C5             2.3318     1.3321     0.1764 C.ar    
   6 C6             1.0953     1.8796     0.4626 C.ar    
   7 C7             1.5025    -2.3457    -0.0288 C.3     
   8 C8             1.2081    -2.7158    -1.4597 C.2     
   9 C9             2.1891    -2.7504    -2.3507 C.2     
  10 C10            1.8877    -3.0258    -3.7713 C.ar    
  11 C11            2.6435    -2.4229    -4.7775 C.ar    
  12 C12            2.3574    -2.6844    -6.1016 C.ar    
  13 C13            1.3239    -3.5424    -6.4327 C.ar    
  14 C14            0.5705    -4.1430    -5.4399 C.ar    
  15 C15            0.8501    -3.8942    -4.1119 C.ar    
  16 N16           -0.1765    -3.0406    -1.8703 N.pl3   
  17 O17           -0.6319    -4.1493    -1.6531 O.2     
  18 O18           -0.8604    -2.1993    -2.4253 O.2     
  19 C19           -1.0833    -1.2061     0.5707 C.3     
  20 F20           -1.2218     1.5929     0.8652 F       
  21 H21            3.4296    -0.4616    -0.2057 H       
  22 H22            3.1957     1.9725     0.0769 H       
  23 H23            0.9930     2.9476     0.5864 H       
  24 H24            2.5208    -2.6435     0.2213 H       
  25 H25            0.8019    -2.8581     0.6305 H       
  26 H26            3.2084    -2.5774    -2.0386 H       
  27 H27            3.4504    -1.7526    -4.5203 H       
  28 H28            2.9414    -2.2182    -6.8814 H       
  29 H29            1.1040    -3.7439    -7.4707 H       
  30 H30           -0.2355    -4.8112    -5.7049 H       
  31 H31            0.2644    -4.3675    -3.3377 H       
  32 H32           -1.6101    -1.2576    -0.3822 H       
  33 H33           -0.7611    -2.2057     0.8622 H       
  34 H34           -1.7498    -0.8025     1.3329 H       
@<TRIPOS>BOND
   1    1    2 ar
   2    1    6 ar
   3    1   20 1
   4    2    3 ar
   5    2   19 1
   6    3    4 ar
   7    3    7 1
   8    4    5 ar
   9    4   21 1
  10    5    6 ar
  11    5   22 1
  12    6   23 1
  13    7    8 1
  14    7   24 1
  15    7   25 1
  16    8    9 2
  17    8   16 1
  18    9   10 1
  19    9   26 1
  20   10   11 ar
  21   10   15 ar
  22   11   12 ar
  23   11   27 1
  24   12   13 ar
  25   12   28 1
  26   13   14 ar
  27   13   29 1
  28   14   15 ar
  29   14   30 1
  30   15   31 1
  31   16   17 2
  32   16   18 2
  33   19   32 1
  34   19   33 1
  35   19   34 1

#	End of record

