#	Name: ASD15280011
#	Creating user name:	WinNT
#	Creation time:	15. 06. 2019 21:31

#	Modifying user name:	WinNT
#	Modification time:	15. 06. 2019 21:31

#	Program:	/corina/corina34_cracker 3.40 0067  02.08.2006

@<TRIPOS>MOLECULE
ASD15280011
  53   57    0    0    0
SMALL
NO_CHARGES


@<TRIPOS>ATOM
   1 O1             0.0021    -0.0041     0.0020 O.2     
   2 C2            -0.0144     1.2113     0.0087 C.2     
   3 N3             1.1435     1.9010     0.0013 N.am    
   4 C4             2.4220     1.1859    -0.0147 C.3     
   5 C5             3.5713     2.1958    -0.0202 C.3     
   6 C6             4.8864     1.4602    -0.0368 C.ar    
   7 C7             5.4962     1.1124     1.1553 C.ar    
   8 C8             6.7001     0.4384     1.1468 C.ar    
   9 C9             7.3023     0.1077    -0.0671 C.ar    
  10 C10            6.6826     0.4611    -1.2656 C.ar    
  11 C11            5.4761     1.1304    -1.2439 C.ar    
  12 C12            8.5941    -0.6149    -0.0833 C.2     
  13 C13            9.3191    -1.0329     0.9972 C.2     
  14 N14           10.4062    -1.6365     0.5106 N.2     
  15 N15           10.3715    -1.6029    -0.7739 N.2     
  16 N16            9.3058    -1.0074    -1.1817 N.pl3   
  17 H17            9.0533    -0.8609    -2.1068 H       
  18 C18           -1.3048     1.9331     0.0187 C.ar    
  19 C19           -1.3247     3.3288     0.0207 C.ar    
  20 C20           -2.5338     3.9938     0.0241 C.ar    
  21 C21           -3.7203     3.2857     0.0311 C.ar    
  22 C22           -3.7195     1.8972     0.0390 C.ar    
  23 N23           -4.8900     1.1617     0.0714 N.am    
  24 C24           -6.0033     1.2808    -0.6003 C.2     
  25 O25           -6.8487     0.4427    -0.3537 O.2     
  26 C26           -6.3849     2.2740    -1.6061 C.ar    
  27 C27           -7.0472     1.8631    -2.7694 C.ar    
  28 C28           -7.4172     2.7905    -3.7191 C.ar    
  29 C29           -7.1380     4.1325    -3.5321 C.ar    
  30 C30           -6.4811     4.5498    -2.3870 C.ar    
  31 C31           -6.1052     3.6307    -1.4332 C.ar    
  32 S32           -5.2550     4.1580     0.0195 S.o2    
  33 O33           -6.0044     3.6735     1.1254 O.2     
  34 O34           -4.9393     5.5302    -0.1716 O.2     
  35 C35           -2.5015     1.2215     0.0206 C.ar    
  36 H36            1.1303     2.8709     0.0067 H       
  37 H37            2.4967     0.5553     0.8712 H       
  38 H38            2.4797     0.5648    -0.9086 H       
  39 H39            3.4965     2.8264    -0.9062 H       
  40 H40            3.5135     2.8169     0.8737 H       
  41 H41            5.0291     1.3694     2.0946 H       
  42 H42            7.1754     0.1678     2.0781 H       
  43 H43            7.1440     0.2077    -2.2087 H       
  44 H44            4.9932     1.4009    -2.1713 H       
  45 H45            9.0636    -0.9008     2.0382 H       
  46 H46           -0.3990     3.8851     0.0198 H       
  47 H47           -2.5529     5.0737     0.0216 H       
  48 H48           -4.8826     0.4273     0.7050 H       
  49 H49           -7.2688     0.8172    -2.9225 H       
  50 H50           -7.9276     2.4679    -4.6145 H       
  51 H51           -7.4321     4.8545    -4.2794 H       
  52 H52           -6.2633     5.5976    -2.2417 H       
  53 H53           -2.4853     0.1417     0.0118 H       
@<TRIPOS>BOND
   1    1    2 2
   2    2    3 am
   3    2   18 1
   4    3    4 1
   5    3   36 1
   6    4    5 1
   7    4   37 1
   8    4   38 1
   9    5    6 1
  10    5   39 1
  11    5   40 1
  12    6   11 ar
  13    6    7 ar
  14    7    8 ar
  15    7   41 1
  16    8    9 ar
  17    8   42 1
  18    9   10 ar
  19    9   12 1
  20   10   11 ar
  21   10   43 1
  22   11   44 1
  23   12   16 1
  24   12   13 2
  25   13   14 1
  26   13   45 1
  27   14   15 2
  28   15   16 1
  29   16   17 1
  30   18   35 ar
  31   18   19 ar
  32   19   20 ar
  33   19   46 1
  34   20   21 ar
  35   20   47 1
  36   21   32 1
  37   21   22 ar
  38   22   23 1
  39   22   35 ar
  40   23   24 am
  41   23   48 1
  42   24   25 2
  43   24   26 1
  44   26   31 ar
  45   26   27 ar
  46   27   28 ar
  47   27   49 1
  48   28   29 ar
  49   28   50 1
  50   29   30 ar
  51   29   51 1
  52   30   31 ar
  53   30   52 1
  54   31   32 1
  55   32   33 2
  56   32   34 2
  57   35   53 1

#	End of record

