#	Name: ASD11250001
#	Creating user name:	WinNT
#	Creation time:	15. 06. 2019 21:29

#	Modifying user name:	WinNT
#	Modification time:	15. 06. 2019 21:29

#	Program:	/corina/corina34_cracker 3.40 0067  02.08.2006

@<TRIPOS>MOLECULE
ASD11250001
  25   27    0    0    0
SMALL
NO_CHARGES


@<TRIPOS>ATOM
   1 O1             0.0021    -0.0041     0.0020 O.2     
   2 C2            -0.0144     1.2114     0.0087 C.2     
   3 C3             1.2628     1.9273     0.0004 C.ar    
   4 C4             2.5613     1.3690    -0.0155 C.ar    
   5 C5             3.6751     2.1715    -0.0218 C.ar    
   6 C6             3.5643     3.5504    -0.0133 C.ar    
   7 C7             2.3014     4.1250     0.0018 C.ar    
   8 C8             1.1928     3.3297     0.0085 C.ar    
   9 Se9           -0.7445     3.6979     0.0292 Du      
  10 N10           -1.2012     1.8349     0.0179 N.am    
  11 C11           -2.4762     1.2603     0.0243 C.ar    
  12 C12           -3.6045     2.0701     0.0413 C.ar    
  13 C13           -4.8621     1.4995     0.0476 C.ar    
  14 C14           -4.9988     0.1235     0.0375 C.ar    
  15 C15           -3.8775    -0.6857     0.0206 C.ar    
  16 C16           -2.6170    -0.1214     0.0080 C.ar    
  17 H17            2.6788     0.2954    -0.0224 H       
  18 H18            4.6554     1.7182    -0.0332 H       
  19 H19            4.4482     4.1709    -0.0180 H       
  20 H20            2.1962     5.1999     0.0090 H       
  21 H21           -3.4984     3.1449     0.0499 H       
  22 H22           -5.7399     2.1287     0.0608 H       
  23 H23           -5.9834    -0.3202     0.0433 H       
  24 H24           -3.9877    -1.7600     0.0131 H       
  25 H25           -1.7417    -0.7538    -0.0053 H       
@<TRIPOS>BOND
   1    1    2 2
   2    2    3 1
   3    2   10 am
   4    3    4 ar
   5    3    8 ar
   6    4    5 ar
   7    4   17 1
   8    5    6 ar
   9    5   18 1
  10    6    7 ar
  11    6   19 1
  12    7    8 ar
  13    7   20 1
  14    8    9 1
  15    9   10 1
  16   10   11 1
  17   11   12 ar
  18   11   16 ar
  19   12   13 ar
  20   12   21 1
  21   13   14 ar
  22   13   22 1
  23   14   15 ar
  24   14   23 1
  25   15   16 ar
  26   15   24 1
  27   16   25 1

#	End of record

