#	Name: ASD11320014
#	Creating user name:	WinNT
#	Creation time:	15. 06. 2019 21:29

#	Modifying user name:	WinNT
#	Modification time:	15. 06. 2019 21:29

#	Program:	/corina/corina34_cracker 3.40 0067  02.08.2006

@<TRIPOS>MOLECULE
ASD11320014
  67   69    0    0    0
SMALL
NO_CHARGES


@<TRIPOS>ATOM
   1 Cl1            0.0000     0.0000     0.0000 Cl      
   2 H2             0.0000     1.3700     0.0000 H       
   3 O3            11.7412    23.9409     8.1223 O.3     
   4 O4            13.8557    21.2713     8.3384 O.3     
   5 O5            15.2010    23.2939     7.4068 O.3     
   6 O6            12.2229    26.3720     7.2123 O.2     
   7 O7             6.1754     7.1461    11.1208 O.3     
   8 O8             5.0000     8.1542     9.5442 O.2     
   9 N9            10.6189    21.9942     7.3509 N.pl3   
  10 N10           14.4100    26.4217     7.5812 N.am    
  11 N11            8.9732    21.9171     5.9187 N.2     
  12 N12           10.2727    19.6909     8.2429 N.ar    
  13 N13            8.5127    18.5317     7.2711 N.ar    
  14 N14            9.7903    17.5197     8.9440 N.pl3   
  15 N15            7.1607    19.4603     5.5784 N.pl3   
  16 C16           13.0770    22.0671     7.4426 C.3     
  17 C17           11.7607    22.5037     8.1144 C.3     
  18 C18           13.8030    23.3981     7.1296 C.3     
  19 C19           13.1162    24.3812     8.1116 C.3     
  20 C20           13.2163    25.7961     7.6026 C.2     
  21 C21           10.0425    20.7560     7.4812 C.ar    
  22 C22            9.9298    22.6661     6.3838 C.2     
  23 C23            8.9871    20.7203     6.5555 C.ar    
  24 C24            8.2128    19.5497     6.4725 C.ar    
  25 C25           14.5073    27.7972     7.0865 C.3     
  26 C26            9.5190    18.6092     8.1329 C.ar    
  27 C27           15.9610    28.2671     7.1690 C.3     
  28 C28            8.9713    16.3092     8.8429 C.3     
  29 C29            9.4780    15.2658     9.8406 C.3     
  30 C30            8.6356    14.0206     9.7365 C.ar    
  31 C31            7.0902    11.7360     9.5458 C.ar    
  32 C32            8.9932    13.0156     8.8572 C.ar    
  33 C33            7.5083    13.8808    10.5244 C.ar    
  34 C34            6.2478    10.4908     9.4417 C.3     
  35 C35            8.2204    11.8734     8.7617 C.ar    
  36 C36            6.7356    12.7386    10.4289 C.ar    
  37 C37            6.7547     9.4472    10.4391 C.3     
  38 C38            5.9123     8.2020    10.3350 C.2     
  39 H39           12.8725    21.5166     6.5243 H       
  40 H40           11.7234    22.1269     9.1365 H       
  41 H41           13.6346    23.6992     6.0956 H       
  42 H42           13.5536    24.2982     9.1065 H       
  43 H43           14.6958    20.9689     7.9669 H       
  44 H44           15.6990    24.1029     7.2264 H       
  45 H45           10.1464    23.6712     6.0532 H       
  46 H46           15.2045    25.9611     7.8934 H       
  47 H47           14.1715    27.8352     6.0502 H       
  48 H48           13.8800    28.4477     7.6958 H       
  49 H49           10.5225    17.5582     9.5791 H       
  50 H50           16.2969    28.2291     8.2053 H       
  51 H51           16.5884    27.6165     6.5596 H       
  52 H52           16.0335    29.2905     6.8009 H       
  53 H53            7.9331    16.5531     9.0680 H       
  54 H54            9.0393    15.9080     7.8316 H       
  55 H55           10.5162    15.0219     9.6155 H       
  56 H56            9.4101    15.6669    10.8518 H       
  57 H57            6.6331    18.6478     5.5300 H       
  58 H58            6.9507    20.2101     5.0000 H       
  59 H59            9.8761    13.1230     8.2447 H       
  60 H60            7.2316    14.6639    11.2148 H       
  61 H61            5.2096    10.7347     9.6672 H       
  62 H62            6.3154    10.0899     8.4304 H       
  63 H63            8.4975    11.0901     8.0718 H       
  64 H64            5.8526    12.6313    11.0415 H       
  65 H65            7.7929     9.2034    10.2136 H       
  66 H66            6.6871     9.8482    11.4504 H       
  67 H67            5.6078     6.3700    11.0178 H       
@<TRIPOS>BOND
   1    1    2 1
   2    3   17 1
   3    3   19 1
   4    4   43 1
   5    4   16 1
   6    5   44 1
   7    5   18 1
   8    6   20 2
   9    7   38 1
  10    7   67 1
  11    8   38 2
  12    9   21 1
  13    9   22 1
  14    9   17 1
  15   10   20 am
  16   10   25 1
  17   10   46 1
  18   11   22 2
  19   11   23 1
  20   12   21 ar
  21   12   26 ar
  22   13   24 ar
  23   13   26 ar
  24   14   26 1
  25   14   28 1
  26   14   49 1
  27   15   24 1
  28   15   57 1
  29   15   58 1
  30   16   17 1
  31   16   39 1
  32   16   18 1
  33   17   40 1
  34   18   41 1
  35   18   19 1
  36   19   20 1
  37   19   42 1
  38   21   23 ar
  39   22   45 1
  40   23   24 ar
  41   25   27 1
  42   25   47 1
  43   25   48 1
  44   27   50 1
  45   27   51 1
  46   27   52 1
  47   28   29 1
  48   28   53 1
  49   28   54 1
  50   29   30 1
  51   29   55 1
  52   29   56 1
  53   30   32 ar
  54   30   33 ar
  55   31   34 1
  56   31   35 ar
  57   31   36 ar
  58   32   35 ar
  59   32   59 1
  60   33   36 ar
  61   33   60 1
  62   34   37 1
  63   34   61 1
  64   34   62 1
  65   35   63 1
  66   36   64 1
  67   37   38 1
  68   37   65 1
  69   37   66 1

#	End of record

