#	Name: ASD10210004
#	Creating user name:	WinNT
#	Creation time:	15. 06. 2019 21:26

#	Modifying user name:	WinNT
#	Modification time:	15. 06. 2019 21:26

#	Program:	/corina/corina34_cracker 3.40 0067  02.08.2006

@<TRIPOS>MOLECULE
ASD10210004
  68   71    0    0    0
SMALL
NO_CHARGES


@<TRIPOS>ATOM
   1 C1             1.0433    -0.0834     0.5352 C.3     
   2 C2             1.4353    -1.5570     0.6149 C.3     
   3 C3             2.3956    -1.8063     1.7717 C.3     
   4 C4             3.6195    -0.8961     1.7070 C.3     
   5 C5             3.1992     0.5732     1.6330 C.3     
   6 C6             2.2894     0.7957     0.4301 C.3     
   7 C7             4.5121    -1.2935     0.5357 C.3     
   8 C8             5.7566    -0.3914     0.4963 C.3     
   9 C9             5.2624     1.0389     0.3084 C.3     
  10 C10            4.4480     1.4582     1.5322 C.3     
  11 C11            2.4547     0.9399     2.9253 C.3     
  12 O12            1.9962    -1.9910    -0.6211 O.3     
  13 C13            6.3242     2.0328    -0.0280 C.3     
  14 C14            6.5796     3.0725     1.0779 C.3     
  15 C15            5.3371     3.8331     1.4390 C.3     
  16 C16            4.0905     2.9336     1.4224 C.3     
  17 C17            7.7379     1.5131    -0.3188 C.3     
  18 C18            8.6138     2.7924    -0.2216 C.3     
  19 C19            7.7364     3.8790     0.4559 C.3     
  20 C20            7.1767     2.4237     2.3403 C.3     
  21 C21            7.2482     4.8813    -0.5812 C.3     
  22 H22            0.5202    -2.1442     0.7955 H       
  23 H23            4.1936    -1.0360     2.6373 H       
  24 O24            6.4742    -0.5251     1.7202 O.3     
  25 C25            8.4428     5.6497    -1.1497 C.3     
  26 C26            6.5347     4.1381    -1.7124 C.3     
  27 C27            6.3647     5.0746    -2.9103 C.3     
  28 C28            5.6620     4.3426    -4.0244 C.2     
  29 O29            5.3311     3.1901    -3.8757 O.2     
  30 O30            5.4037     4.9709    -5.1821 O.3     
  31 H31            0.4311     0.0690    -0.3627 H       
  32 H32            0.4469     0.1924     1.4007 H       
  33 H33            1.8751    -1.6728     2.7208 H       
  34 H34            2.7364    -2.8504     1.7268 H       
  35 H35            2.8203     0.5517    -0.4909 H       
  36 H36            1.9824     1.8440     0.3923 H       
  37 H37            4.8263    -2.3302     0.6480 H       
  38 H38            3.9761    -1.1725    -0.4039 H       
  39 H39            6.3858    -0.6826    -0.3421 H       
  40 H40            4.5587     1.0148    -0.5538 H       
  41 H41            5.0130     1.2833     2.4457 H       
  42 H42            3.1134     0.7865     3.7801 H       
  43 H43            2.1497     1.9856     2.8847 H       
  44 H44            1.5726     0.3079     3.0283 H       
  45 H45            1.3983    -1.9046    -1.3762 H       
  46 H46            5.9855     2.5704    -0.9454 H       
  47 H47            5.4522     4.2545     2.4529 H       
  48 H48            5.1617     4.6790     0.7671 H       
  49 H49            3.5449     3.1012     0.4856 H       
  50 H50            3.4380     3.2309     2.2480 H       
  51 H51            8.0535     0.7664     0.4025 H       
  52 H52            7.7877     1.1009    -1.3310 H       
  53 H53            9.4993     2.5974     0.3806 H       
  54 H54            8.9034     3.1223    -1.2191 H       
  55 H55            8.2968     4.3766     1.2448 H       
  56 H56            8.0764     1.8695     2.0730 H       
  57 H57            7.4293     3.1997     3.0629 H       
  58 H58            6.4472     1.7427     2.7786 H       
  59 H59            6.5559     5.5808    -0.1127 H       
  60 H60            6.7778    -1.4251     1.9018 H       
  61 H61            9.0778     4.9676    -1.7151 H       
  62 H62            8.0854     6.4424    -1.8070 H       
  63 H63            9.0162     6.0865    -0.3321 H       
  64 H64            7.1273     3.2727    -2.0090 H       
  65 H65            5.5549     3.8069    -1.3682 H       
  66 H66            5.7722     5.9400    -2.6137 H       
  67 H67            7.3445     5.4058    -3.2544 H       
  68 H68            4.9511     4.4603    -5.8673 H       
@<TRIPOS>BOND
   1    1    2 1
   2    1    6 1
   3    1   31 1
   4    1   32 1
   5    2    3 1
   6    2   12 1
   7    2   22 1
   8    3    4 1
   9    3   33 1
  10    3   34 1
  11    4    5 1
  12    4    7 1
  13    4   23 1
  14    5    6 1
  15    5   11 1
  16    5   10 1
  17    6   35 1
  18    6   36 1
  19    7    8 1
  20    7   37 1
  21    7   38 1
  22    8    9 1
  23    8   24 1
  24    8   39 1
  25    9   10 1
  26    9   13 1
  27    9   40 1
  28   10   16 1
  29   10   41 1
  30   11   42 1
  31   11   43 1
  32   11   44 1
  33   12   45 1
  34   13   14 1
  35   13   17 1
  36   13   46 1
  37   14   15 1
  38   14   20 1
  39   14   19 1
  40   15   16 1
  41   15   47 1
  42   15   48 1
  43   16   49 1
  44   16   50 1
  45   17   18 1
  46   17   51 1
  47   17   52 1
  48   18   19 1
  49   18   53 1
  50   18   54 1
  51   19   21 1
  52   19   55 1
  53   20   56 1
  54   20   57 1
  55   20   58 1
  56   21   25 1
  57   21   26 1
  58   21   59 1
  59   24   60 1
  60   25   61 1
  61   25   62 1
  62   25   63 1
  63   26   27 1
  64   26   64 1
  65   26   65 1
  66   27   28 1
  67   27   66 1
  68   27   67 1
  69   28   29 2
  70   28   30 1
  71   30   68 1

#	End of record

