#	Name: ASD10410160
#	Creating user name:	WinNT
#	Creation time:	15. 06. 2019 21:27

#	Modifying user name:	WinNT
#	Modification time:	15. 06. 2019 21:27

#	Program:	/corina/corina34_cracker 3.40 0067  02.08.2006

@<TRIPOS>MOLECULE
ASD10410160
  67   73    0    0    0
SMALL
NO_CHARGES


@<TRIPOS>ATOM
   1 C1            -0.1975     1.1659     0.2378 C.ar    
   2 C2            -0.0273    -0.2092     0.1652 C.ar    
   3 C3             1.2456    -0.7443    -0.0022 C.ar    
   4 C4             2.3401     0.0943    -0.0960 C.ar    
   5 C5             2.1680     1.4708    -0.0231 C.ar    
   6 C6             0.8971     2.0039     0.1439 C.ar    
   7 F7             1.4120    -2.0832    -0.0725 F       
   8 N8             3.2767     2.3209    -0.1182 N.pl3   
   9 C9             3.1369     3.5890    -0.6820 C.2     
  10 N10            4.0730     4.5062    -0.7350 N.2     
  11 N11            2.0280     4.0638    -1.2613 N.2     
  12 C12            2.2406     5.2911    -1.6857 C.2     
  13 N13            3.5166     5.6228    -1.3797 N.pl3   
  14 C14            4.1539     6.8356    -1.6514 C.ar    
  15 N15            1.3240     6.0975    -2.3335 N.pl3   
  16 N16           -1.1377    -1.0588     0.2609 N.3     
  17 C17           -1.8296    -0.8786     1.5448 C.3     
  18 C18           -3.0778    -1.7636     1.5772 C.3     
  19 N19           -2.6853    -3.1669     1.3862 N.3     
  20 C20           -1.9934    -3.3471     0.1023 C.3     
  21 C21           -0.7451    -2.4620     0.0699 C.3     
  22 N22            3.5038     7.8057    -2.2691 N.ar    
  23 N23            4.0466     8.9348    -2.5395 N.ar    
  24 C24            5.2879     9.2247    -2.2286 C.ar    
  25 C25            6.0865     8.2666    -1.5645 C.ar    
  26 C26            5.4885     7.0356    -1.2652 C.ar    
  27 C27           -3.8492    -4.0574     1.4865 C.3     
  28 C28           -4.4849    -3.9632     2.9072 C.3     
  29 C29           -3.4114    -5.5338     1.3514 C.3     
  30 C30           -3.8237    -6.1925     2.7032 C.3     
  31 C31           -5.8195    -4.7612     2.7914 C.3     
  32 C32           -5.3816    -6.2375     2.6563 C.3     
  33 C33           -3.5977    -4.9939     3.6909 C.3     
  34 C34            7.4613     8.3233    -1.1129 C.2     
  35 C35            7.8958     7.2263    -0.5182 C.2     
  36 S36            6.6447     5.9989    -0.4470 S.3     
  37 C37            5.8599    10.5742    -2.5788 C.3     
  38 H38           -1.1864     1.5816     0.3633 H       
  39 H39            3.3288    -0.3204    -0.2256 H       
  40 H40            0.7639     3.0741     0.2009 H       
  41 H41            4.1419     2.0278     0.2081 H       
  42 H42            0.4291     5.7684    -2.5118 H       
  43 H43            1.5755     6.9927    -2.6098 H       
  44 H44           -1.1629    -1.1601     2.3598 H       
  45 H45           -2.1212     0.1657     1.6573 H       
  46 H46           -3.5768    -1.6534     2.5400 H       
  47 H47           -3.7568    -1.4641     0.7789 H       
  48 H48           -1.7018    -4.3913    -0.0102 H       
  49 H49           -2.6601    -3.0655    -0.7128 H       
  50 H50           -0.2461    -2.5722    -0.8929 H       
  51 H51           -0.0661    -2.7616     0.8682 H       
  52 H52           -4.5857    -3.8063     0.7233 H       
  53 H53           -4.5640    -2.9610     3.3283 H       
  54 H54           -3.9332    -6.0105     0.5216 H       
  55 H55           -2.3325    -5.5988     1.2105 H       
  56 H56           -3.3270    -7.1317     2.9466 H       
  57 H57           -6.4230    -4.6244     3.6887 H       
  58 H58           -6.3746    -4.4470     1.9075 H       
  59 H59           -5.7215    -6.6492     1.7060 H       
  60 H60           -5.7699    -6.8266     3.4872 H       
  61 H61           -2.5524    -4.6874     3.7293 H       
  62 H62           -3.9945    -5.2025     4.6844 H       
  63 H63            8.0837     9.1950    -1.2518 H       
  64 H64            8.8934     7.1021    -0.1235 H       
  65 H65            5.6846    11.2677    -1.7563 H       
  66 H66            6.9318    10.4805    -2.7529 H       
  67 H67            5.3769    10.9506    -3.4806 H       
@<TRIPOS>BOND
   1    1    2 ar
   2    1    6 ar
   3    1   38 1
   4    2    3 ar
   5    2   16 1
   6    3    4 ar
   7    3    7 1
   8    4    5 ar
   9    4   39 1
  10    5    6 ar
  11    5    8 1
  12    6   40 1
  13    8    9 1
  14    8   41 1
  15    9   10 2
  16    9   11 1
  17   10   13 1
  18   11   12 2
  19   12   13 1
  20   12   15 1
  21   13   14 1
  22   14   22 ar
  23   14   26 ar
  24   15   42 1
  25   15   43 1
  26   16   17 1
  27   16   21 1
  28   17   18 1
  29   17   44 1
  30   17   45 1
  31   18   19 1
  32   18   46 1
  33   18   47 1
  34   19   20 1
  35   19   27 1
  36   20   21 1
  37   20   48 1
  38   20   49 1
  39   21   50 1
  40   21   51 1
  41   22   23 ar
  42   23   24 ar
  43   24   25 ar
  44   24   37 1
  45   25   26 ar
  46   25   34 1
  47   26   36 1
  48   27   28 1
  49   27   29 1
  50   27   52 1
  51   28   31 1
  52   28   33 1
  53   28   53 1
  54   29   30 1
  55   29   54 1
  56   29   55 1
  57   30   32 1
  58   30   33 1
  59   30   56 1
  60   31   32 1
  61   31   57 1
  62   31   58 1
  63   32   59 1
  64   32   60 1
  65   33   61 1
  66   33   62 1
  67   34   35 2
  68   34   63 1
  69   35   36 1
  70   35   64 1
  71   37   65 1
  72   37   66 1
  73   37   67 1

#	End of record

