#	Name: ASD10410005
#	Creating user name:	WinNT
#	Creation time:	15. 06. 2019 21:26

#	Modifying user name:	WinNT
#	Modification time:	15. 06. 2019 21:26

#	Program:	/corina/corina34_cracker 3.40 0067  02.08.2006

@<TRIPOS>MOLECULE
ASD10410005
  67   71    0    0    0
SMALL
NO_CHARGES


@<TRIPOS>ATOM
   1 C1             0.1322     1.9990    -1.6577 C.ar    
   2 C2            -0.3693     1.4715    -2.8471 C.ar    
   3 C3             1.1839     3.0432    -1.6925 C.ar    
   4 N4             1.0134     4.1961    -1.0494 N.ar    
   5 C5             2.3734     2.8300    -2.3969 C.ar    
   6 C6             3.3262     3.8341    -2.4001 C.ar    
   7 N7             3.0854     4.9572    -1.7418 N.ar    
   8 C8             1.9513     5.1296    -1.0787 C.ar    
   9 Cl9            2.6485     1.3413    -3.2465 Cl      
  10 N10            1.7390     6.3210    -0.4031 N.pl3   
  11 C11            2.7603     7.2727    -0.3265 C.ar    
  12 C12            2.4707     8.6199    -0.5015 C.ar    
  13 C13            3.4818     9.5576    -0.4247 C.ar    
  14 C14            4.7812     9.1565    -0.1740 C.ar    
  15 C15            5.0730     7.8160     0.0002 C.ar    
  16 C16            4.0657     6.8738    -0.0696 C.ar    
  17 C17            5.8819    10.1824    -0.0910 C.3     
  18 N18            6.0168    10.6446     1.2969 N.3     
  19 C19            7.2262    11.4626     1.4644 C.3     
  20 C20            7.2880    11.9889     2.9002 C.3     
  21 N21            7.2889    10.8551     3.8352 N.3     
  22 C22            6.0795    10.0371     3.6677 C.3     
  23 C23            6.0177     9.5108     2.2318 C.3     
  24 C24            7.4237    11.3173     5.2230 C.3     
  25 C25           -1.3480     0.5006    -2.8099 C.ar    
  26 C26           -1.8332     0.0490    -1.5926 C.ar    
  27 C27           -1.3382     0.5705    -0.4082 C.ar    
  28 C28           -0.3626     1.5455    -0.4359 C.ar    
  29 F29           -2.7920    -0.9023    -1.5609 F       
  30 S30            0.2664     2.2074     1.0711 S.o2    
  31 O31            1.6791     2.0659     1.0129 O.2     
  32 O32           -0.3823     3.4572     1.2621 O.2     
  33 N33           -0.2525     1.2195     2.2947 N.am    
  34 C34            0.4980     0.0884     2.8594 C.3     
  35 C35           -0.3866    -0.5489     3.9516 C.3     
  36 C36           -1.8146    -0.0919     3.5526 C.3     
  37 C37           -1.5407     1.3326     3.0026 C.3     
  38 H38            0.0080     1.8231    -3.7961 H       
  39 H39            4.2561     3.7027    -2.9335 H       
  40 H40            0.8819     6.4944     0.0166 H       
  41 H41            1.4561     8.9338    -0.6976 H       
  42 H42            3.2574    10.6052    -0.5610 H       
  43 H43            6.0890     7.5061     0.1955 H       
  44 H44            4.2942     5.8270     0.0665 H       
  45 H45            6.8207     9.7354    -0.4179 H       
  46 H46            5.6392    11.0286    -0.7337 H       
  47 H47            8.1076    10.8542     1.2618 H       
  48 H48            7.1962    12.3024     0.7702 H       
  49 H49            8.1990    12.5720     3.0349 H       
  50 H50            6.4203    12.6194     3.0941 H       
  51 H51            6.1095     9.1973     4.3618 H       
  52 H52            5.1981    10.6455     3.8703 H       
  53 H53            5.1066     8.9278     2.0972 H       
  54 H54            6.8854     8.8803     2.0380 H       
  55 H55            6.5892    11.9734     5.4702 H       
  56 H56            7.4215    10.4582     5.8939 H       
  57 H57            8.3606    11.8631     5.3348 H       
  58 H58           -1.7372     0.0918    -3.7306 H       
  59 H59           -1.7197     0.2162     0.5380 H       
  60 H60            0.7085    -0.6432     2.0792 H       
  61 H61            1.4302     0.4441     3.2982 H       
  62 H62           -0.3082    -1.6358     3.9258 H       
  63 H63           -0.1199    -0.1652     4.9363 H       
  64 H64           -2.2306    -0.7391     2.7805 H       
  65 H65           -2.4699    -0.0534     4.4228 H       
  66 H66           -1.4680     2.0480     3.8217 H       
  67 H67           -2.3267     1.6286     2.3078 H       
@<TRIPOS>BOND
   1    1    2 ar
   2    1    3 1
   3    1   28 ar
   4    2   25 ar
   5    2   38 1
   6    3    4 ar
   7    3    5 ar
   8    4    8 ar
   9    5    6 ar
  10    5    9 1
  11    6    7 ar
  12    6   39 1
  13    7    8 ar
  14    8   10 1
  15   10   11 1
  16   10   40 1
  17   11   12 ar
  18   11   16 ar
  19   12   13 ar
  20   12   41 1
  21   13   14 ar
  22   13   42 1
  23   14   15 ar
  24   14   17 1
  25   15   16 ar
  26   15   43 1
  27   16   44 1
  28   17   18 1
  29   17   45 1
  30   17   46 1
  31   18   19 1
  32   18   23 1
  33   19   20 1
  34   19   47 1
  35   19   48 1
  36   20   21 1
  37   20   49 1
  38   20   50 1
  39   21   22 1
  40   21   24 1
  41   22   23 1
  42   22   51 1
  43   22   52 1
  44   23   53 1
  45   23   54 1
  46   24   55 1
  47   24   56 1
  48   24   57 1
  49   25   26 ar
  50   25   58 1
  51   26   27 ar
  52   26   29 1
  53   27   28 ar
  54   27   59 1
  55   28   30 1
  56   30   31 2
  57   30   32 2
  58   30   33 am
  59   33   34 1
  60   33   37 1
  61   34   35 1
  62   34   60 1
  63   34   61 1
  64   35   36 1
  65   35   62 1
  66   35   63 1
  67   36   37 1
  68   36   64 1
  69   36   65 1
  70   37   66 1
  71   37   67 1

#	End of record

