#	Name: ASD10420049
#	Creating user name:	WinNT
#	Creation time:	15. 06. 2019 21:27

#	Modifying user name:	WinNT
#	Modification time:	15. 06. 2019 21:27

#	Program:	/corina/corina34_cracker 3.40 0067  02.08.2006

@<TRIPOS>MOLECULE
ASD10420049
  80   84    0    0    0
SMALL
NO_CHARGES


@<TRIPOS>ATOM
   1 N1             2.2072    -2.5840     2.0521 N.am    
   2 C2             1.7072    -3.2278     0.8292 C.3     
   3 C3             1.3165    -2.1361    -0.1747 C.3     
   4 N4             2.4254    -1.1776    -0.2815 N.am    
   5 C5             2.9254    -0.5338     0.9414 C.3     
   6 C6             3.3161    -1.6255     1.9453 C.3     
   7 C7             1.6549    -2.8634     3.2494 C.2     
   8 O8             0.6638    -3.5635     3.3127 O.2     
   9 O9             2.2014    -2.3667     4.3751 O.3     
  10 C10            0.4820    -4.0813     1.1625 C.3     
  11 C11           -0.0198    -4.7711    -0.1077 C.3     
  12 O12           -1.2276    -5.4786     0.1799 O.3     
  13 C13            2.9743    -0.8945    -1.4794 C.2     
  14 O14            2.6174    -1.5033    -2.4721 O.2     
  15 C15            5.9544     1.1429    -1.7171 C.2     
  16 C16            5.3357    -0.1014    -1.6032 C.2     
  17 C17            3.9665     0.1115    -1.5840 C.2     
  18 N18            3.7316     1.4679    -1.6842 N.pl3   
  19 C19            2.5693     2.1828    -1.7094 C.2     
  20 C20            2.5890     3.5296    -1.8151 C.2     
  21 C21            3.8099     4.2147    -1.9009 C.2     
  22 C22            4.9777     3.5111    -1.8767 C.2     
  23 C23            4.9364     2.1123    -1.7664 C.2     
  24 C24            7.4124     1.3972    -1.7699 C.ar    
  25 C25            8.0011     1.8554    -2.9486 C.ar    
  26 C26            9.3600     2.0904    -2.9915 C.ar    
  27 C27           10.1384     1.8724    -1.8687 C.ar    
  28 C28            9.5605     1.4176    -0.6968 C.ar    
  29 C29            8.2017     1.1848    -0.6395 C.ar    
  30 C30            6.0302    -1.4361    -1.5175 C.3     
  31 C31            6.2176    -1.9948    -2.9045 C.ar    
  32 C32            7.4585    -1.9371    -3.5106 C.ar    
  33 C33            7.6305    -2.4509    -4.7846 C.ar    
  34 C34            6.5589    -3.0221    -5.4502 C.ar    
  35 C35            5.3193    -3.0786    -4.8422 C.ar    
  36 C36            5.1500    -2.5699    -3.5677 C.ar    
  37 C37            8.6236    -1.3148    -2.7851 C.3     
  38 F38            8.8428    -2.3947    -5.3782 F       
  39 C39            1.5537    -2.7087     5.6288 C.3     
  40 C40            1.5564    -4.2284     5.8063 C.3     
  41 C41            2.3112    -2.0585     6.7883 C.3     
  42 C42            0.1109    -2.1997     5.6129 C.3     
  43 H43            2.4883    -3.8560     0.4010 H       
  44 H44            1.1268    -2.5862    -1.1491 H       
  45 H45            0.4209    -1.6220     0.1741 H       
  46 H46            3.7983     0.0743     0.7040 H       
  47 H47            2.1443     0.0944     1.3696 H       
  48 H48            3.5058    -1.1754     2.9197 H       
  49 H49            4.2118    -2.1396     1.5965 H       
  50 H50            0.7541    -4.8347     1.9017 H       
  51 H51           -0.3056    -3.4447     1.5655 H       
  52 H52           -0.2116    -4.0223    -0.8762 H       
  53 H53            0.7357    -5.4716    -0.4634 H       
  54 H54           -1.6034    -5.9411    -0.5817 H       
  55 H55            1.6231     1.6662    -1.6445 H       
  56 H56            1.6606     4.0810    -1.8341 H       
  57 H57            3.8249     5.2912    -1.9857 H       
  58 H58            5.9253     4.0250    -1.9422 H       
  59 H59            7.3946     2.0256    -3.8259 H       
  60 H60            9.8171     2.4448    -3.9036 H       
  61 H61           11.2017     2.0578    -1.9072 H       
  62 H62           10.1735     1.2486     0.1762 H       
  63 H63            7.7509     0.8347     0.2774 H       
  64 H64            7.0029    -1.3097    -1.0422 H       
  65 H65            5.4242    -2.1238    -0.9276 H       
  66 H66            6.6918    -3.4229    -6.4442 H       
  67 H67            4.4834    -3.5240    -5.3612 H       
  68 H68            4.1818    -2.6186    -3.0916 H       
  69 H69            9.1234    -2.0732    -2.1825 H       
  70 H70            9.3267    -0.9057    -3.5106 H       
  71 H71            8.2634    -0.5154    -2.1376 H       
  72 H72            2.5842    -4.5911     5.8176 H       
  73 H73            1.0701    -4.4851     6.7474 H       
  74 H74            1.0167    -4.6916     4.9803 H       
  75 H75            2.3093    -0.9759     6.6618 H       
  76 H76            1.8249    -2.3153     7.7294 H       
  77 H77            3.3390    -2.4212     6.7996 H       
  78 H78           -0.4287    -2.6629     4.7869 H       
  79 H79           -0.3753    -2.4564     6.5541 H       
  80 H80            0.1090    -1.1170     5.4865 H       
@<TRIPOS>BOND
   1    1    2 1
   2    1    6 1
   3    1    7 am
   4    2    3 1
   5    2   10 1
   6    2   43 1
   7    3    4 1
   8    3   44 1
   9    3   45 1
  10    4    5 1
  11    4   13 am
  12    5    6 1
  13    5   46 1
  14    5   47 1
  15    6   48 1
  16    6   49 1
  17    7    8 2
  18    7    9 1
  19    9   39 1
  20   10   11 1
  21   10   50 1
  22   10   51 1
  23   11   12 1
  24   11   52 1
  25   11   53 1
  26   12   54 1
  27   13   14 2
  28   13   17 1
  29   15   16 1
  30   15   23 2
  31   15   24 1
  32   16   17 2
  33   16   30 1
  34   17   18 1
  35   18   19 1
  36   18   23 1
  37   19   20 2
  38   19   55 1
  39   20   21 1
  40   20   56 1
  41   21   22 2
  42   21   57 1
  43   22   23 1
  44   22   58 1
  45   24   25 ar
  46   24   29 ar
  47   25   26 ar
  48   25   59 1
  49   26   27 ar
  50   26   60 1
  51   27   28 ar
  52   27   61 1
  53   28   29 ar
  54   28   62 1
  55   29   63 1
  56   30   31 1
  57   30   64 1
  58   30   65 1
  59   31   32 ar
  60   31   36 ar
  61   32   33 ar
  62   32   37 1
  63   33   34 ar
  64   33   38 1
  65   34   35 ar
  66   34   66 1
  67   35   36 ar
  68   35   67 1
  69   36   68 1
  70   37   69 1
  71   37   70 1
  72   37   71 1
  73   39   40 1
  74   39   42 1
  75   39   41 1
  76   40   72 1
  77   40   73 1
  78   40   74 1
  79   41   75 1
  80   41   76 1
  81   41   77 1
  82   42   78 1
  83   42   79 1
  84   42   80 1

#	End of record

