#	Name: ASD10218001
#	Creating user name:	WinNT
#	Creation time:	15. 06. 2019 21:26

#	Modifying user name:	WinNT
#	Modification time:	15. 06. 2019 21:26

#	Program:	/corina/corina34_cracker 3.40 0067  02.08.2006

@<TRIPOS>MOLECULE
ASD10218001
  68   71    0    0    0
SMALL
NO_CHARGES


@<TRIPOS>ATOM
   1 C1            -0.4213     0.5520     0.4313 C.3     
   2 C2            -0.2386    -0.9670     0.4492 C.3     
   3 C3             0.4181    -1.4170    -0.8574 C.3     
   4 C4             0.9430     1.2289     0.2859 C.3     
   5 C5             1.5994     0.7784    -1.0206 C.3     
   6 C6             2.9642     1.4545    -1.1661 C.3     
   7 C7             3.8547     1.0635     0.0148 C.3     
   8 C8             4.0364    -0.4560     0.0371 C.3     
   9 C9             4.9779    -0.8584     1.1459 C.3     
  10 C10            4.5116    -0.3639     2.5277 C.3     
  11 C11            5.3199    -1.2374     3.5146 C.3     
  12 C12            5.7193    -2.5120     2.7479 C.3     
  13 C13            7.2430    -2.6091     2.6474 C.3     
  14 C14            7.7979    -1.3158     2.0470 C.3     
  15 C15            9.3143    -1.4383     1.8850 C.3     
  16 C16            9.8609    -0.1645     1.2936 C.2     
  17 C17            7.8338    -2.8180     4.0431 C.3     
  18 C18            5.0990    -2.3810     1.3312 C.3     
  19 C19            5.9900    -3.0124     0.2597 C.3     
  20 C20            3.7142    -3.0297     1.3964 C.3     
  21 C21            2.8809    -2.6492     0.1757 C.3     
  22 C22            2.6732    -1.1310     0.1797 C.3     
  23 C23            1.7826    -0.7405    -1.0020 C.3     
  24 C24            2.4398    -1.1912    -2.3082 C.3     
  25 O25            9.1141     0.7477     1.0288 O.2     
  26 O26           11.1773    -0.0434     1.0610 O.3     
  27 O27            3.2421     1.4877     1.2341 O.3     
  28 O28           -1.2545     0.9184    -0.6704 O.3     
  29 H29            0.9643     1.0574    -1.8613 H       
  30 H30            5.9691    -0.4553     0.9382 H       
  31 H31            2.2096    -0.8267     1.1181 H       
  32 H32            4.4652    -0.7691    -0.9148 H       
  33 H33           -0.8886     0.8726     1.3624 H       
  34 H34            0.3961    -1.2467     1.2900 H       
  35 H35           -1.2109    -1.4487     0.5519 H       
  36 H36            0.5487    -2.4991    -0.8444 H       
  37 H37           -0.2169    -1.1378    -1.6982 H       
  38 H38            0.8121     2.3110     0.2725 H       
  39 H39            1.5783     0.9502     1.1267 H       
  40 H40            3.4320     1.1322    -2.0964 H       
  41 H41            2.8340     2.5366    -1.1805 H       
  42 H42            4.8275     1.5441    -0.0891 H       
  43 H43            4.7548     0.6903     2.6602 H       
  44 H44            3.4420    -0.5310     2.6543 H       
  45 H45            6.2120    -0.7034     3.8417 H       
  46 H46            4.7031    -1.4971     4.3750 H       
  47 H47            5.3209    -3.3925     3.2520 H       
  48 H48            7.5121    -3.4507     2.0092 H       
  49 H49            7.3412    -1.1424     1.0725 H       
  50 H50            7.5695    -0.4806     2.7090 H       
  51 H51            9.7710    -1.6117     2.8594 H       
  52 H52            9.5427    -2.2736     1.2229 H       
  53 H53            7.3664    -3.6852     4.5095 H       
  54 H54            8.9080    -2.9841     3.9618 H       
  55 H55            7.6481    -1.9335     4.6524 H       
  56 H56            7.0104    -2.6463     0.3737 H       
  57 H57            5.9786    -4.0967     0.3703 H       
  58 H58            5.6160    -2.7440    -0.7283 H       
  59 H59            3.8268    -4.1134     1.4304 H       
  60 H60            3.2029    -2.6943     2.2987 H       
  61 H61            3.4065    -2.9441    -0.7326 H       
  62 H62            1.9143    -3.1509     0.2215 H       
  63 H63            1.8051    -0.9123    -3.1493 H       
  64 H64            3.4119    -0.7090    -2.4110 H       
  65 H65            2.5705    -2.2732    -2.2946 H       
  66 H66           11.4808     0.7923     0.6807 H       
  67 H67            3.0967     2.4421     1.2900 H       
  68 H68           -2.1375     0.5250    -0.6436 H       
@<TRIPOS>BOND
   1    1    2 1
   2    1    4 1
   3    1   28 1
   4    1   33 1
   5    2    3 1
   6    2   34 1
   7    2   35 1
   8    3   23 1
   9    3   36 1
  10    3   37 1
  11    4    5 1
  12    4   38 1
  13    4   39 1
  14    5    6 1
  15    5   23 1
  16    5   29 1
  17    6    7 1
  18    6   40 1
  19    6   41 1
  20    7    8 1
  21    7   27 1
  22    7   42 1
  23    8    9 1
  24    8   32 1
  25    8   22 1
  26    9   10 1
  27    9   18 1
  28    9   30 1
  29   10   11 1
  30   10   43 1
  31   10   44 1
  32   11   12 1
  33   11   45 1
  34   11   46 1
  35   12   13 1
  36   12   18 1
  37   12   47 1
  38   13   14 1
  39   13   17 1
  40   13   48 1
  41   14   15 1
  42   14   49 1
  43   14   50 1
  44   15   16 1
  45   15   51 1
  46   15   52 1
  47   16   25 2
  48   16   26 1
  49   17   53 1
  50   17   54 1
  51   17   55 1
  52   18   19 1
  53   18   20 1
  54   19   56 1
  55   19   57 1
  56   19   58 1
  57   20   21 1
  58   20   59 1
  59   20   60 1
  60   21   22 1
  61   21   61 1
  62   21   62 1
  63   22   31 1
  64   22   23 1
  65   23   24 1
  66   24   63 1
  67   24   64 1
  68   24   65 1
  69   26   66 1
  70   27   67 1
  71   28   68 1

#	End of record

