#	Name: ASD10438009
#	Creating user name:	WinNT
#	Creation time:	15. 06. 2019 21:27

#	Modifying user name:	WinNT
#	Modification time:	15. 06. 2019 21:27

#	Program:	/corina/corina34_cracker 3.40 0067  02.08.2006

@<TRIPOS>MOLECULE
ASD10438009
  27   28    0    0    0
SMALL
NO_CHARGES


@<TRIPOS>ATOM
   1 C1            -0.0281     1.4942     0.0001 C.3     
   2 N2            -0.8980     2.4343    -0.7192 N.3     
   3 C3             1.3883     2.0086    -0.0146 C.ar    
   4 C4             2.1420     1.9490    -1.1881 C.ar    
   5 C5             3.4529     2.4275    -1.1932 C.ar    
   6 C6             3.9957     2.9561    -0.0400 C.ar    
   7 C7             3.2433     3.0122     1.1195 C.ar    
   8 C8             1.9410     2.5447     1.1299 C.ar    
   9 C9             1.5542     1.3809    -2.4198 C.2     
  10 C10            1.4722     2.0142    -3.6069 C.2     
  11 C11            0.8811     1.2786    -4.6133 C.2     
  12 C12            0.4810     0.0539    -4.2591 C.2     
  13 S13            0.8604    -0.2288    -2.5653 S.3     
  14 C14           -2.2642     1.9062    -0.8322 C.3     
  15 H15           -0.3695     1.3993     1.0310 H       
  16 H16           -0.0657     0.5195    -0.4863 H       
  17 H17           -0.8962     3.3405    -0.2755 H       
  18 H18            4.0414     2.3839    -2.0978 H       
  19 H19            5.0102     3.3264    -0.0426 H       
  20 H20            3.6729     3.4269     2.0195 H       
  21 H21            1.3573     2.5958     2.0372 H       
  22 H22            1.8399     3.0184    -3.7581 H       
  23 H23            0.7510     1.6644    -5.6136 H       
  24 H24            0.0008    -0.6569    -4.9153 H       
  25 H25           -2.2448     0.9618    -1.3761 H       
  26 H26           -2.6743     1.7431     0.1644 H       
  27 H27           -2.8871     2.6218    -1.3688 H       
@<TRIPOS>BOND
   1    1    2 1
   2    1    3 1
   3    1   15 1
   4    1   16 1
   5    2   14 1
   6    2   17 1
   7    3    4 ar
   8    3    8 ar
   9    4    5 ar
  10    4    9 1
  11    5    6 ar
  12    5   18 1
  13    6    7 ar
  14    6   19 1
  15    7    8 ar
  16    7   20 1
  17    8   21 1
  18    9   10 2
  19    9   13 1
  20   10   11 1
  21   10   22 1
  22   11   12 2
  23   11   23 1
  24   12   13 1
  25   12   24 1
  26   14   25 1
  27   14   26 1
  28   14   27 1

#	End of record

