#	Name: ASD14720002
#	Creating user name:	WinNT
#	Creation time:	15. 06. 2019 21:31

#	Modifying user name:	WinNT
#	Modification time:	15. 06. 2019 21:31

#	Program:	/corina/corina34_cracker 3.40 0067  02.08.2006

@<TRIPOS>MOLECULE
ASD14720002
  52   55    0    0    0
SMALL
NO_CHARGES


@<TRIPOS>ATOM
   1 N1             1.0925     2.8397    -0.0304 N.3     
   2 C2             1.6849     1.7592    -0.8348 C.3     
   3 C3             2.3125     2.3739    -2.0862 C.3     
   4 C4             3.2086     3.5229    -1.7012 C.ar    
   5 C5             2.1476     3.6527     0.5829 C.3     
   6 C6             4.1328     3.9805    -2.6283 C.ar    
   7 C7             4.9702     5.0328    -2.3174 C.ar    
   8 C8             4.8869     5.6341    -1.0751 C.ar    
   9 C9             3.9683     5.1787    -0.1513 C.ar    
  10 C10            3.1272     4.1199    -0.4616 C.ar    
  11 C11            0.1844     2.2992     0.9900 C.3     
  12 C12           -0.1651     3.3834     1.9766 C.2     
  13 C13           -1.0733     1.7978     0.3282 C.ar    
  14 N14            0.1057     3.3915     3.2590 N.2     
  15 N15           -0.8107     4.5341     1.7108 N.pl3   
  16 N16           -0.9092     5.1801     2.8233 N.2     
  17 N17           -0.3548     4.4873     3.7560 N.2     
  18 C18           -2.3015     1.2657    -1.6572 C.ar    
  19 C19           -3.3834     0.8778    -0.8883 C.ar    
  20 C20           -3.3158     0.9535     0.4892 C.ar    
  21 C21           -2.1591     1.4143     1.1016 C.ar    
  22 C22           -1.1479     1.7251    -1.0495 C.ar    
  23 C23           -1.3078     4.9712     0.4039 C.3     
  24 C24           -2.6191     4.2485     0.0892 C.3     
  25 C25           -1.5513     6.4815     0.4299 C.3     
  26 C26           -0.2720     4.6401    -0.6725 C.3     
  27 O27           -2.0899     1.4893     2.4567 O.3     
  28 H28            2.4524     1.2484    -0.2534 H       
  29 H29            0.9089     1.0507    -1.1246 H       
  30 H30            2.8986     1.6164    -2.6065 H       
  31 H31            1.5239     2.7354    -2.7462 H       
  32 H32            1.6985     4.5189     1.0687 H       
  33 H33            2.6734     3.0572     1.3292 H       
  34 H34            4.1979     3.5109    -3.5987 H       
  35 H35            5.6889     5.3853    -3.0424 H       
  36 H36            5.5396     6.4583    -0.8281 H       
  37 H37            3.9041     5.6490     0.8188 H       
  38 H38            0.6730     1.4765     1.5121 H       
  39 H39           -2.3563     1.2057    -2.7342 H       
  40 H40           -4.2836     0.5193    -1.3654 H       
  41 H41           -4.1611     0.6505     1.0893 H       
  42 H42           -0.3043     2.0278    -1.6522 H       
  43 H43           -3.3741     4.5296     0.8234 H       
  44 H44           -2.9590     4.5299    -0.9074 H       
  45 H45           -2.4584     3.1711     0.1276 H       
  46 H46           -0.6171     6.9963     0.6540 H       
  47 H47           -1.9212     6.8067    -0.5425 H       
  48 H48           -2.2892     6.7174     1.1967 H       
  49 H49           -0.2974     3.5712    -0.8845 H       
  50 H50           -0.5018     5.1964    -1.5812 H       
  51 H51            0.7210     4.9168    -0.3184 H       
  52 H52           -1.6863     0.7156     2.8734 H       
@<TRIPOS>BOND
   1    1    2 1
   2    1    5 1
   3    1   11 1
   4    2    3 1
   5    2   28 1
   6    2   29 1
   7    3    4 1
   8    3   30 1
   9    3   31 1
  10    4    6 ar
  11    4   10 ar
  12    5   10 1
  13    5   32 1
  14    5   33 1
  15    6    7 ar
  16    6   34 1
  17    7    8 ar
  18    7   35 1
  19    8    9 ar
  20    8   36 1
  21    9   10 ar
  22    9   37 1
  23   11   12 1
  24   11   13 1
  25   11   38 1
  26   12   15 1
  27   12   14 2
  28   13   22 ar
  29   13   21 ar
  30   14   17 1
  31   15   16 1
  32   15   23 1
  33   16   17 2
  34   18   19 ar
  35   18   22 ar
  36   18   39 1
  37   19   20 ar
  38   19   40 1
  39   20   21 ar
  40   20   41 1
  41   21   27 1
  42   22   42 1
  43   23   24 1
  44   23   25 1
  45   23   26 1
  46   24   43 1
  47   24   44 1
  48   24   45 1
  49   25   46 1
  50   25   47 1
  51   25   48 1
  52   26   49 1
  53   26   50 1
  54   26   51 1
  55   27   52 1

#	End of record

