#	Name: ASD10420184
#	Creating user name:	WinNT
#	Creation time:	15. 06. 2019 21:27

#	Modifying user name:	WinNT
#	Modification time:	15. 06. 2019 21:27

#	Program:	/corina/corina34_cracker 3.40 0067  02.08.2006

@<TRIPOS>MOLECULE
ASD10420184
  28   29    0    0    0
SMALL
NO_CHARGES


@<TRIPOS>ATOM
   1 C1            -0.1358     1.3527     0.4884 C.ar    
   2 C2            -0.0675    -0.0245     0.2992 C.ar    
   3 C3             1.0245    -0.7327     0.7746 C.ar    
   4 C4             2.0430    -0.0713     1.4352 C.ar    
   5 C5             1.9750     1.2967     1.6236 C.ar    
   6 C6             0.8888     2.0095     1.1516 C.ar    
   7 O7            -1.2026     2.0529     0.0189 O.3     
   8 C8            -1.1733     3.4072     0.1250 C.ar    
   9 C9            -0.6125     4.1718    -0.8882 C.ar    
  10 C10           -0.5840     5.5484    -0.7779 C.ar    
  11 C11           -1.1132     6.1647     0.3411 C.ar    
  12 C12           -1.6726     5.4052     1.3521 C.ar    
  13 C13           -1.7093     4.0285     1.2440 C.ar    
  14 C14            3.2298    -0.8433     1.9515 C.3     
  15 O15            4.2402    -0.8946     0.9423 O.3     
  16 O16           -1.0704    -0.6737    -0.3504 O.3     
  17 H17            1.0798    -1.8015     0.6293 H       
  18 H18            2.7726     1.8096     2.1405 H       
  19 H19            0.8385     3.0781     1.2995 H       
  20 H20           -0.1983     3.6909    -1.7621 H       
  21 H21           -0.1476     6.1439    -1.5661 H       
  22 H22           -1.0893     7.2411     0.4257 H       
  23 H23           -2.0853     5.8890     2.2250 H       
  24 H24           -2.1503     3.4361     2.0319 H       
  25 H25            3.6268    -0.3491     2.8383 H       
  26 H26            2.9205    -1.8565     2.2079 H       
  27 H27            5.0354    -1.3775     1.2061 H       
  28 H28           -0.9442    -0.7351    -1.3072 H       
@<TRIPOS>BOND
   1    1    2 ar
   2    1    6 ar
   3    1    7 1
   4    2    3 ar
   5    2   16 1
   6    3    4 ar
   7    3   17 1
   8    4    5 ar
   9    4   14 1
  10    5    6 ar
  11    5   18 1
  12    6   19 1
  13    7    8 1
  14    8    9 ar
  15    8   13 ar
  16    9   10 ar
  17    9   20 1
  18   10   11 ar
  19   10   21 1
  20   11   12 ar
  21   11   22 1
  22   12   13 ar
  23   12   23 1
  24   13   24 1
  25   14   15 1
  26   14   25 1
  27   14   26 1
  28   15   27 1
  29   16   28 1

#	End of record

