#	Name: ASD14250001
#	Creating user name:	WinNT
#	Creation time:	15. 06. 2019 21:31

#	Modifying user name:	WinNT
#	Modification time:	15. 06. 2019 21:31

#	Program:	/corina/corina34_cracker 3.40 0067  02.08.2006

@<TRIPOS>MOLECULE
ASD14250001
  59   61    0    0    0
SMALL
NO_CHARGES


@<TRIPOS>ATOM
   1 O1            -0.0173     1.4259     0.0099 O.3     
   2 C2             0.0021    -0.0041     0.0020 C.3     
   3 C3             0.7485    -0.4921    -1.2424 C.3     
   4 N4             2.1015     0.0829    -1.2528 N.3     
   5 C5             2.0433     1.5519    -1.2438 C.3     
   6 C6             1.2838     2.0194     0.0006 C.3     
   7 C7             2.8725    -0.4063    -2.4036 C.3     
   8 C8             4.1715     0.3931    -2.5241 C.3     
   9 N9             4.9405    -0.0948    -3.6717 N.am    
  10 C10            6.1287     0.4650    -3.9738 C.2     
  11 N11            6.8361     0.0162    -5.0295 N.am    
  12 C12            8.0656     0.5955    -5.3422 C.2     
  13 C13            8.6719     1.6112    -4.6687 C.2     
  14 N14            8.8820     0.2451    -6.3731 N.pl3   
  15 N15           10.0104     1.0738    -6.3258 N.2     
  16 C16            9.8833     1.8877    -5.3089 C.2     
  17 C17            8.6375    -0.7646    -7.3139 C.ar    
  18 C18            9.0543    -0.6060    -8.6287 C.ar    
  19 C19            8.8123    -1.6030    -9.5535 C.ar    
  20 C20            8.1557    -2.7582    -9.1709 C.ar    
  21 C21            7.7394    -2.9192    -7.8621 C.ar    
  22 C22            7.9831    -1.9280    -6.9315 C.ar    
  23 C23            7.8928    -3.8439   -10.1824 C.3     
  24 C24           10.8768     2.9429    -4.8960 C.3     
  25 C25           11.6353     2.4711    -3.6538 C.3     
  26 C26           11.8672     3.1852    -6.0368 C.3     
  27 C27           10.1367     4.2437    -4.5782 C.3     
  28 O28            6.5624     1.3750    -3.2939 O.2     
  29 H29            0.5095    -0.3661     0.8962 H       
  30 H30           -1.0202    -0.3818    -0.0153 H       
  31 H31            0.8155    -1.5799    -1.2234 H       
  32 H32            0.2115    -0.1755    -2.1365 H       
  33 H33            3.0554     1.9561    -1.2258 H       
  34 H34            1.5270     1.9012    -2.1379 H       
  35 H35            1.1886     3.1051    -0.0176 H       
  36 H36            1.8285     1.7162     0.8948 H       
  37 H37            3.1070    -1.4613    -2.2618 H       
  38 H38            2.2848    -0.2837    -3.3133 H       
  39 H39            3.9371     1.4481    -2.6658 H       
  40 H40            4.7593     0.2705    -1.6143 H       
  41 H41            4.5944    -0.8207    -4.2141 H       
  42 H42            6.4900    -0.7097    -5.5720 H       
  43 H43            8.2853     2.1144    -3.7948 H       
  44 H44            9.5668     0.2962    -8.9282 H       
  45 H45            9.1359    -1.4800   -10.5765 H       
  46 H46            7.2265    -3.8224    -7.5663 H       
  47 H47            7.6618    -2.0562    -5.9085 H       
  48 H48            8.7308    -4.5408   -10.1935 H       
  49 H49            6.9805    -4.3769    -9.9146 H       
  50 H50            7.7770    -3.3992   -11.1709 H       
  51 H51           12.1626     1.5443    -3.8803 H       
  52 H52           12.3539     3.2343    -3.3552 H       
  53 H53           10.9298     2.2984    -2.8411 H       
  54 H54           11.3268     3.5214    -6.9218 H       
  55 H55           12.5858     3.9484    -5.7382 H       
  56 H56           12.3944     2.2585    -6.2632 H       
  57 H57            9.4312     4.0711    -3.7655 H       
  58 H58           10.8553     5.0069    -4.2795 H       
  59 H59            9.5964     4.5798    -5.4631 H       
@<TRIPOS>BOND
   1    1    2 1
   2    1    6 1
   3    2    3 1
   4    2   29 1
   5    2   30 1
   6    3    4 1
   7    3   31 1
   8    3   32 1
   9    4    5 1
  10    4    7 1
  11    5    6 1
  12    5   33 1
  13    5   34 1
  14    6   35 1
  15    6   36 1
  16    7    8 1
  17    7   37 1
  18    7   38 1
  19    8    9 1
  20    8   39 1
  21    8   40 1
  22    9   10 am
  23    9   41 1
  24   10   11 am
  25   10   28 2
  26   11   12 1
  27   11   42 1
  28   12   14 1
  29   12   13 2
  30   13   16 1
  31   13   43 1
  32   14   15 1
  33   14   17 1
  34   15   16 2
  35   16   24 1
  36   17   18 ar
  37   17   22 ar
  38   18   19 ar
  39   18   44 1
  40   19   20 ar
  41   19   45 1
  42   20   21 ar
  43   20   23 1
  44   21   22 ar
  45   21   46 1
  46   22   47 1
  47   23   48 1
  48   23   49 1
  49   23   50 1
  50   24   25 1
  51   24   26 1
  52   24   27 1
  53   25   51 1
  54   25   52 1
  55   25   53 1
  56   26   54 1
  57   26   55 1
  58   26   56 1
  59   27   57 1
  60   27   58 1
  61   27   59 1

#	End of record

