#	Name: ASD10100021
#	Creating user name:	WinNT
#	Creation time:	15. 06. 2019 21:24

#	Modifying user name:	WinNT
#	Modification time:	15. 06. 2019 21:24

#	Program:	/corina/corina34_cracker 3.40 0067  02.08.2006

@<TRIPOS>MOLECULE
ASD10100021
  45   47    0    0    0
SMALL
NO_CHARGES


@<TRIPOS>ATOM
   1 C1             2.0202    -0.0315     0.5748 C.ar    
   2 C2             2.8699    -1.0979     0.8009 C.ar    
   3 C3             4.2250    -0.9662     0.5566 C.ar    
   4 Br4            5.3880    -2.4250     0.8653 Br      
   5 C5             4.7291     0.2329     0.0860 C.ar    
   6 C6             3.8787     1.2988    -0.1399 C.ar    
   7 C7             2.5244     1.1666     0.1044 C.ar    
   8 C8             1.5975     2.3289    -0.1425 C.3     
   9 N9             1.4891     3.1346     1.0762 N.am    
  10 C10            2.3653     4.1744     1.2893 C.2     
  11 N11            3.3419     4.4608     0.3630 N.pl3   
  12 C12            0.5300     2.8572     1.9784 C.2     
  13 O13           -0.2387     1.9378     1.7712 O.2     
  14 N14            0.4081     3.5806     3.1060 N.am    
  15 C15            1.2470     4.6045     3.3586 C.2     
  16 O16            1.1297     5.2553     4.3834 O.2     
  17 C17            2.2557     4.9210     2.4309 C.2     
  18 N18            3.1430     5.9950     2.6741 N.am    
  19 C19            4.5687     5.8505     2.3697 C.3     
  20 S20            2.5705     7.4159     3.3030 S.o2    
  21 O21            3.1305     8.4577     2.5155 O.2     
  22 O22            1.1714     7.2415     3.4799 O.2     
  23 C23            3.2585     7.5869     4.9161 C.ar    
  24 C24            4.4667     8.2366     5.0870 C.ar    
  25 C25            5.0064     8.3707     6.3525 C.ar    
  26 C26            4.3378     7.8557     7.4472 C.ar    
  27 C27            3.1291     7.2069     7.2765 C.ar    
  28 C28            2.5873     7.0765     6.0115 C.ar    
  29 H29            0.9615    -0.1357     0.7612 H       
  30 H30            2.4759    -2.0339     1.1687 H       
  31 H31            5.7871     0.3364    -0.1045 H       
  32 H32            4.2721     2.2351    -0.5073 H       
  33 H33            1.9933     2.9440    -0.9507 H       
  34 H34            0.6119     1.9550    -0.4198 H       
  35 H35            3.1463     4.3934    -0.5846 H       
  36 H36            4.2259     4.7301     0.6578 H       
  37 H37           -0.2903     3.3633     3.7431 H       
  38 H38            4.7769     6.2827     1.3909 H       
  39 H39            5.1565     6.3680     3.1279 H       
  40 H40            4.8337     4.7932     2.3637 H       
  41 H41            4.9891     8.6390     4.2316 H       
  42 H42            1.6412     6.5728     5.8785 H       
  43 H43            5.9507     8.8777     6.4859 H       
  44 H44            4.7598     7.9599     8.4359 H       
  45 H45            2.6069     6.8042     8.1318 H       
@<TRIPOS>BOND
   1    1    2 ar
   2    1    7 ar
   3    1   29 1
   4    2    3 ar
   5    2   30 1
   6    3    4 1
   7    3    5 ar
   8    5    6 ar
   9    5   31 1
  10    6    7 ar
  11    6   32 1
  12    7    8 1
  13    8    9 1
  14    8   33 1
  15    8   34 1
  16    9   10 1
  17    9   12 am
  18   10   11 1
  19   10   17 2
  20   11   35 1
  21   11   36 1
  22   12   13 2
  23   12   14 am
  24   14   15 am
  25   14   37 1
  26   15   16 2
  27   15   17 1
  28   17   18 1
  29   18   19 1
  30   18   20 am
  31   19   38 1
  32   19   39 1
  33   19   40 1
  34   20   21 2
  35   20   22 2
  36   20   23 1
  37   23   24 ar
  38   23   28 ar
  39   24   25 ar
  40   24   41 1
  41   25   26 ar
  42   25   43 1
  43   26   27 ar
  44   26   44 1
  45   27   28 ar
  46   27   45 1
  47   28   42 1

#	End of record

