#	Name: ASD11740018
#	Creating user name:	WinNT
#	Creation time:	15. 06. 2019 21:29

#	Modifying user name:	WinNT
#	Modification time:	15. 06. 2019 21:29

#	Program:	/corina/corina34_cracker 3.40 0067  02.08.2006

@<TRIPOS>MOLECULE
ASD11740018
  47   48    0    0    0
SMALL
NO_CHARGES


@<TRIPOS>ATOM
   1 C1            -0.1727     1.0646    -0.5060 C.3     
   2 C2            -3.2477     2.7128    -0.2322 C.ar    
   3 C3            -3.9366     3.2366     0.8422 C.ar    
   4 C4            -4.7452     2.4239     1.6213 C.ar    
   5 C5            -4.8705     1.0832     1.3310 C.ar    
   6 C6            -4.1797     0.5373     0.2458 C.ar    
   7 C7            -3.3614     1.3628    -0.5408 C.ar    
   8 N8            -2.6692     0.8332    -1.6221 N.am    
   9 S9            -1.1568     1.3963    -1.9933 S.o2    
  10 O10           -1.3372     2.7947    -2.1703 O.2     
  11 O11           -0.7296     0.5709    -3.0682 O.2     
  12 C12           -4.3089    -0.8967    -0.0701 C.2     
  13 N13           -5.0952    -1.6858     0.6886 N.am    
  14 O14           -3.7060    -1.3678    -1.0155 O.2     
  15 C15           -5.3082    -3.0210     0.3232 C.ar    
  16 C16           -5.6874    -3.9563     1.2840 C.ar    
  17 C17           -5.8967    -5.2753     0.9168 C.ar    
  18 C18           -5.7294    -5.6615    -0.4005 C.ar    
  19 C19           -5.3533    -4.7342    -1.3542 C.ar    
  20 C20           -5.1480    -3.4146    -0.9971 C.ar    
  21 O21           -5.8510    -3.5752     2.5790 O.3     
  22 C22           -6.2407    -4.5877     3.5090 C.3     
  23 C23           -6.3742    -3.9745     4.9044 C.3     
  24 C24           -0.1687    -0.4388    -0.2220 C.3     
  25 C25            1.2628     1.5458    -0.7265 C.3     
  26 H26           -0.6069     1.5935     0.3424 H       
  27 H27           -2.6229     3.3537    -0.8367 H       
  28 H28           -3.8450     4.2866     1.0781 H       
  29 H29           -5.2796     2.8440     2.4605 H       
  30 H30           -5.5017     0.4545     1.9416 H       
  31 H31           -3.0718     0.1335    -2.1600 H       
  32 H32           -5.5135    -1.3290     1.4877 H       
  33 H33           -6.1902    -6.0024     1.6595 H       
  34 H34           -5.8927    -6.6905    -0.6849 H       
  35 H35           -5.2236    -5.0406    -2.3817 H       
  36 H36           -4.8546    -2.6922    -1.7443 H       
  37 H37           -7.1980    -5.0112     3.2052 H       
  38 H38           -5.4855    -5.3735     3.5282 H       
  39 H39           -5.4169    -3.5510     5.2082 H       
  40 H40           -7.1294    -3.1887     4.8852 H       
  41 H41           -6.6714    -4.7469     5.6138 H       
  42 H42            0.4227    -0.6381     0.6717 H       
  43 H43           -1.1913    -0.7816    -0.0649 H       
  44 H44            0.2656    -0.9677    -1.0704 H       
  45 H45            1.6971     1.0169    -1.5749 H       
  46 H46            1.2599     2.6169    -0.9288 H       
  47 H47            1.8541     1.3465     0.1672 H       
@<TRIPOS>BOND
   1    1   24 1
   2    1   25 1
   3    1    9 1
   4    1   26 1
   5    2    3 ar
   6    2    7 ar
   7    2   27 1
   8    3    4 ar
   9    3   28 1
  10    4    5 ar
  11    4   29 1
  12    5    6 ar
  13    5   30 1
  14    6    7 ar
  15    6   12 1
  16    7    8 1
  17    8    9 am
  18    8   31 1
  19    9   10 2
  20    9   11 2
  21   12   13 am
  22   12   14 2
  23   13   15 1
  24   13   32 1
  25   15   16 ar
  26   15   20 ar
  27   16   17 ar
  28   16   21 1
  29   17   18 ar
  30   17   33 1
  31   18   19 ar
  32   18   34 1
  33   19   20 ar
  34   19   35 1
  35   20   36 1
  36   21   22 1
  37   22   23 1
  38   22   37 1
  39   22   38 1
  40   23   39 1
  41   23   40 1
  42   23   41 1
  43   24   42 1
  44   24   43 1
  45   24   44 1
  46   25   45 1
  47   25   46 1
  48   25   47 1

#	End of record

