#	Name: ASD13090001
#	Creating user name:	WinNT
#	Creation time:	15. 06. 2019 21:30

#	Modifying user name:	WinNT
#	Modification time:	15. 06. 2019 21:30

#	Program:	/corina/corina34_cracker 3.40 0067  02.08.2006

@<TRIPOS>MOLECULE
ASD13090001
  63   66    0    0    0
SMALL
NO_CHARGES


@<TRIPOS>ATOM
   1 C1            -2.9154     4.1801    -0.9211 C.1     
   2 C2            -2.2423     1.5266     0.0503 C.3     
   3 Cl3           -1.0482    -3.5108     6.4942 Cl      
   4 C4            -5.3658    -4.1048     2.5066 C.3     
   5 O5            -4.0082    -3.8063     2.8383 O.3     
   6 C6            -3.2634    -3.2042     1.8875 C.2     
   7 C7            -1.9123    -2.8800     2.1480 C.2     
   8 C8            -1.1421    -2.3970     1.1539 C.2     
   9 C9            -1.7214    -2.1927    -0.2222 C.3     
  10 N10           -2.4084    -0.8954    -0.2767 N.3     
  11 C11           -3.1062    -0.7228    -1.5572 C.3     
  12 C12           -3.9266     0.5686    -1.5225 C.3     
  13 C13           -2.9925     1.7543    -1.2650 C.3     
  14 C14           -1.4707     0.2074    -0.0300 C.3     
  15 C15           -3.8144     3.0412    -1.1687 C.3     
  16 C16           -2.1984     5.0885    -0.7237 C.1     
  17 O17           -4.7494     2.9299    -0.0937 O.3     
  18 C18           -4.5411     3.2549    -2.4308 C.1     
  19 C19           -5.1207     3.4254    -3.4375 C.1     
  20 N20            0.1710    -2.0920     1.4010 N.pl3   
  21 C21            0.7881    -2.5979     2.5270 C.2     
  22 C22            2.2685    -2.6090     2.6004 C.ar    
  23 C23            2.9000    -3.1176     3.7328 C.ar    
  24 C24            4.2845    -3.1214     3.7869 C.ar    
  25 C25            4.9901    -2.6160     2.7057 C.ar    
  26 C26            4.2968    -2.1260     1.6117 C.ar    
  27 N27            2.9813    -2.1393     1.5842 N.ar    
  28 N28            0.1013    -3.0619     3.5196 N.2     
  29 C29           -1.3580    -3.0735     3.5308 C.3     
  30 C30           -1.8590    -1.9670     4.4228 C.ar    
  31 C31           -1.7548    -2.0863     5.7976 C.ar    
  32 C32           -2.2140    -1.0710     6.6165 C.ar    
  33 C33           -2.7778     0.0646     6.0601 C.ar    
  34 C34           -2.8812     0.1823     4.6845 C.ar    
  35 C35           -2.4170    -0.8312     3.8673 C.ar    
  36 O36           -3.7548    -2.9402     0.8060 O.2     
  37 F37           -3.2272     1.0571     6.8590 F       
  38 H38           -1.5443     2.3469     0.2177 H       
  39 H39           -2.9553     1.4816     0.8735 H       
  40 H40           -5.8500    -4.5859     3.3563 H       
  41 H41           -5.8918    -3.1817     2.2634 H       
  42 H42           -5.3909    -4.7746     1.6470 H       
  43 H43           -0.9194    -2.2104    -0.9603 H       
  44 H44           -2.4325    -2.9898    -0.4391 H       
  45 H45           -2.3756    -0.6673    -2.3643 H       
  46 H46           -3.7703    -1.5704    -1.7260 H       
  47 H47           -4.4320     0.7045    -2.4786 H       
  48 H48           -4.6671     0.5080    -0.7249 H       
  49 H49           -2.2768     1.8384    -2.0828 H       
  50 H50           -0.7478     0.2585    -0.8443 H       
  51 H51           -0.9468     0.0353     0.9102 H       
  52 H52           -1.5571     5.9010    -0.5471 H       
  53 H53           -5.3746     2.1986    -0.1903 H       
  54 H54           -5.6390     3.5778    -4.3378 H       
  55 H55            2.3187    -3.5032     4.5572 H       
  56 H56            4.8023    -3.5089     4.6518 H       
  57 H57            6.0700    -2.6043     2.7168 H       
  58 H58            4.8433    -1.7312     0.7680 H       
  59 H59           -2.1332    -1.1639     7.6895 H       
  60 H60           -3.3213     1.0677     4.2499 H       
  61 H61           -2.4937    -0.7372     2.7942 H       
  62 H62            0.6637    -1.5242     0.7880 H       
  63 H63           -1.7023    -4.0305     3.9229 H       
@<TRIPOS>BOND
   1    1   15 1
   2    1   16 3
   3    2   14 1
   4    2   38 1
   5    2   39 1
   6    2   13 1
   7    3   31 1
   8    4   40 1
   9    4   41 1
  10    4   42 1
  11    4    5 1
  12    5    6 1
  13    6    7 1
  14    6   36 2
  15    7   29 1
  16    7    8 2
  17    8    9 1
  18    8   20 1
  19    9   10 1
  20    9   43 1
  21    9   44 1
  22   10   11 1
  23   10   14 1
  24   11   45 1
  25   11   46 1
  26   11   12 1
  27   12   47 1
  28   12   48 1
  29   12   13 1
  30   13   49 1
  31   13   15 1
  32   14   50 1
  33   14   51 1
  34   15   17 1
  35   15   18 1
  36   16   52 1
  37   17   53 1
  38   18   19 3
  39   19   54 1
  40   20   21 1
  41   20   62 1
  42   21   28 2
  43   21   22 1
  44   22   23 ar
  45   22   27 ar
  46   23   24 ar
  47   23   55 1
  48   24   56 1
  49   24   25 ar
  50   25   57 1
  51   25   26 ar
  52   26   58 1
  53   26   27 ar
  54   28   29 1
  55   29   30 1
  56   29   63 1
  57   30   31 ar
  58   30   35 ar
  59   31   32 ar
  60   32   59 1
  61   32   33 ar
  62   33   37 1
  63   33   34 ar
  64   34   60 1
  65   34   35 ar
  66   35   61 1

#	End of record

