#	Name: ASD10420158
#	Creating user name:	WinNT
#	Creation time:	15. 06. 2019 21:27

#	Modifying user name:	WinNT
#	Modification time:	15. 06. 2019 21:27

#	Program:	/corina/corina34_cracker 3.40 0067  02.08.2006

@<TRIPOS>MOLECULE
ASD10420158
  29   30    0    0    0
SMALL
NO_CHARGES


@<TRIPOS>ATOM
   1 C1            -0.0167     1.3780     0.0096 C.ar    
   2 C2             0.0021    -0.0041     0.0020 C.ar    
   3 C3             1.1705     2.0859     0.0021 C.ar    
   4 C4             5.4779    -3.0671    -1.5058 C.ar    
   5 C5             6.6472    -0.9756    -1.5072 C.ar    
   6 C6             4.1450    -0.9493    -1.4836 C.3     
   7 C7             3.7131    -0.7072    -0.0359 C.3     
   8 C8             1.2094    -0.6798    -0.0127 C.ar    
   9 C9             2.3784     1.4113    -0.0131 C.ar    
  10 C10            7.8758    -3.0351    -1.5286 C.ar    
  11 C11            6.6830    -3.7443    -1.5205 C.ar    
  12 C12            7.8552    -1.6475    -1.5214 C.ar    
  13 C13            5.4603    -1.6846    -1.4991 C.ar    
  14 C14            2.3978     0.0281    -0.0203 C.ar    
  15 O15            9.0623    -3.6984    -1.5426 O.3     
  16 Cl16           1.2327    -2.4156    -0.0211 Cl      
  17 Cl17           3.8693     2.3005    -0.0232 Cl      
  18 Br18           6.7060    -5.6351    -1.5289 Br      
  19 Br19           9.4780    -0.6768    -1.5324 Br      
  20 H20           -0.9593     1.9050     0.0170 H       
  21 H21           -0.9258    -0.5566     0.0079 H       
  22 H22            1.1552     3.1657     0.0077 H       
  23 H23            4.5492    -3.6185    -1.5040 H       
  24 H24            6.6305     0.1043    -1.5019 H       
  25 H25            3.3889    -1.5464    -1.9933 H       
  26 H26            4.2574     0.0072    -1.9940 H       
  27 H27            3.6007    -1.6638     0.4745 H       
  28 H28            4.4693    -0.1101     0.4738 H       
  29 H29            9.3973    -3.8865    -2.4300 H       
@<TRIPOS>BOND
   1    1    2 ar
   2    1    3 ar
   3    1   20 1
   4    2    8 ar
   5    2   21 1
   6    3    9 ar
   7    3   22 1
   8    4   11 ar
   9    4   13 ar
  10    4   23 1
  11    5   12 ar
  12    5   13 ar
  13    5   24 1
  14    6    7 1
  15    6   13 1
  16    6   25 1
  17    6   26 1
  18    7   14 1
  19    7   27 1
  20    7   28 1
  21    8   14 ar
  22    8   16 1
  23    9   14 ar
  24    9   17 1
  25   10   11 ar
  26   10   12 ar
  27   10   15 1
  28   11   18 1
  29   12   19 1
  30   15   29 1

#	End of record

