#	Name: ASD13110037
#	Creating user name:	WinNT
#	Creation time:	15. 06. 2019 21:30

#	Modifying user name:	WinNT
#	Modification time:	15. 06. 2019 21:30

#	Program:	/corina/corina34_cracker 3.40 0067  02.08.2006

@<TRIPOS>MOLECULE
ASD13110037
  26   27    0    0    0
SMALL
NO_CHARGES


@<TRIPOS>ATOM
   1 C1            -0.0169     1.3928     0.0097 C.ar    
   2 C2             0.0021    -0.0041     0.0020 C.ar    
   3 C3             1.2349    -0.6787    -0.0134 C.ar    
   4 C4             2.4185     0.0459    -0.0215 C.ar    
   5 C5             2.3756     1.4242    -0.0143 C.ar    
   6 C6             1.1584     2.0897     0.0022 C.ar    
   7 N7             0.9319    -2.0257    -0.0170 N.pl3   
   8 C8            -0.4239    -2.1355    -0.0042 C.2     
   9 N9            -0.9683    -0.9539     0.0069 N.2     
  10 C10           -1.1846    -3.4364    -0.0026 C.3     
  11 N11           -1.5225    -3.8044     1.3788 N.3     
  12 C12           -2.2663    -5.0706     1.4194 C.3     
  13 C13            1.1322     3.5964     0.0106 C.3     
  14 F14            1.1367     4.0556     1.3321 F       
  15 F15            2.2598     4.0862    -0.6571 F       
  16 F16           -0.0243     4.0463    -0.6355 F       
  17 H17           -0.9589     1.9210     0.0170 H       
  18 H18            3.3688    -0.4672    -0.0329 H       
  19 H19            3.2959     1.9895    -0.0202 H       
  20 H20            1.5680    -2.7580    -0.0268 H       
  21 H21           -2.1004    -3.3225    -0.5826 H       
  22 H22           -0.5683    -4.2182    -0.4465 H       
  23 H23           -0.6942    -3.8531     1.9530 H       
  24 H24           -1.6575    -5.8637     0.9854 H       
  25 H25           -2.5037    -5.3195     2.4538 H       
  26 H26           -3.1896    -4.9680     0.8493 H       
@<TRIPOS>BOND
   1    1    2 ar
   2    1    6 ar
   3    1   17 1
   4    2    9 1
   5    2    3 ar
   6    3    4 ar
   7    3    7 1
   8    4    5 ar
   9    4   18 1
  10    5    6 ar
  11    5   19 1
  12    6   13 1
  13    7    8 1
  14    7   20 1
  15    8   10 1
  16    8    9 2
  17   10   11 1
  18   10   21 1
  19   10   22 1
  20   11   12 1
  21   11   23 1
  22   12   24 1
  23   12   25 1
  24   12   26 1
  25   13   14 1
  26   13   15 1
  27   13   16 1

#	End of record

