#	Name: ASD10800037
#	Creating user name:	WinNT
#	Creation time:	15. 06. 2019 21:28

#	Modifying user name:	WinNT
#	Modification time:	15. 06. 2019 21:28

#	Program:	/corina/corina34_cracker 3.40 0067  02.08.2006

@<TRIPOS>MOLECULE
ASD10800037
  47   50    0    0    0
SMALL
NO_CHARGES


@<TRIPOS>ATOM
   1 C1            -0.0169     1.3939     0.0097 C.ar    
   2 C2             0.0021    -0.0041     0.0020 C.ar    
   3 C3             1.2000    -0.6790    -0.0131 C.ar    
   4 C4             2.3970     0.0237    -0.0208 C.ar    
   5 C5             2.4013     1.3849    -0.0135 C.ar    
   6 C6             1.1870     2.1041     0.0020 C.ar    
   7 C7             3.7117     2.1292    -0.0220 C.3     
   8 C8             4.1068     2.4826     1.4132 C.3     
   9 N9             4.7488     1.2850    -0.6203 N.pl3   
  10 C10            5.3517     3.3318     1.3968 C.ar    
  11 C11            5.2483     4.7087     1.3318 C.ar    
  12 C12            6.5969     2.7341     1.4526 C.ar    
  13 C13            7.7388     3.5130     1.4376 C.ar    
  14 C14            7.6355     4.8896     1.3664 C.ar    
  15 C15            6.3902     5.4877     1.3168 C.ar    
  16 C16            9.0962     2.8614     1.4993 C.3     
  17 C17            6.2775     6.9885     1.2392 C.3     
  18 C18            4.9081     1.2550    -1.9864 C.2     
  19 N19            5.7831     0.5523    -2.6111 N.2     
  20 S20            3.9338     2.1722    -3.1413 S.3     
  21 C21            4.7909     1.5583    -4.6274 C.3     
  22 C22            5.8520     0.6059    -4.0544 C.3     
  23 C23            0.9669     3.5412     0.0119 C.2     
  24 C24           -0.2990     3.9086     0.0259 C.2     
  25 S25           -1.3685     2.5196     0.0215 S.3     
  26 H26           -0.9266    -0.5553     0.0083 H       
  27 H27            1.2095    -1.7589    -0.0186 H       
  28 H28            3.3334    -0.5144    -0.0323 H       
  29 H29            3.6063     3.0438    -0.6056 H       
  30 H30            3.2960     3.0355     1.8876 H       
  31 H31            4.2987     1.5673     1.9731 H       
  32 H32            5.3233     0.7472    -0.0531 H       
  33 H33            4.2753     5.1759     1.2924 H       
  34 H34            6.6776     1.6585     1.5082 H       
  35 H35            8.5276     5.4982     1.3551 H       
  36 H36            9.4453     2.6526     0.4881 H       
  37 H37            9.7986     3.5314     1.9951 H       
  38 H38            9.0265     1.9290     2.0595 H       
  39 H39            6.2664     7.2985     0.1943 H       
  40 H40            5.3550     7.3091     1.7232 H       
  41 H41            7.1298     7.4433     1.7441 H       
  42 H42            4.1003     1.0162    -5.2733 H       
  43 H43            5.2598     2.3805    -5.1681 H       
  44 H44            6.8416     0.9535    -4.3509 H       
  45 H45            5.6906    -0.3936    -4.4584 H       
  46 H46            1.7787     4.2535     0.0083 H       
  47 H47           -0.6347     4.9350     0.0353 H       
@<TRIPOS>BOND
   1    1    2 ar
   2    1    6 ar
   3    1   25 1
   4    2    3 ar
   5    2   26 1
   6    3    4 ar
   7    3   27 1
   8    4    5 ar
   9    4   28 1
  10    5    6 ar
  11    5    7 1
  12    6   23 1
  13    7    8 1
  14    7    9 1
  15    7   29 1
  16    8   10 1
  17    8   30 1
  18    8   31 1
  19    9   18 1
  20    9   32 1
  21   10   11 ar
  22   10   12 ar
  23   11   15 ar
  24   11   33 1
  25   12   13 ar
  26   12   34 1
  27   13   14 ar
  28   13   16 1
  29   14   15 ar
  30   14   35 1
  31   15   17 1
  32   16   36 1
  33   16   37 1
  34   16   38 1
  35   17   39 1
  36   17   40 1
  37   17   41 1
  38   18   19 2
  39   18   20 1
  40   19   22 1
  41   20   21 1
  42   21   22 1
  43   21   42 1
  44   21   43 1
  45   22   44 1
  46   22   45 1
  47   23   24 2
  48   23   46 1
  49   24   25 1
  50   24   47 1

#	End of record

