#	Name: ASD11000055
#	Creating user name:	WinNT
#	Creation time:	15. 06. 2019 21:28

#	Modifying user name:	WinNT
#	Modification time:	15. 06. 2019 21:28

#	Program:	/corina/corina34_cracker 3.40 0067  02.08.2006

@<TRIPOS>MOLECULE
ASD11000055
  61   64    0    0    0
SMALL
NO_CHARGES


@<TRIPOS>ATOM
   1 C1            -2.8924    -0.6795     1.8110 C.ar    
   2 C2            -2.3842    -1.8988     1.4073 C.ar    
   3 C3            -1.0128    -2.0787     1.3044 C.ar    
   4 C4            -0.1517    -1.0344     1.6072 C.ar    
   5 C5            -0.6599     0.1849     2.0109 C.ar    
   6 C6            -2.0314     0.3650     2.1134 C.ar    
   7 O7            -2.5317     1.5654     2.5104 O.3     
   8 O8            -0.5124    -3.2790     0.9069 O.3     
   9 C9             0.9095    -3.3935     0.8231 C.3     
  10 C10            1.2813    -4.8046     0.3631 C.3     
  11 N11            1.0802    -4.9145    -1.0856 N.am    
  12 C12            2.7266    -5.0770     0.6977 C.ar    
  13 C13            3.6090    -5.6017    -0.2206 C.ar    
  14 C14            3.1583    -4.7814     1.9838 C.ar    
  15 C15            4.9254    -5.8453     0.1526 C.ar    
  16 C16            5.3592    -5.5566     1.4331 C.ar    
  17 C17            4.4692    -5.0166     2.3566 C.ar    
  18 C18            1.7026    -6.0605    -1.7691 C.3     
  19 C19            3.2182    -5.9173    -1.6406 C.3     
  20 O20            4.8853    -4.7234     3.6177 O.3     
  21 C21            3.9144    -4.1717     4.5094 C.3     
  22 O22            6.6494    -5.7986     1.7884 O.3     
  23 C23            7.5049    -6.3533     0.7871 C.3     
  24 C24           -3.9537     1.6801     2.5938 C.3     
  25 C25            0.3546    -4.0035    -1.7637 C.2     
  26 O26           -0.2401    -3.1300    -1.1622 O.2     
  27 N27            0.2881    -4.0606    -3.1086 N.am    
  28 C28           -0.5126    -3.1506    -3.8092 C.ar    
  29 C29           -1.2158    -3.5643    -4.9328 C.ar    
  30 C30           -2.0053    -2.6648    -5.6219 C.ar    
  31 C31           -2.0957    -1.3520    -5.1937 C.ar    
  32 C32           -1.3959    -0.9371    -4.0742 C.ar    
  33 C33           -0.6095    -1.8341    -3.3783 C.ar    
  34 Cl34          -3.0881    -0.2234    -6.0627 Cl      
  35 H35           -3.9604    -0.5380     1.8868 H       
  36 H36           -3.0547    -2.7121     1.1721 H       
  37 H37            0.9162    -1.1747     1.5278 H       
  38 H38            0.0106     0.9979     2.2471 H       
  39 H39            1.2910    -2.6656     0.1070 H       
  40 H40            1.3477    -3.2035     1.8028 H       
  41 H41            0.6485    -5.5308     0.8733 H       
  42 H42            2.4648    -4.3641     2.6989 H       
  43 H43            5.6159    -6.2643    -0.5644 H       
  44 H44            1.3788    -6.9897    -1.3003 H       
  45 H45            1.4200    -6.0598    -2.8218 H       
  46 H46            3.5589    -5.1135    -2.2932 H       
  47 H47            3.6933    -6.8502    -1.9443 H       
  48 H48            4.3763    -3.9849     5.4789 H       
  49 H49            3.5365    -3.2347     4.1004 H       
  50 H50            3.0901    -4.8747     4.6290 H       
  51 H51            7.5579    -5.6732    -0.0630 H       
  52 H52            8.5032    -6.4964     1.2007 H       
  53 H53            7.1062    -7.3135     0.4599 H       
  54 H54           -4.3916     1.4898     1.6139 H       
  55 H55           -4.3355     0.9524     3.3099 H       
  56 H56           -4.2186     2.6854     2.9211 H       
  57 H57            0.7950    -4.7322    -3.5912 H       
  58 H58           -1.1450    -4.5886    -5.2678 H       
  59 H59           -2.5525    -2.9861    -6.4958 H       
  60 H60           -1.4681     0.0880    -3.7421 H       
  61 H61           -0.0636    -1.5099    -2.5047 H       
@<TRIPOS>BOND
   1    1    2 ar
   2    1    6 ar
   3    1   35 1
   4    2    3 ar
   5    2   36 1
   6    3    4 ar
   7    3    8 1
   8    4    5 ar
   9    4   37 1
  10    5    6 ar
  11    5   38 1
  12    6    7 1
  13    7   24 1
  14    8    9 1
  15    9   10 1
  16    9   39 1
  17    9   40 1
  18   10   11 1
  19   10   12 1
  20   10   41 1
  21   11   18 1
  22   11   25 am
  23   12   13 ar
  24   12   14 ar
  25   13   15 ar
  26   13   19 1
  27   14   17 ar
  28   14   42 1
  29   15   16 ar
  30   15   43 1
  31   16   17 ar
  32   16   22 1
  33   17   20 1
  34   18   19 1
  35   18   44 1
  36   18   45 1
  37   19   46 1
  38   19   47 1
  39   20   21 1
  40   21   48 1
  41   21   49 1
  42   21   50 1
  43   22   23 1
  44   23   51 1
  45   23   52 1
  46   23   53 1
  47   24   54 1
  48   24   55 1
  49   24   56 1
  50   25   26 2
  51   25   27 am
  52   27   28 1
  53   27   57 1
  54   28   29 ar
  55   28   33 ar
  56   29   30 ar
  57   29   58 1
  58   30   31 ar
  59   30   59 1
  60   31   32 ar
  61   31   34 1
  62   32   33 ar
  63   32   60 1
  64   33   61 1

#	End of record

