#	Name: ASD10410144
#	Creating user name:	WinNT
#	Creation time:	15. 06. 2019 21:27

#	Modifying user name:	WinNT
#	Modification time:	15. 06. 2019 21:27

#	Program:	/corina/corina34_cracker 3.40 0067  02.08.2006

@<TRIPOS>MOLECULE
ASD10410144
  70   76    0    0    0
SMALL
NO_CHARGES


@<TRIPOS>ATOM
   1 C1             0.2266     1.7533     0.5570 C.ar    
   2 C2             0.1734     0.3823     0.7700 C.ar    
   3 C3             1.3176    -0.3896     0.6143 C.ar    
   4 C4             2.5078     0.2063     0.2482 C.ar    
   5 C5             2.5611     1.5778     0.0350 C.ar    
   6 C6             1.4171     2.3495     0.1903 C.ar    
   7 C7             1.2598    -1.8777     0.8455 C.3     
   8 N8             3.7685     2.1824    -0.3359 N.pl3   
   9 C9             3.7583     3.3476    -1.1021 C.2     
  10 N10            4.8147     4.0546    -1.4242 N.2     
  11 N11            2.6697     3.9191    -1.6304 N.2     
  12 C12            3.0143     5.0024    -2.2929 C.2     
  13 N13            4.3639     5.1379    -2.1958 N.pl3   
  14 C14            5.1438     6.1497    -2.7511 C.ar    
  15 N15            2.1579     5.8494    -2.9694 N.pl3   
  16 N16           -1.0331    -0.2218     1.1422 N.3     
  17 C17           -1.5262    -1.1109     0.0810 C.3     
  18 C18           -2.8013    -1.8108     0.5571 C.3     
  19 N19           -3.8105    -0.8009     0.9054 N.3     
  20 C20           -3.3174     0.0881     1.9665 C.3     
  21 C21           -2.0423     0.7881     1.4904 C.3     
  22 N22            4.5837     7.1188    -3.4629 N.ar    
  23 C23            5.3194     8.0815    -3.9923 C.ar    
  24 N24            6.6208     8.1344    -3.8477 N.ar    
  25 C25            7.2837     7.1924    -3.1395 C.ar    
  26 C26            6.5338     6.1636    -2.5618 C.ar    
  27 C27           -5.0767    -1.4350     1.2959 C.3     
  28 C28           -6.0956    -0.3597     1.7826 C.3     
  29 C29           -5.7536    -2.0876     0.0689 C.3     
  30 C30           -7.1177    -1.3452    -0.0702 C.3     
  31 C31           -7.2787    -1.1835     2.3768 C.3     
  32 C32           -7.9555    -1.8362     1.1498 C.3     
  33 C33           -6.7159     0.0928     0.4137 C.3     
  34 C34            8.6564     7.0716    -2.8719 C.2     
  35 C35            9.0105     6.0274    -2.1396 C.2     
  36 S36            7.6061     5.0699    -1.7000 S.3     
  37 C37            9.6634     8.0677    -3.3863 C.3     
  38 Cl38           4.5310     9.3230    -4.9147 Cl      
  39 H39           -0.6640     2.3529     0.6737 H       
  40 H40            3.3976    -0.3938     0.1278 H       
  41 H41            1.4584     3.4158     0.0242 H       
  42 H42            1.0481    -2.3838    -0.0964 H       
  43 H43            2.2174    -2.2221     1.2359 H       
  44 H44            0.4720    -2.1033     1.5643 H       
  45 H45            4.6119     1.7907    -0.0600 H       
  46 H46            1.2054     5.6665    -2.9831 H       
  47 H47            2.5092     6.6271    -3.4307 H       
  48 H48           -1.7446    -0.5251    -0.8119 H       
  49 H49           -0.7663    -1.8573    -0.1503 H       
  50 H50           -3.1848    -2.4488    -0.2391 H       
  51 H51           -2.5769    -2.4182     1.4340 H       
  52 H52           -4.0773     0.8346     2.1978 H       
  53 H53           -3.0989    -0.4977     2.8594 H       
  54 H54           -1.6587     1.4261     2.2866 H       
  55 H55           -2.2666     1.3954     0.6135 H       
  56 H56           -4.9048    -2.1763     2.0763 H       
  57 H57           -5.6916     0.4241     2.4234 H       
  58 H58           -5.1467    -1.9380    -0.8241 H       
  59 H59           -5.9159    -3.1509     0.2453 H       
  60 H60           -7.6037    -1.4197    -1.0429 H       
  61 H61           -6.9049    -1.9492     3.0566 H       
  62 H62           -7.9788    -0.5258     2.8919 H       
  63 H63           -8.9884    -1.4993     1.0617 H       
  64 H64           -7.9144    -2.9227     1.2264 H       
  65 H65           -7.5854     0.7356     0.5515 H       
  66 H66           -5.9737     0.5515    -0.2396 H       
  67 H67           10.0251     5.7973    -1.8496 H       
  68 H68            9.7890     8.8674    -2.6564 H       
  69 H69           10.6191     7.5686    -3.5464 H       
  70 H70            9.3105     8.4877    -4.3283 H       
@<TRIPOS>BOND
   1    1    2 ar
   2    1    6 ar
   3    1   39 1
   4    2    3 ar
   5    2   16 1
   6    3    4 ar
   7    3    7 1
   8    4    5 ar
   9    4   40 1
  10    5    6 ar
  11    5    8 1
  12    6   41 1
  13    7   42 1
  14    7   43 1
  15    7   44 1
  16    8    9 1
  17    8   45 1
  18    9   10 2
  19    9   11 1
  20   10   13 1
  21   11   12 2
  22   12   13 1
  23   12   15 1
  24   13   14 1
  25   14   22 ar
  26   14   26 ar
  27   15   46 1
  28   15   47 1
  29   16   17 1
  30   16   21 1
  31   17   18 1
  32   17   48 1
  33   17   49 1
  34   18   19 1
  35   18   50 1
  36   18   51 1
  37   19   20 1
  38   19   27 1
  39   20   21 1
  40   20   52 1
  41   20   53 1
  42   21   54 1
  43   21   55 1
  44   22   23 ar
  45   23   24 ar
  46   23   38 1
  47   24   25 ar
  48   25   26 ar
  49   25   34 1
  50   26   36 1
  51   27   28 1
  52   27   29 1
  53   27   56 1
  54   28   31 1
  55   28   33 1
  56   28   57 1
  57   29   30 1
  58   29   58 1
  59   29   59 1
  60   30   32 1
  61   30   33 1
  62   30   60 1
  63   31   32 1
  64   31   61 1
  65   31   62 1
  66   32   63 1
  67   32   64 1
  68   33   65 1
  69   33   66 1
  70   34   35 2
  71   34   37 1
  72   35   36 1
  73   35   67 1
  74   37   68 1
  75   37   69 1
  76   37   70 1

#	End of record

