#	Name: ASD10410051
#	Creating user name:	WinNT
#	Creation time:	15. 06. 2019 21:26

#	Modifying user name:	WinNT
#	Modification time:	15. 06. 2019 21:26

#	Program:	/corina/corina34_cracker 3.40 0067  02.08.2006

@<TRIPOS>MOLECULE
ASD10410051
  59   63    0    0    0
SMALL
NO_CHARGES


@<TRIPOS>ATOM
   1 Cl1           -1.5227    -1.7951    -0.3155 Cl      
   2 C2            -0.2178     1.7177     1.0888 C.ar    
   3 C3            -0.2711     0.4702     0.4692 C.ar    
   4 C4             1.0501     2.4859     1.1055 C.ar    
   5 N5             2.2196     1.8579     1.2034 N.ar    
   6 C6             1.0361     3.8807     1.0129 C.ar    
   7 C7             2.2439     4.5545     1.0321 C.ar    
   8 N8             3.3689     3.8645     1.1368 N.ar    
   9 C9             3.3529     2.5419     1.2180 C.ar    
  10 C10           -0.2645     4.6326     0.8943 C.3     
  11 N11            4.5527     1.8579     1.3265 N.pl3   
  12 C12            5.7634     2.5506     1.2311 C.ar    
  13 C13            6.8566     2.1488     1.9879 C.ar    
  14 C14            8.0511     2.8353     1.8914 C.ar    
  15 C15            8.1595     3.9215     1.0425 C.ar    
  16 C16            7.0730     4.3242     0.2877 C.ar    
  17 C17            5.8773     3.6386     0.3752 C.ar    
  18 C18            9.4643     4.6685     0.9402 C.3     
  19 N19           10.2893     4.0703    -0.1179 N.3     
  20 C20           11.4604     4.9087    -0.4100 C.3     
  21 C21           12.3333     4.2139    -1.4577 C.3     
  22 N22           11.5415     3.9785    -2.6731 N.3     
  23 C23           10.3704     3.1401    -2.3810 C.3     
  24 C24            9.4975     3.8349    -1.3333 C.3     
  25 C25           12.3665     3.3803    -3.7312 C.3     
  26 C26           -1.4540    -0.2415     0.4562 C.ar    
  27 C27           -2.5874     0.2833     1.0585 C.ar    
  28 C28           -2.5380     1.5231     1.6754 C.ar    
  29 C29           -1.3618     2.2435     1.6879 C.ar    
  30 F30           -3.7433    -0.4159     1.0434 F       
  31 C31           -0.5955     5.6486     1.9893 C.3     
  32 C32           -0.1894     6.1312     0.5953 C.3     
  33 H33            0.6114     0.0613    -0.0003 H       
  34 H34            2.2690     5.6319     0.9621 H       
  35 H35           -1.0930     4.0733     0.4597 H       
  36 H36            4.5528     0.8984     1.4686 H       
  37 H37            6.7726     1.3008     2.6514 H       
  38 H38            8.9014     2.5236     2.4799 H       
  39 H39            7.1609     5.1729    -0.3743 H       
  40 H40            5.0293     3.9533    -0.2149 H       
  41 H41            9.2670     5.7133     0.7001 H       
  42 H42            9.9932     4.6079     1.8913 H       
  43 H43           11.1300     5.8738    -0.7940 H       
  44 H44           12.0372     5.0582     0.5027 H       
  45 H45           13.1875     4.8472    -1.6971 H       
  46 H46           12.6859     3.2609    -1.0631 H       
  47 H47            9.7935     2.9905    -3.2937 H       
  48 H48           10.7007     2.1750    -1.9970 H       
  49 H49            8.6432     3.2016    -1.0939 H       
  50 H50            9.1448     4.7878    -1.7279 H       
  51 H51           12.7668     2.4274    -3.3848 H       
  52 H52           11.7559     3.2166    -4.6191 H       
  53 H53           13.1889     4.0529    -3.9747 H       
  54 H54           -3.4233     1.9283     2.1429 H       
  55 H55           -1.3246     3.2095     2.1694 H       
  56 H56           -1.6418     5.7580     2.2748 H       
  57 H57            0.1275     5.7732     2.7954 H       
  58 H58            0.8007     6.5733     0.4844 H       
  59 H59           -0.9685     6.5581    -0.0362 H       
@<TRIPOS>BOND
   1    1   26 1
   2    2    3 ar
   3    2    4 1
   4    2   29 ar
   5    3   26 ar
   6    3   33 1
   7    4    5 ar
   8    4    6 ar
   9    5    9 ar
  10    6    7 ar
  11    6   10 1
  12    7    8 ar
  13    7   34 1
  14    8    9 ar
  15    9   11 1
  16   10   31 1
  17   10   32 1
  18   10   35 1
  19   11   12 1
  20   11   36 1
  21   12   13 ar
  22   12   17 ar
  23   13   14 ar
  24   13   37 1
  25   14   15 ar
  26   14   38 1
  27   15   16 ar
  28   15   18 1
  29   16   17 ar
  30   16   39 1
  31   17   40 1
  32   18   19 1
  33   18   41 1
  34   18   42 1
  35   19   20 1
  36   19   24 1
  37   20   21 1
  38   20   43 1
  39   20   44 1
  40   21   22 1
  41   21   45 1
  42   21   46 1
  43   22   23 1
  44   22   25 1
  45   23   24 1
  46   23   47 1
  47   23   48 1
  48   24   49 1
  49   24   50 1
  50   25   51 1
  51   25   52 1
  52   25   53 1
  53   26   27 ar
  54   27   28 ar
  55   27   30 1
  56   28   29 ar
  57   28   54 1
  58   29   55 1
  59   31   32 1
  60   31   56 1
  61   31   57 1
  62   32   58 1
  63   32   59 1

#	End of record

