#	Name: ASD10420027
#	Creating user name:	WinNT
#	Creation time:	15. 06. 2019 21:27

#	Modifying user name:	WinNT
#	Modification time:	15. 06. 2019 21:27

#	Program:	/corina/corina34_cracker 3.40 0067  02.08.2006

@<TRIPOS>MOLECULE
ASD10420027
  23   23    0    0    0
SMALL
NO_CHARGES


@<TRIPOS>ATOM
   1 C1            -0.0184     1.5028     0.0103 C.3     
   2 C2             0.0021    -0.0041     0.0020 C.2     
   3 C3            -1.2926    -0.7753     0.0102 C.3     
   4 O4             1.0559    -0.5936    -0.0112 O.2     
   5 C5            -0.9972    -2.2530    -0.0005 C.ar    
   6 C6            -0.7481    -2.9163     1.1862 C.ar    
   7 C7            -0.4772    -4.2739     1.1761 C.ar    
   8 C8            -0.4561    -4.9657    -0.0234 C.ar    
   9 C9            -0.7055    -4.3005    -1.2085 C.ar    
  10 C10           -0.9811    -2.9456    -1.1966 C.ar    
  11 C11           -0.7709    -2.1619     2.4906 C.3     
  12 F12           -0.2331    -4.9232     2.3354 F       
  13 Cl13           1.6731     2.1268    -0.0025 Cl      
  14 H14           -0.5455     1.8639    -0.8728 H       
  15 H15           -0.5286     1.8543     0.9071 H       
  16 H16           -1.8592    -0.5245     0.9070 H       
  17 H17           -1.8762    -0.5150    -0.8728 H       
  18 H18           -0.2445    -6.0247    -0.0325 H       
  19 H19           -0.6891    -4.8398    -2.1440 H       
  20 H20           -1.1803    -2.4273    -2.1229 H       
  21 H21           -1.7794    -2.1806     2.9036 H       
  22 H22           -0.0818    -2.6304     3.1934 H       
  23 H23           -0.4678    -1.1292     2.3184 H       
@<TRIPOS>BOND
   1    1    2 1
   2    1   13 1
   3    1   14 1
   4    1   15 1
   5    2    3 1
   6    2    4 2
   7    3    5 1
   8    3   16 1
   9    3   17 1
  10    5    6 ar
  11    5   10 ar
  12    6    7 ar
  13    6   11 1
  14    7    8 ar
  15    7   12 1
  16    8    9 ar
  17    8   18 1
  18    9   10 ar
  19    9   19 1
  20   10   20 1
  21   11   21 1
  22   11   22 1
  23   11   23 1

#	End of record

