#	Name: ASD15280002
#	Creating user name:	WinNT
#	Creation time:	15. 06. 2019 21:31

#	Modifying user name:	WinNT
#	Modification time:	15. 06. 2019 21:31

#	Program:	/corina/corina34_cracker 3.40 0067  02.08.2006

@<TRIPOS>MOLECULE
ASD15280002
  45   47    0    0    0
SMALL
NO_CHARGES


@<TRIPOS>ATOM
   1 C1            -0.0159     1.3917     0.1151 C.ar    
   2 C2            -1.2676    -0.4443     1.0224 C.ar    
   3 C3            -1.1476     1.8296    -0.5597 C.ar    
   4 O4             2.2236     8.4389    -0.3720 O.2     
   5 C5             5.6531     8.8940     1.2155 C.3     
   6 C6             6.1595     8.1620     2.4623 C.3     
   7 C7             5.3282     8.5906     3.6736 C.3     
   8 C8             3.3309     8.9404     2.2148 C.3     
   9 C9             3.6559     3.5254    -0.0244 C.ar    
  10 C10            4.8368     4.2357    -0.0390 C.ar    
  11 C11            4.8158     5.6189    -0.1357 C.ar    
  12 C12            3.6082     6.2948    -0.2181 C.ar    
  13 C13            2.4210     5.5942    -0.2052 C.ar    
  14 C14            2.4363     4.2013    -0.1076 C.ar    
  15 C15            1.1676     3.4454    -0.0923 C.2     
  16 O16            0.1073     4.0358    -0.1649 O.2     
  17 N17            1.1852     2.1010     0.0020 N.am    
  18 C18           -0.0783     0.2528     0.9069 C.ar    
  19 C19           -2.3942    -0.0118     0.3402 C.ar    
  20 C20           -2.3344     1.1278    -0.4468 C.ar    
  21 F21           -3.4357     1.5536    -1.1033 F       
  22 F22           -3.5551    -0.6934     0.4538 F       
  23 F23           -1.3274    -1.5552     1.7889 F       
  24 S24            3.5906     8.0525    -0.3396 S.o2    
  25 O25            4.5191     8.3935    -1.3599 O.2     
  26 N26            4.2114     8.6479     1.0755 N.am    
  27 C27            3.8633     8.2078     3.4503 C.3     
  28 O28            5.8187     7.9340     4.8441 O.3     
  29 F29            5.9763     6.3104    -0.1492 F       
  30 H30           -1.1014     2.7178    -1.1723 H       
  31 H31            5.8325     9.9639     1.3219 H       
  32 H32            6.1750     8.5197     0.3348 H       
  33 H33            6.0627     7.0861     2.3169 H       
  34 H34            7.2064     8.4139     2.6320 H       
  35 H35            5.4057     9.6701     3.8036 H       
  36 H36            3.3209    10.0141     2.4026 H       
  37 H37            2.3205     8.5967     1.9933 H       
  38 H38            3.6736     2.4479     0.0468 H       
  39 H39            5.7804     3.7142     0.0253 H       
  40 H40            1.4808     6.1217    -0.2691 H       
  41 H41            2.0304     1.6251    -0.0085 H       
  42 H42            0.8014    -0.0890     1.4320 H       
  43 H43            3.7881     7.1315     3.2956 H       
  44 H44            3.2759     8.4923     4.3233 H       
  45 H45            5.3376     8.1591     5.6522 H       
@<TRIPOS>BOND
   1    1    3 ar
   2    1   17 1
   3    1   18 ar
   4    2   19 ar
   5    2   18 ar
   6    2   23 1
   7    3   20 ar
   8    3   30 1
   9    4   24 2
  10    5   26 1
  11    5    6 1
  12    5   31 1
  13    5   32 1
  14    6    7 1
  15    6   33 1
  16    6   34 1
  17    7   27 1
  18    7   28 1
  19    7   35 1
  20    8   26 1
  21    8   27 1
  22    8   36 1
  23    8   37 1
  24    9   10 ar
  25    9   14 ar
  26    9   38 1
  27   10   11 ar
  28   10   39 1
  29   11   12 ar
  30   11   29 1
  31   12   13 ar
  32   12   24 1
  33   13   14 ar
  34   13   40 1
  35   14   15 1
  36   15   16 2
  37   15   17 am
  38   17   41 1
  39   18   42 1
  40   19   20 ar
  41   19   22 1
  42   20   21 1
  43   24   25 2
  44   24   26 am
  45   27   43 1
  46   27   44 1
  47   28   45 1

#	End of record

