#	Name: ASD10340011
#	Creating user name:	WinNT
#	Creation time:	15. 06. 2019 21:26

#	Modifying user name:	WinNT
#	Modification time:	15. 06. 2019 21:26

#	Program:	/corina/corina34_cracker 3.40 0067  02.08.2006

@<TRIPOS>MOLECULE
ASD10340011
  43   45    0    0    0
SMALL
NO_CHARGES


@<TRIPOS>ATOM
   1 N1             0.2777     1.3766    -0.3493 N.ar    
   2 C2             0.4327     0.0735    -0.5255 C.ar    
   3 C3             1.6987    -0.4748    -0.5779 C.ar    
   4 N4             2.7668     0.2995    -0.4527 N.ar    
   5 C5             2.6223     1.6024    -0.2767 C.ar    
   6 C6             1.3391     2.1585    -0.2231 C.ar    
   7 O7             3.7150     2.3976    -0.1482 O.3     
   8 C8             4.9924     1.7602    -0.2126 C.3     
   9 C9             6.0779     2.7931    -0.0517 C.ar    
  10 C10            7.4061     2.4103    -0.0803 C.ar    
  11 C11            8.4016     3.3576     0.0674 C.ar    
  12 C12            8.0692     4.6881     0.2433 C.ar    
  13 C13            6.7415     5.0709     0.2710 C.ar    
  14 C14            5.7457     4.1238     0.1189 C.ar    
  15 C15            7.7683     0.9601    -0.2720 C.3     
  16 O16            9.1904     0.8195    -0.2659 O.3     
  17 N17            1.1790     3.5294    -0.0382 N.am    
  18 S18           -0.3331     4.2019    -0.0982 S.o2    
  19 C19           -0.9445     3.9656    -1.7337 C.ar    
  20 O20           -1.1553     3.4174     0.7548 O.2     
  21 O21           -0.1561     5.6023     0.0656 O.2     
  22 C22           -0.3089     4.5697    -2.8038 C.ar    
  23 C23           -0.7897     4.3831    -4.0886 C.ar    
  24 C24           -1.9052     3.5928    -4.3009 C.ar    
  25 C25           -2.5389     2.9900    -3.2308 C.ar    
  26 C26           -2.0556     3.1722    -1.9482 C.ar    
  27 Cl27           1.0903     5.5616    -2.5357 Cl      
  28 Cl28           0.0063     5.1409    -5.4324 Cl      
  29 Cl29           1.8920    -2.1846    -0.8081 Cl      
  30 H30           -0.4340    -0.5626    -0.6281 H       
  31 H31            5.0712     1.0228     0.5862 H       
  32 H32            5.1028     1.2643    -1.1770 H       
  33 H33            9.4391     3.0585     0.0457 H       
  34 H34            8.8471     5.4282     0.3594 H       
  35 H35            6.4818     6.1101     0.4087 H       
  36 H36            4.7082     4.4234     0.1368 H       
  37 H37            7.3413     0.3688     0.5380 H       
  38 H38            7.3727     0.6098    -1.2253 H       
  39 H39            9.4962    -0.0901    -0.3847 H       
  40 H40            1.9532     4.0903     0.1258 H       
  41 H41           -2.2810     3.4471    -5.3029 H       
  42 H42           -3.4096     2.3731    -3.3969 H       
  43 H43           -2.5490     2.6974    -1.1130 H       
@<TRIPOS>BOND
   1    1    2 ar
   2    1    6 ar
   3    2    3 ar
   4    2   30 1
   5    3    4 ar
   6    3   29 1
   7    4    5 ar
   8    5    6 ar
   9    5    7 1
  10    6   17 1
  11    7    8 1
  12    8    9 1
  13    8   31 1
  14    8   32 1
  15    9   10 ar
  16    9   14 ar
  17   10   11 ar
  18   10   15 1
  19   11   12 ar
  20   11   33 1
  21   12   13 ar
  22   12   34 1
  23   13   14 ar
  24   13   35 1
  25   14   36 1
  26   15   16 1
  27   15   37 1
  28   15   38 1
  29   16   39 1
  30   17   18 am
  31   17   40 1
  32   18   19 1
  33   18   20 2
  34   18   21 2
  35   19   22 ar
  36   19   26 ar
  37   22   23 ar
  38   22   27 1
  39   23   24 ar
  40   23   28 1
  41   24   25 ar
  42   24   41 1
  43   25   26 ar
  44   25   42 1
  45   26   43 1

#	End of record

