#	Name: ASD11710017
#	Creating user name:	WinNT
#	Creation time:	15. 06. 2019 21:29

#	Modifying user name:	WinNT
#	Modification time:	15. 06. 2019 21:29

#	Program:	/corina/corina34_cracker 3.40 0067  02.08.2006

@<TRIPOS>MOLECULE
ASD11710017
  40   41    0    0    0
SMALL
NO_CHARGES


@<TRIPOS>ATOM
   1 N1             0.2666     0.9817     0.1922 N.am    
   2 C2             0.4751    -0.2499    -0.3138 C.2     
   3 C3             1.8265    -0.8480    -0.2701 C.ar    
   4 O4            -0.4478    -0.8690    -0.8062 O.2     
   5 C5             1.9790    -2.2223    -0.0797 C.ar    
   6 C6             2.9552    -0.0416    -0.4247 C.ar    
   7 C7             4.2134    -0.6061    -0.3833 C.ar    
   8 C8             4.3577    -1.9684    -0.1895 C.ar    
   9 C9             3.2428    -2.7741    -0.0403 C.ar    
  10 S10            5.9682    -2.6815    -0.1391 S.o2    
  11 N11            6.4117    -2.7785     1.4535 N.am    
  12 C12            6.5172    -1.6164     2.2211 C.ar    
  13 C13            5.9601    -1.5691     3.4927 C.ar    
  14 C14            7.1845    -0.5073     1.7169 C.ar    
  15 C15            7.2870     0.6401     2.4785 C.ar    
  16 C16            6.7267     0.6856     3.7420 C.ar    
  17 C17            6.0662    -0.4185     4.2490 C.ar    
  18 O18            5.8295    -4.0187    -0.5992 O.2     
  19 O19            6.8435    -1.7387    -0.7426 O.2     
  20 C20            1.3476     1.6778     0.8943 C.3     
  21 C21           -1.9328     1.2662     1.2234 C.3     
  22 C22           -1.0393     1.6268     0.0349 C.3     
  23 H23            1.1095    -2.8523     0.0369 H       
  24 H24            2.8439     1.0218    -0.5768 H       
  25 H25            5.0875     0.0167    -0.5029 H       
  26 H26            3.3623    -3.8368     0.1107 H       
  27 H27            6.5981    -3.6424     1.8532 H       
  28 H28            5.4442    -2.4311     3.8893 H       
  29 H29            7.6230    -0.5424     0.7305 H       
  30 H30            7.8057     1.5028     2.0871 H       
  31 H31            6.8089     1.5840     4.3358 H       
  32 H32            5.6297    -0.3796     5.2361 H       
  33 H33            1.9699     2.2053     0.1714 H       
  34 H34            0.9222     2.3934     1.5980 H       
  35 H35            1.9551     0.9528     1.4360 H       
  36 H36           -2.0642     0.1849     1.2643 H       
  37 H37           -1.4662     1.6106     2.1463 H       
  38 H38           -2.9044     1.7461     1.1063 H       
  39 H39           -0.9079     2.7080    -0.0060 H       
  40 H40           -1.5058     1.2823    -0.8881 H       
@<TRIPOS>BOND
   1    1    2 am
   2    1   20 1
   3    1   22 1
   4    2    3 1
   5    2    4 2
   6    3    5 ar
   7    3    6 ar
   8    5    9 ar
   9    5   23 1
  10    6    7 ar
  11    6   24 1
  12    7    8 ar
  13    7   25 1
  14    8    9 ar
  15    8   10 1
  16    9   26 1
  17   10   11 am
  18   10   18 2
  19   10   19 2
  20   11   12 1
  21   11   27 1
  22   12   13 ar
  23   12   14 ar
  24   13   17 ar
  25   13   28 1
  26   14   15 ar
  27   14   29 1
  28   15   16 ar
  29   15   30 1
  30   16   17 ar
  31   16   31 1
  32   17   32 1
  33   20   33 1
  34   20   34 1
  35   20   35 1
  36   21   22 1
  37   21   36 1
  38   21   37 1
  39   21   38 1
  40   22   39 1
  41   22   40 1

#	End of record

