#	Name: ASD14740010
#	Creating user name:	WinNT
#	Creation time:	15. 06. 2019 21:31

#	Modifying user name:	WinNT
#	Modification time:	15. 06. 2019 21:31

#	Program:	/corina/corina34_cracker 3.40 0067  02.08.2006

@<TRIPOS>MOLECULE
ASD14740010
  49   52    0    0    0
SMALL
NO_CHARGES


@<TRIPOS>ATOM
   1 C1            -0.0180     1.4140    -0.0271 C.2     
   2 C2            -0.0003    -0.0020    -0.0895 C.2     
   3 N3             1.1522    -0.6351    -0.1784 N.2     
   4 C4             2.3090     0.0324    -0.2112 C.2     
   5 C5             2.3418     1.3799    -0.1544 C.2     
   6 C6            -0.4907     3.5260     0.0873 C.2     
   7 N7            -0.9991     2.2995     0.0583 N.2     
   8 N8             1.1745     2.0878    -0.0615 N.pl3   
   9 C9             0.8846     3.4247     0.0120 C.2     
  10 C10            1.8517     4.5378     0.0123 C.ar    
  11 C11            1.4858     5.7823     0.5358 C.ar    
  12 C12            2.3813     6.8128     0.5360 C.ar    
  13 C13            3.6647     6.6242     0.0129 C.ar    
  14 C14            4.0307     5.3798    -0.5106 C.ar    
  15 C15            3.1372     4.3476    -0.5056 C.ar    
  16 N16           -1.1877    -0.7164    -0.0567 N.pl3   
  17 C17           -1.1641    -2.1797    -0.1215 C.3     
  18 C18           -2.5961    -2.7157    -0.0678 C.3     
  19 C19           -2.5802    -4.2335    -0.2606 C.3     
  20 C20           -3.2156    -2.3806     1.2904 C.3     
  21 C21            4.6321     7.7378     0.0127 C.2     
  22 N22            5.8687     7.5560    -0.4914 N.am    
  23 O23            4.3137     8.8197     0.4674 O.2     
  24 C24            6.8295     8.6620    -0.4916 C.3     
  25 C25            8.3173     8.3054    -0.5055 C.3     
  26 C26            7.6564     8.8793    -1.7604 C.3     
  27 H27            3.2358    -0.5174    -0.2841 H       
  28 H28            3.2884     1.8993    -0.1820 H       
  29 H29           -1.0554     4.4441     0.1542 H       
  30 H30            0.4947     5.9281     0.9394 H       
  31 H31            2.0987     7.7738     0.9398 H       
  32 H32            5.0217     5.2343    -0.9145 H       
  33 H33            3.4213     3.3855    -0.9057 H       
  34 H34           -2.0342    -0.2474     0.0091 H       
  35 H35           -0.6929    -2.4947    -1.0526 H       
  36 H36           -0.5975    -2.5717     0.7232 H       
  37 H37           -3.1864    -2.2551    -0.8600 H       
  38 H38           -1.9899    -4.6941     0.5316 H       
  39 H39           -3.6004    -4.6153    -0.2224 H       
  40 H40           -2.1389    -4.4722    -1.2282 H       
  41 H41           -2.6253    -2.8413     2.0825 H       
  42 H42           -3.2270    -1.2994     1.4277 H       
  43 H43           -4.2358    -2.7625     1.3286 H       
  44 H44            6.1226     6.6930    -0.8541 H       
  45 H45            6.5290     9.5458     0.0712 H       
  46 H46            8.9956     8.9548     0.0479 H       
  47 H47            8.5812     7.2479    -0.5145 H       
  48 H48            7.4856     8.1993    -2.5950 H       
  49 H49            7.9000     9.9062    -2.0327 H       
@<TRIPOS>BOND
   1    1    2 1
   2    1    8 1
   3    1    7 2
   4    2    3 2
   5    2   16 1
   6    3    4 1
   7    4    5 2
   8    4   27 1
   9    5    8 1
  10    5   28 1
  11    6    7 1
  12    6    9 2
  13    6   29 1
  14    8    9 1
  15    9   10 1
  16   10   11 ar
  17   10   15 ar
  18   11   12 ar
  19   11   30 1
  20   12   13 ar
  21   12   31 1
  22   13   14 ar
  23   13   21 1
  24   14   15 ar
  25   14   32 1
  26   15   33 1
  27   16   17 1
  28   16   34 1
  29   17   18 1
  30   17   35 1
  31   17   36 1
  32   18   19 1
  33   18   20 1
  34   18   37 1
  35   19   38 1
  36   19   39 1
  37   19   40 1
  38   20   41 1
  39   20   42 1
  40   20   43 1
  41   21   22 am
  42   21   23 2
  43   22   24 1
  44   22   44 1
  45   24   25 1
  46   24   26 1
  47   24   45 1
  48   25   26 1
  49   25   46 1
  50   25   47 1
  51   26   48 1
  52   26   49 1

#	End of record

