#	Name: ASD13390014
#	Creating user name:	WinNT
#	Creation time:	15. 06. 2019 21:30

#	Modifying user name:	WinNT
#	Modification time:	15. 06. 2019 21:30

#	Program:	/corina/corina34_cracker 3.40 0067  02.08.2006

@<TRIPOS>MOLECULE
ASD13390014
  25   24    0    0    0
SMALL
NO_CHARGES


@<TRIPOS>ATOM
   1 C1            -0.0166     1.3736     0.0096 C.ar    
   2 C2             0.0021    -0.0041     0.0020 C.ar    
   3 C3             1.2241    -0.6843    -0.0133 C.ar    
   4 C4             2.4213     0.0386    -0.0208 C.ar    
   5 C5             2.3916     1.4161    -0.0131 C.ar    
   6 C6             1.1753     2.0868     0.0020 C.ar    
   7 C7             1.2499    -2.1557    -0.0209 C.2     
   8 N8             2.3913    -2.7881    -0.0352 N.2     
   9 N9             2.4160    -4.1889    -0.0425 N.2     
  10 C10            3.5681    -4.8273    -0.0569 C.2     
  11 N11            4.7441    -4.1203    -0.0648 N.pl3   
  12 N12            3.5922    -6.1992    -0.0641 N.pl3   
  13 O13            1.1514     3.4453     0.0095 O.3     
  14 H14           -0.9597     1.8999     0.0169 H       
  15 H15           -0.9252    -0.5577     0.0082 H       
  16 H16            3.3675    -0.4820    -0.0323 H       
  17 H17            3.3155     1.9753    -0.0186 H       
  18 H18            0.3243    -2.7121    -0.0148 H       
  19 H19            4.7270    -3.1505    -0.0597 H       
  20 H20            5.5925    -4.5904    -0.0754 H       
  21 H21            2.7608    -6.6989    -0.0585 H       
  22 H22            4.4406    -6.6693    -0.0747 H       
  23 H23            1.1529     3.8338     0.8951 H       
  24 Cl24          10.5925     8.8338     5.8951 Cl      
  25 H25           10.5925    10.2038     5.8951 H       
@<TRIPOS>BOND
   1    1    2 ar
   2    1    6 ar
   3    1   14 1
   4    2    3 ar
   5    2   15 1
   6    3    4 ar
   7    3    7 1
   8    4    5 ar
   9    4   16 1
  10    5    6 ar
  11    5   17 1
  12    6   13 1
  13    7    8 2
  14    7   18 1
  15    8    9 1
  16    9   10 2
  17   10   11 1
  18   10   12 1
  19   11   19 1
  20   11   20 1
  21   12   21 1
  22   12   22 1
  23   13   23 1
  24   24   25 1

#	End of record

