#	Name: ASD13010034
#	Creating user name:	WinNT
#	Creation time:	15. 06. 2019 21:30

#	Modifying user name:	WinNT
#	Modification time:	15. 06. 2019 21:30

#	Program:	/corina/corina34_cracker 3.40 0067  02.08.2006

@<TRIPOS>MOLECULE
ASD13010034
  39   42    0    0    0
SMALL
NO_CHARGES


@<TRIPOS>ATOM
   1 C1            -0.0166     1.3726     0.0096 C.ar    
   2 C2             0.0021    -0.0041     0.0020 C.ar    
   3 C3             1.2058    -0.6962    -0.0127 C.ar    
   4 C4             2.4031    -0.0141    -0.0200 C.ar    
   5 C5             1.1800     2.0833     0.0020 C.ar    
   6 N6             1.4884     3.4225     0.0062 N.pl3   
   7 C7             2.4021     1.3852    -0.0130 C.ar    
   8 C8             3.4558     2.4011    -0.0173 C.2     
   9 N9             2.8789     3.5726    -0.0062 N.2     
  10 C10            0.5631     4.4649     0.0202 C.ar    
  11 O11            4.7939     2.1672    -0.0297 O.3     
  12 C12            5.6292     3.2395    -0.0319 C.ar    
  13 C13            6.0418     3.7972    -1.2343 C.ar    
  14 C14            6.0667     3.7828     1.1684 C.ar    
  15 C15            6.9158     4.8738     1.1629 C.ar    
  16 C16            7.3293     5.4238    -0.0363 C.ar    
  17 C17            6.8910     4.8882    -1.2333 C.ar    
  18 C18           -1.2767     6.5373     0.0484 C.ar    
  19 C19           -1.5612     5.3570    -0.6453 C.ar    
  20 C20           -0.6456     4.3296    -0.6567 C.ar    
  21 C21            0.8476     5.6366     0.7158 C.ar    
  22 C22           -0.0639     6.6676     0.7320 C.ar    
  23 C23           -2.2551     7.6403     0.0624 C.2     
  24 O24           -3.3100     7.5242    -0.5294 O.2     
  25 O25           -1.9793     8.7770     0.7314 O.3     
  26 Cl26           5.4925     3.1251    -2.7377 Cl      
  27 Cl27           5.5477     3.0932     2.6746 Cl      
  28 F28            3.5714    -0.6925    -0.0335 F       
  29 H29           -0.9588     1.9004     0.0169 H       
  30 H30           -0.9290    -0.5513     0.0080 H       
  31 H31            1.2036    -1.7762    -0.0182 H       
  32 H32            7.2563     5.2971     2.0964 H       
  33 H33            7.9923     6.2763    -0.0381 H       
  34 H34            7.2124     5.3225    -2.1685 H       
  35 H35           -2.4972     5.2529    -1.1741 H       
  36 H36           -0.8650     3.4175    -1.1917 H       
  37 H37            1.7845     5.7366     1.2436 H       
  38 H38            0.1591     7.5780     1.2686 H       
  39 H39           -2.6514     9.4720     0.7118 H       
@<TRIPOS>BOND
   1    1    2 ar
   2    1    5 ar
   3    1   29 1
   4    2    3 ar
   5    2   30 1
   6    3    4 ar
   7    3   31 1
   8    4    7 ar
   9    4   28 1
  10    5    7 ar
  11    5    6 1
  12    6    9 1
  13    6   10 1
  14    7    8 1
  15    8    9 2
  16    8   11 1
  17   10   21 ar
  18   10   20 ar
  19   11   12 1
  20   12   14 ar
  21   12   13 ar
  22   13   17 ar
  23   13   26 1
  24   14   15 ar
  25   14   27 1
  26   15   16 ar
  27   15   32 1
  28   16   17 ar
  29   16   33 1
  30   17   34 1
  31   18   19 ar
  32   18   22 ar
  33   18   23 1
  34   19   20 ar
  35   19   35 1
  36   20   36 1
  37   21   22 ar
  38   21   37 1
  39   22   38 1
  40   23   24 2
  41   23   25 1
  42   25   39 1

#	End of record

