#	Name: ASD11000099
#	Creating user name:	WinNT
#	Creation time:	15. 06. 2019 21:28

#	Modifying user name:	WinNT
#	Modification time:	15. 06. 2019 21:28

#	Program:	/corina/corina34_cracker 3.40 0067  02.08.2006

@<TRIPOS>MOLECULE
ASD11000099
  62   65    0    0    0
SMALL
NO_CHARGES


@<TRIPOS>ATOM
   1 C1             0.4893     1.3741     0.1364 C.3     
   2 C2             0.0267    -0.0774    -0.0046 C.3     
   3 N3             0.2614    -0.5331    -1.3789 N.am    
   4 C4             0.7982    -0.9458     0.9576 C.ar    
   5 C5             1.3945    -2.1252     0.5696 C.ar    
   6 C6             0.8951    -0.5204     2.2757 C.ar    
   7 C7             2.0789    -2.8901     1.5067 C.ar    
   8 C8             2.1752    -2.4728     2.8212 C.ar    
   9 C9             1.5808    -1.2759     3.2093 C.ar    
  10 C10            0.2129    -1.9835    -1.6273 C.3     
  11 C11            1.3561    -2.6319    -0.8484 C.3     
  12 O12            2.8476    -3.2283     3.7304 O.3     
  13 C13            3.4315    -4.4442     3.2587 C.3     
  14 C14            0.5110     0.3406    -2.3742 C.2     
  15 O15            0.2601     1.5208    -2.2242 O.2     
  16 N16            1.0387    -0.0938    -3.5358 N.am    
  17 C17            1.6680    -1.4205    -3.6326 C.3     
  18 C18            0.9971     0.7420    -4.7462 C.3     
  19 C19            2.4099     0.8069    -5.3376 C.3     
  20 O20            2.9136    -0.5211    -5.5001 O.3     
  21 C21            3.0494    -1.2545    -4.2761 C.3     
  22 O22            1.8848     1.4601    -0.1589 O.3     
  23 C23            2.4579     2.6907    -0.0795 C.ar    
  24 C24            3.8087     2.8456    -0.3533 C.ar    
  25 C25            1.6904     3.7920     0.2697 C.ar    
  26 C26            2.2726     5.0420     0.3504 C.ar    
  27 C27            3.6247     5.1959     0.0825 C.ar    
  28 C28            4.3909     4.0956    -0.2727 C.ar    
  29 O29            4.1976     6.4266     0.1611 O.3     
  30 C30            5.5946     6.5116    -0.1278 C.3     
  31 O31            1.6731    -0.8522     4.4983 O.3     
  32 C32            1.0374     0.3862     4.8212 C.3     
  33 H33           -0.0685     2.0023    -0.5582 H       
  34 H34            0.3121     1.7145     1.1566 H       
  35 H35           -1.0375    -0.1426     0.2223 H       
  36 H36            0.4315     0.4082     2.5743 H       
  37 H37            2.5396    -3.8193     1.2053 H       
  38 H38           -0.7409    -2.3847    -1.2847 H       
  39 H39            0.3349    -2.1795    -2.6926 H       
  40 H40            2.3014    -2.3983    -1.3382 H       
  41 H41            1.2158    -3.7128    -0.8391 H       
  42 H42            3.9362    -4.9485     4.0828 H       
  43 H43            2.6505    -5.0917     2.8602 H       
  44 H44            4.1533    -4.2199     2.4733 H       
  45 H45            1.7762    -1.8491    -2.6362 H       
  46 H46            1.0519    -2.0749    -4.2493 H       
  47 H47            0.3147     0.3016    -5.4731 H       
  48 H48            0.6609     1.7460    -4.4876 H       
  49 H49            2.3763     1.3046    -6.3068 H       
  50 H50            3.0614     1.3635    -4.6640 H       
  51 H51            3.7013    -0.7081    -3.5946 H       
  52 H52            3.4788    -2.2345    -4.4845 H       
  53 H53            4.4055     1.9888    -0.6293 H       
  54 H54            0.6375     3.6721     0.4783 H       
  55 H55            1.6748     5.8996     0.6216 H       
  56 H56            5.4439     4.2154    -0.4809 H       
  57 H57            5.9238     7.5459    -0.0288 H       
  58 H58            6.1489     5.8853     0.5712 H       
  59 H59            5.7765     6.1683    -1.1462 H       
  60 H60            1.4702     1.1848     4.2187 H       
  61 H61           -0.0300     0.3118     4.6131 H       
  62 H62            1.1870     0.6066     5.8781 H       
@<TRIPOS>BOND
   1    1    2 1
   2    1   22 1
   3    1   33 1
   4    1   34 1
   5    2    3 1
   6    2    4 1
   7    2   35 1
   8    3   10 1
   9    3   14 am
  10    4    5 ar
  11    4    6 ar
  12    5    7 ar
  13    5   11 1
  14    6    9 ar
  15    6   36 1
  16    7    8 ar
  17    7   37 1
  18    8    9 ar
  19    8   12 1
  20    9   31 1
  21   10   11 1
  22   10   38 1
  23   10   39 1
  24   11   40 1
  25   11   41 1
  26   12   13 1
  27   13   42 1
  28   13   43 1
  29   13   44 1
  30   14   15 2
  31   14   16 am
  32   16   18 1
  33   16   17 1
  34   17   21 1
  35   17   45 1
  36   17   46 1
  37   18   19 1
  38   18   47 1
  39   18   48 1
  40   19   20 1
  41   19   49 1
  42   19   50 1
  43   20   21 1
  44   21   51 1
  45   21   52 1
  46   22   23 1
  47   23   24 ar
  48   23   25 ar
  49   24   28 ar
  50   24   53 1
  51   25   26 ar
  52   25   54 1
  53   26   27 ar
  54   26   55 1
  55   27   28 ar
  56   27   29 1
  57   28   56 1
  58   29   30 1
  59   30   57 1
  60   30   58 1
  61   30   59 1
  62   31   32 1
  63   32   60 1
  64   32   61 1
  65   32   62 1

#	End of record

