#	Name: ASD10410178
#	Creating user name:	WinNT
#	Creation time:	15. 06. 2019 21:27

#	Modifying user name:	WinNT
#	Modification time:	15. 06. 2019 21:27

#	Program:	/corina/corina34_cracker 3.40 0067  02.08.2006

@<TRIPOS>MOLECULE
ASD10410178
  67   73    0    0    0
SMALL
NO_CHARGES


@<TRIPOS>ATOM
   1 C1            -0.0605     1.5149    -0.1735 C.ar    
   2 C2            -0.0515     0.1367    -0.0088 C.ar    
   3 C3             1.1555    -0.5387     0.1288 C.ar    
   4 C4             2.3457     0.1620     0.1016 C.ar    
   5 C5             2.3357     1.5412    -0.0632 C.ar    
   6 C6             1.1297     2.2153    -0.2006 C.ar    
   7 Cl7            1.1673    -2.2624     0.3353 Cl      
   8 N8             3.5421     2.2517    -0.0908 N.pl3   
   9 C9             3.6486     3.4154    -0.8518 C.2     
  10 N10            4.6845     4.2192    -0.8703 N.2     
  11 N11            2.7124     3.8865    -1.6838 N.2     
  12 C12            3.1345     5.0010    -2.2415 C.2     
  13 N13            4.3802     5.2605    -1.7620 N.pl3   
  14 C14            5.1926     6.3436    -2.0900 C.ar    
  15 N15            2.4377     5.7687    -3.1545 N.pl3   
  16 N16           -1.2583    -0.5732     0.0191 N.3     
  17 C17           -1.3814    -1.4491    -1.1545 C.3     
  18 C18           -2.6725    -2.2638    -1.0465 C.3     
  19 N19           -3.8192    -1.3496    -0.9527 N.3     
  20 C20           -3.6961    -0.4737     0.2209 C.3     
  21 C21           -2.4050     0.3410     0.1129 C.3     
  22 N22            4.7773     7.2611    -2.9538 N.ar    
  23 C23            5.5433     8.2902    -3.2678 C.ar    
  24 N24            6.7361     8.4634    -2.7559 N.ar    
  25 C25            7.2489     7.5838    -1.8669 C.ar    
  26 C26            6.4608     6.4855    -1.5082 C.ar    
  27 C27           -5.0852    -2.0942    -0.9234 C.3     
  28 C28           -5.2726    -2.9000    -2.2451 C.3     
  29 C29           -6.2836    -1.1185    -0.8872 C.3     
  30 C30           -7.0822    -1.4266    -2.1905 C.3     
  31 C31           -6.5118    -3.8075    -1.9767 C.3     
  32 C32           -7.7102    -2.8318    -1.9406 C.3     
  33 C33           -5.9115    -1.8016    -3.1663 C.3     
  34 C34            8.4905     7.5900    -1.2119 C.2     
  35 C35            8.7110     6.5793    -0.3862 C.2     
  36 S36            7.3329     5.4921    -0.3501 S.3     
  37 C37            9.5084     8.6786    -1.4351 C.3     
  38 H38           -0.9982     2.0391    -0.2849 H       
  39 H39            3.2837    -0.3624     0.2089 H       
  40 H40            1.1222     3.2877    -0.3284 H       
  41 H41            4.3036     1.9344     0.4195 H       
  42 H42            1.5506     5.4982    -3.4389 H       
  43 H43            2.8355     6.5783    -3.5113 H       
  44 H44           -1.4089    -0.8424    -2.0597 H       
  45 H45           -0.5272    -2.1249    -1.1951 H       
  46 H46           -2.7804    -2.8930    -1.9300 H       
  47 H47           -2.6334    -2.8908    -0.1557 H       
  48 H48           -4.5503     0.2021     0.2615 H       
  49 H49           -3.6687    -1.0804     1.1261 H       
  50 H50           -2.2971     0.9702     0.9964 H       
  51 H51           -2.4441     0.9680    -0.7778 H       
  52 H52            5.1716     9.0170    -3.9749 H       
  53 H53           -5.1117    -2.7634    -0.0634 H       
  54 H54           -4.3848    -3.4058    -2.6247 H       
  55 H55           -6.9013    -1.3078    -0.0094 H       
  56 H56           -5.9334    -0.0863    -0.8912 H       
  57 H57           -7.7704    -0.6494    -2.5226 H       
  58 H58           -6.6349    -4.5308    -2.7828 H       
  59 H59           -6.4086    -4.3181    -1.0193 H       
  60 H60           -8.1962    -2.8627    -0.9654 H       
  61 H61           -8.4225    -3.0754    -2.7289 H       
  62 H62           -5.2345    -0.9638    -3.3335 H       
  63 H63           -6.2787    -2.2178    -4.1044 H       
  64 H64            9.6148     6.4432     0.1891 H       
  65 H65            9.3441     9.4823    -0.7174 H       
  66 H66           10.5108     8.2716    -1.3017 H       
  67 H67            9.4066     9.0691    -2.4476 H       
@<TRIPOS>BOND
   1    1    2 ar
   2    1    6 ar
   3    1   38 1
   4    2    3 ar
   5    2   16 1
   6    3    4 ar
   7    3    7 1
   8    4    5 ar
   9    4   39 1
  10    5    6 ar
  11    5    8 1
  12    6   40 1
  13    8    9 1
  14    8   41 1
  15    9   10 2
  16    9   11 1
  17   10   13 1
  18   11   12 2
  19   12   13 1
  20   12   15 1
  21   13   14 1
  22   14   22 ar
  23   14   26 ar
  24   15   42 1
  25   15   43 1
  26   16   17 1
  27   16   21 1
  28   17   18 1
  29   17   44 1
  30   17   45 1
  31   18   19 1
  32   18   46 1
  33   18   47 1
  34   19   20 1
  35   19   27 1
  36   20   21 1
  37   20   48 1
  38   20   49 1
  39   21   50 1
  40   21   51 1
  41   22   23 ar
  42   23   24 ar
  43   23   52 1
  44   24   25 ar
  45   25   26 ar
  46   25   34 1
  47   26   36 1
  48   27   28 1
  49   27   29 1
  50   27   53 1
  51   28   31 1
  52   28   33 1
  53   28   54 1
  54   29   30 1
  55   29   55 1
  56   29   56 1
  57   30   32 1
  58   30   33 1
  59   30   57 1
  60   31   32 1
  61   31   58 1
  62   31   59 1
  63   32   60 1
  64   32   61 1
  65   33   62 1
  66   33   63 1
  67   34   35 2
  68   34   37 1
  69   35   36 1
  70   35   64 1
  71   37   65 1
  72   37   66 1
  73   37   67 1

#	End of record

