#	Name: ASD13390023
#	Creating user name:	WinNT
#	Creation time:	15. 06. 2019 21:30

#	Modifying user name:	WinNT
#	Modification time:	15. 06. 2019 21:30

#	Program:	/corina/corina34_cracker 3.40 0067  02.08.2006

@<TRIPOS>MOLECULE
ASD13390023
  38   38    0    0    0
SMALL
NO_CHARGES


@<TRIPOS>ATOM
   1 C1            -0.0166     1.3752     0.0096 C.ar    
   2 C2             0.0021    -0.0041     0.0020 C.ar    
   3 C3             1.2232    -0.6853    -0.0133 C.ar    
   4 C4             2.4196     0.0373    -0.0208 C.ar    
   5 C5             2.3869     1.4206    -0.0131 C.ar    
   6 C6             1.1685     2.0876     0.0021 C.ar    
   7 C7             1.2484    -2.1570    -0.0209 C.2     
   8 N8             0.1297    -2.8288    -0.0135 N.2     
   9 N9             0.1519    -4.1186    -0.0202 N.2     
  10 C10           -0.9781    -4.7972    -0.0126 C.2     
  11 N11           -2.1772    -4.1320     0.0024 N.pl3   
  12 N12           -0.9545    -6.1683    -0.0197 N.pl3   
  13 O13            3.5477     2.1273    -0.0199 O.3     
  14 C14            3.4399     3.5522    -0.0112 C.3     
  15 C15            4.8187     4.1604    -0.0206 C.ar    
  16 C16            5.4643     4.4277     1.1722 C.ar    
  17 C17            5.4401     4.4458    -1.2219 C.ar    
  18 C18            6.7049     5.0037    -1.2305 C.ar    
  19 C19            7.3480     5.2767    -0.0377 C.ar    
  20 C20            6.7291     4.9855     1.1636 C.ar    
  21 H21           -0.9602     1.9005     0.0169 H       
  22 H22           -0.9255    -0.5573     0.0082 H       
  23 H23            3.3664    -0.4823    -0.0323 H       
  24 H24            1.1468     3.1674     0.0077 H       
  25 H25            2.1928    -2.6808    -0.0327 H       
  26 H26           -2.1939    -3.1622     0.0074 H       
  27 H27           -3.0088    -4.6314     0.0080 H       
  28 H28           -0.1063    -6.6387    -0.0303 H       
  29 H29           -1.7861    -6.6677    -0.0142 H       
  30 H30            2.8920     3.8805    -0.8945 H       
  31 H31            2.9083     3.8709     0.8854 H       
  32 H32            4.9805     4.2010     2.1107 H       
  33 H33            4.9377     4.2325    -2.1538 H       
  34 H34            7.1907     5.2260    -2.1691 H       
  35 H35            8.3362     5.7122    -0.0444 H       
  36 H36            7.2333     5.1947     2.0955 H       
  37 Cl37          13.3362    10.7122     7.1107 Cl      
  38 H38           13.3362    12.0822     7.1107 H       
@<TRIPOS>BOND
   1    1    2 ar
   2    1    6 ar
   3    1   21 1
   4    2    3 ar
   5    2   22 1
   6    3    4 ar
   7    3    7 1
   8    4    5 ar
   9    4   23 1
  10    5    6 ar
  11    5   13 1
  12    6   24 1
  13    7    8 2
  14    7   25 1
  15    8    9 1
  16    9   10 2
  17   10   11 1
  18   10   12 1
  19   11   26 1
  20   11   27 1
  21   12   28 1
  22   12   29 1
  23   13   14 1
  24   14   15 1
  25   14   30 1
  26   14   31 1
  27   15   17 ar
  28   15   16 ar
  29   16   20 ar
  30   16   32 1
  31   17   18 ar
  32   17   33 1
  33   18   19 ar
  34   18   34 1
  35   19   20 ar
  36   19   35 1
  37   20   36 1
  38   37   38 1

#	End of record

