#	Name: ASD15300001
#	Creating user name:	WinNT
#	Creation time:	15. 06. 2019 21:31

#	Modifying user name:	WinNT
#	Modification time:	15. 06. 2019 21:31

#	Program:	/corina/corina34_cracker 3.40 0067  02.08.2006

@<TRIPOS>MOLECULE
ASD15300001
  38   40    0    0    0
SMALL
NO_CHARGES


@<TRIPOS>ATOM
   1 C1             1.0921     1.0899     0.2498 C.ar    
   2 C2             0.8146    -0.2648     0.1669 C.ar    
   3 C3            -0.5009    -0.7067     0.2035 C.ar    
   4 C4            -1.5368     0.2097     0.3230 C.ar    
   5 C5            -1.2567     1.5638     0.4057 C.ar    
   6 C6             0.0573     2.0034     0.3744 C.ar    
   7 F7             0.3293     3.3243     0.4551 F       
   8 F8            -2.2646     2.4560     0.5216 F       
   9 F9            -2.8175    -0.2188     0.3583 F       
  10 F10            1.8237    -1.1554     0.0502 F       
  11 F11            2.3722     1.5203     0.2147 F       
  12 O12           -0.7747    -2.0367     0.1218 O.3     
  13 C13           -0.8354    -2.7185     1.2764 C.2     
  14 C14           -1.1342    -4.1955     1.2646 C.3     
  15 O15           -0.6504    -2.1479     2.3253 O.2     
  16 C16           -0.0745    -4.9161     0.4716 C.ar    
  17 C17           -1.1453    -4.7171     2.6784 C.ar    
  18 C18           -0.0640    -4.4874     3.5083 C.ar    
  19 C19           -0.0742    -4.9659     4.8052 C.ar    
  20 C20           -1.1659    -5.6737     5.2722 C.ar    
  21 C21           -2.2476    -5.9027     4.4425 C.ar    
  22 C22           -2.2392    -5.4204     3.1470 C.ar    
  23 C23           -0.4394    -5.7939    -0.5320 C.ar    
  24 C24            0.5326    -6.4549    -1.2593 C.ar    
  25 C25            1.8696    -6.2377    -0.9834 C.ar    
  26 C26            2.2346    -5.3592     0.0195 C.ar    
  27 C27            1.2626    -4.6949     0.7440 C.ar    
  28 H28           -2.1088    -4.3654     0.8069 H       
  29 H29            0.7889    -3.9344     3.1435 H       
  30 H30            0.7709    -4.7870     5.4534 H       
  31 H31           -1.1735    -6.0482     6.2852 H       
  32 H32           -3.1003    -6.4560     4.8072 H       
  33 H33           -3.0843    -5.5993     2.4988 H       
  34 H34           -1.4840    -5.9636    -0.7475 H       
  35 H35            0.2475    -7.1413    -2.0429 H       
  36 H36            2.6291    -6.7547    -1.5512 H       
  37 H37            3.2792    -5.1898     0.2353 H       
  38 H38            1.5477    -4.0085     1.5275 H       
@<TRIPOS>BOND
   1    1    2 ar
   2    1   11 1
   3    1    6 ar
   4    2    3 ar
   5    2   10 1
   6    3    4 ar
   7    3   12 1
   8    4    5 ar
   9    4    9 1
  10    5    6 ar
  11    5    8 1
  12    6    7 1
  13   12   13 1
  14   13   14 1
  15   13   15 2
  16   14   16 1
  17   14   17 1
  18   14   28 1
  19   16   23 ar
  20   16   27 ar
  21   17   18 ar
  22   17   22 ar
  23   18   19 ar
  24   18   29 1
  25   19   20 ar
  26   19   30 1
  27   20   21 ar
  28   20   31 1
  29   21   22 ar
  30   21   32 1
  31   22   33 1
  32   23   24 ar
  33   23   34 1
  34   24   25 ar
  35   24   35 1
  36   25   26 ar
  37   25   36 1
  38   26   27 ar
  39   26   37 1
  40   27   38 1

#	End of record

