#	Name: ASD11000010
#	Creating user name:	WinNT
#	Creation time:	15. 06. 2019 21:28

#	Modifying user name:	WinNT
#	Modification time:	15. 06. 2019 21:28

#	Program:	/corina/corina34_cracker 3.40 0067  02.08.2006

@<TRIPOS>MOLECULE
ASD11000010
  50   53    0    0    0
SMALL
NO_CHARGES


@<TRIPOS>ATOM
   1 C1            -0.0167     1.3779     0.0096 C.ar    
   2 C2             0.0021    -0.0041     0.0020 C.ar    
   3 C3             1.2086    -0.6806    -0.0138 C.ar    
   4 C4             2.3932     0.0340    -0.0221 C.ar    
   5 C5             2.3745     1.4047    -0.0140 C.ar    
   6 C6             1.1712     2.0869     0.0021 C.ar    
   7 C7             3.7128    -0.7092    -0.0413 C.3     
   8 C8             4.3852    -0.5380     1.3232 C.3     
   9 C9             5.1873     0.7473     1.3742 C.3     
  10 C10            4.3502     2.0107     1.3405 C.3     
  11 C11            3.6739     2.1829    -0.0224 C.3     
  12 N12            5.9852     0.7499     2.6077 N.3     
  13 C13            6.8746     1.9173     2.6566 C.3     
  14 C14            7.7905     1.8116     3.8781 C.3     
  15 C15            6.9356     1.7443     5.1467 C.3     
  16 C16            5.9846     0.5482     5.0489 C.3     
  17 C17            5.1211     0.6906     3.7935 C.3     
  18 C18            7.8298     1.5798     6.3485 C.ar    
  19 C19            7.8203     2.5302     7.3523 C.ar    
  20 C20            8.6406     2.3793     8.4547 C.ar    
  21 C21            9.4701     1.2779     8.5534 C.ar    
  22 C22            9.4789     0.3271     7.5500 C.ar    
  23 C23            8.6554     0.4757     6.4497 C.ar    
  24 H24           -0.9594     1.9047     0.0170 H       
  25 H25           -0.9261    -0.5563     0.0088 H       
  26 H26            1.2257    -1.7605    -0.0194 H       
  27 H27            1.1592     3.1669     0.0082 H       
  28 H28            3.5345    -1.7675    -0.2316 H       
  29 H29            4.3542    -0.2968    -0.8201 H       
  30 H30            3.6200    -0.5138     2.0991 H       
  31 H31            5.0502    -1.3826     1.5033 H       
  32 H32            5.8704     0.7625     0.5250 H       
  33 H33            3.5857     1.9546     2.1153 H       
  34 H34            4.9918     2.8706     1.5331 H       
  35 H35            4.3264     1.7985    -0.8063 H       
  36 H36            3.4676     3.2386    -0.1982 H       
  37 H37            7.4798     1.9511     1.7507 H       
  38 H38            6.2772     2.8263     2.7282 H       
  39 H39            8.3980     0.9100     3.8005 H       
  40 H40            8.4398     2.6860     3.9229 H       
  41 H41            6.3568     2.6627     5.2451 H       
  42 H42            6.5638    -0.3733     4.9897 H       
  43 H43            5.3437     0.5199     5.9302 H       
  44 H44            4.5319     1.6052     3.8597 H       
  45 H45            4.4527    -0.1667     3.7133 H       
  46 H46            7.1723     3.3907     7.2751 H       
  47 H47            8.6337     3.1222     9.2386 H       
  48 H48           10.1115     1.1604     9.4144 H       
  49 H49           10.1272    -0.5333     7.6270 H       
  50 H50            8.6596    -0.2690     5.6676 H       
@<TRIPOS>BOND
   1    1    2 ar
   2    1    6 ar
   3    1   24 1
   4    2    3 ar
   5    2   25 1
   6    3    4 ar
   7    3   26 1
   8    4    5 ar
   9    4    7 1
  10    5    6 ar
  11    5   11 1
  12    6   27 1
  13    7    8 1
  14    7   28 1
  15    7   29 1
  16    8    9 1
  17    8   30 1
  18    8   31 1
  19    9   10 1
  20    9   12 1
  21    9   32 1
  22   10   11 1
  23   10   33 1
  24   10   34 1
  25   11   35 1
  26   11   36 1
  27   12   13 1
  28   12   17 1
  29   13   14 1
  30   13   37 1
  31   13   38 1
  32   14   15 1
  33   14   39 1
  34   14   40 1
  35   15   16 1
  36   15   18 1
  37   15   41 1
  38   16   17 1
  39   16   42 1
  40   16   43 1
  41   17   44 1
  42   17   45 1
  43   18   19 ar
  44   18   23 ar
  45   19   20 ar
  46   19   46 1
  47   20   21 ar
  48   20   47 1
  49   21   22 ar
  50   21   48 1
  51   22   23 ar
  52   22   49 1
  53   23   50 1

#	End of record

