#	Name: ASD10160498
#	Creating user name:	WinNT
#	Creation time:	15. 06. 2019 21:26

#	Modifying user name:	WinNT
#	Modification time:	15. 06. 2019 21:26

#	Program:	/corina/corina34_cracker 3.40 0067  02.08.2006

@<TRIPOS>MOLECULE
ASD10160498
  31   32    0    0    0
SMALL
NO_CHARGES


@<TRIPOS>ATOM
   1 C1            -0.0167     1.3821     0.0096 C.ar    
   2 C2             0.0021    -0.0041     0.0020 C.ar    
   3 C3             1.2186    -0.6638    -0.0131 C.ar    
   4 C4             2.3888     0.1026    -0.0202 C.ar    
   5 C5             2.2854     1.4921    -0.0117 C.ar    
   6 N6             1.1057     2.0772     0.0027 N.ar    
   7 O7             5.0841     0.0411    -0.0456 O.3     
   8 B8             3.7967    -0.5920    -0.0368 Du      
   9 O9             4.0777    -1.9989    -0.0460 O.3     
  10 C10            5.2124    -2.1506     0.8327 C.3     
  11 C11            5.8948    -0.7675     0.8329 C.3     
  12 C12            7.3216    -0.8769     0.2914 C.3     
  13 C13            5.9028    -0.1773     2.2445 C.3     
  14 C14            4.7486    -2.5165     2.2440 C.3     
  15 C15            6.1674    -3.2161     0.2910 C.3     
  16 Cl16          -1.4835    -0.9022     0.0119 Cl      
  17 Br17          -1.6749     2.2910     0.0224 Br      
  18 H18            1.2634    -1.7428    -0.0190 H       
  19 H19            3.1814     2.0951    -0.0170 H       
  20 H20            7.7692     0.1158     0.2438 H       
  21 H21            7.9132    -1.5109     0.9518 H       
  22 H22            7.2988    -1.3134    -0.7070 H       
  23 H23            4.8813    -0.1214     2.6207 H       
  24 H24            6.4974    -0.8128     2.9007 H       
  25 H25            6.3353     0.8229     2.2177 H       
  26 H26            4.2181    -3.4683     2.2168 H       
  27 H27            5.6147    -2.6020     2.9003 H       
  28 H28            4.0827    -1.7400     2.6204 H       
  29 H29            6.5002    -2.9321    -0.7074 H       
  30 H30            7.0305    -3.3001     0.9514 H       
  31 H31            5.6520    -4.1754     0.2429 H       
@<TRIPOS>BOND
   1    1    2 ar
   2    1    6 ar
   3    1   17 1
   4    2    3 ar
   5    2   16 1
   6    3    4 ar
   7    3   18 1
   8    4    5 ar
   9    4    8 1
  10    5    6 ar
  11    5   19 1
  12    7    8 1
  13    7   11 1
  14    8    9 1
  15    9   10 1
  16   10   11 1
  17   10   14 1
  18   10   15 1
  19   11   12 1
  20   11   13 1
  21   12   20 1
  22   12   21 1
  23   12   22 1
  24   13   23 1
  25   13   24 1
  26   13   25 1
  27   14   26 1
  28   14   27 1
  29   14   28 1
  30   15   29 1
  31   15   30 1
  32   15   31 1

#	End of record

