#	Name: ASD11000305
#	Creating user name:	WinNT
#	Creation time:	15. 06. 2019 21:29

#	Modifying user name:	WinNT
#	Modification time:	15. 06. 2019 21:29

#	Program:	/corina/corina34_cracker 3.40 0067  02.08.2006

@<TRIPOS>MOLECULE
ASD11000305
  28   29    0    0    0
SMALL
NO_CHARGES


@<TRIPOS>ATOM
   1 N1            -0.1777     1.0611    -1.1585 N.ar    
   2 C2            -0.0789    -0.1370    -0.5866 C.ar    
   3 N3             1.0838    -0.7791    -0.5899 N.ar    
   4 C4             2.1460    -0.2209    -1.1656 C.ar    
   5 N5             2.0378     0.9791    -1.7358 N.ar    
   6 C6             0.8784     1.6129    -1.7294 C.ar    
   7 N7            -1.1844    -0.7117     0.0100 N.pl3   
   8 C8             3.4415    -0.9291    -1.1723 C.2     
   9 C9             4.4995    -0.3713    -1.7467 C.2     
  10 C10           -2.3759     0.0121     0.1183 C.ar    
  11 C11           -3.5981    -0.6401     0.0178 C.ar    
  12 C12           -4.7730     0.0778     0.1252 C.ar    
  13 C13           -4.7336     1.4445     0.3320 C.ar    
  14 C14           -3.5185     2.0969     0.4324 C.ar    
  15 C15           -2.3398     1.3841     0.3322 C.ar    
  16 C16           -6.0177     2.2247     0.4476 C.3     
  17 F17           -6.4175     2.2689     1.7876 F       
  18 F18           -5.8160     3.5270    -0.0220 F       
  19 F19           -7.0117     1.6026    -0.3153 F       
  20 H20            0.7936     2.5849    -2.1925 H       
  21 H21           -1.1341    -1.6173     0.3538 H       
  22 H22            3.5279    -1.9012    -0.7096 H       
  23 H23            5.4472    -0.8893    -1.7515 H       
  24 H24            4.4131     0.6007    -2.2093 H       
  25 H25           -3.6295    -1.7074    -0.1444 H       
  26 H26           -5.7236    -0.4288     0.0472 H       
  27 H27           -3.4911     3.1645     0.5936 H       
  28 H28           -1.3912     1.8935     0.4152 H       
@<TRIPOS>BOND
   1    1    2 ar
   2    1    6 ar
   3    2    3 ar
   4    2    7 1
   5    3    4 ar
   6    4    5 ar
   7    4    8 1
   8    5    6 ar
   9    6   20 1
  10    7   10 1
  11    7   21 1
  12    8    9 2
  13    8   22 1
  14    9   23 1
  15    9   24 1
  16   10   11 ar
  17   10   15 ar
  18   11   12 ar
  19   11   25 1
  20   12   13 ar
  21   12   26 1
  22   13   14 ar
  23   13   16 1
  24   14   15 ar
  25   14   27 1
  26   15   28 1
  27   16   17 1
  28   16   18 1
  29   16   19 1

#	End of record

