#	Name: ASD11000070
#	Creating user name:	WinNT
#	Creation time:	15. 06. 2019 21:28

#	Modifying user name:	WinNT
#	Modification time:	15. 06. 2019 21:28

#	Program:	/corina/corina34_cracker 3.40 0067  02.08.2006

@<TRIPOS>MOLECULE
ASD11000070
  45   46    0    0    0
SMALL
NO_CHARGES


@<TRIPOS>ATOM
   1 C1            -0.0167     1.3794     0.0096 C.ar    
   2 C2             0.0021    -0.0041     0.0020 C.ar    
   3 C3            -1.1813    -0.7131     0.0095 C.ar    
   4 C4            -2.3995    -0.0315     0.0253 C.ar    
   5 C5            -2.4113     1.3644     0.0333 C.ar    
   6 C6            -1.2206     2.0611     0.0306 C.ar    
   7 C7            -3.6712    -0.7845     0.0329 C.2     
   8 O8            -3.6579    -2.0000     0.0254 O.2     
   9 N9            -4.8457    -0.1236     0.0481 N.am    
  10 C10           -6.0378    -0.8294     0.0552 C.2     
  11 C11           -7.2833    -0.2563     0.0706 C.2     
  12 C12           -8.3499    -1.2331     0.0749 C.2     
  13 C13           -7.9115    -2.4839     0.0632 C.2     
  14 S14           -6.1576    -2.5296     0.0388 S.3     
  15 C15           -7.5097     1.1922     0.0815 C.2     
  16 N16           -7.6021     1.8510     1.2536 N.am    
  17 O17           -7.6142     1.7997    -0.9680 O.2     
  18 C18           -8.7992    -3.7017     0.0643 C.3     
  19 C19            1.2800     2.1472     0.0014 C.3     
  20 C20            2.0744     1.7932    -1.2574 C.3     
  21 C21            0.9840     3.6483     0.0123 C.3     
  22 C22            2.0982     1.7798     1.2409 C.3     
  23 C23           -9.8114    -0.8661     0.0916 C.3     
  24 H24            0.9453    -0.5301    -0.0102 H       
  25 H25           -1.1653    -1.7929     0.0028 H       
  26 H26           -3.3503     1.8977     0.0455 H       
  27 H27           -1.2282     3.1410     0.0368 H       
  28 H28           -4.8563     0.8464     0.0540 H       
  29 H29           -7.5188     1.3669     2.0900 H       
  30 H30           -7.7519     2.8094     1.2608 H       
  31 H31           -9.0230    -3.9891    -0.9630 H       
  32 H32           -8.2891    -4.5226     0.5684 H       
  33 H33           -9.7274    -3.4742     0.5884 H       
  34 H34            1.4915     2.0550    -2.1405 H       
  35 H35            3.0122     2.3486    -1.2634 H       
  36 H36            2.2853     0.7238    -1.2652 H       
  37 H37            0.4181     3.9005     0.9090 H       
  38 H38            1.9219     4.2036     0.0063 H       
  39 H39            0.4011     3.9101    -0.8708 H       
  40 H40            2.3091     0.7104     1.2331 H       
  41 H41            3.0361     2.3351     1.2349 H       
  42 H42            1.5323     2.0320     2.1377 H       
  43 H43          -10.1739    -0.7711    -0.9320 H       
  44 H44          -10.3756    -1.6440     0.6061 H       
  45 H45           -9.9420     0.0824     0.6127 H       
@<TRIPOS>BOND
   1    1    2 ar
   2    1   19 1
   3    1    6 ar
   4    2    3 ar
   5    2   24 1
   6    3    4 ar
   7    3   25 1
   8    4    5 ar
   9    4    7 1
  10    5    6 ar
  11    5   26 1
  12    6   27 1
  13    7    8 2
  14    7    9 am
  15    9   10 1
  16    9   28 1
  17   10   11 2
  18   10   14 1
  19   11   12 1
  20   11   15 1
  21   12   13 2
  22   12   23 1
  23   13   14 1
  24   13   18 1
  25   15   16 am
  26   15   17 2
  27   16   29 1
  28   16   30 1
  29   18   31 1
  30   18   32 1
  31   18   33 1
  32   19   20 1
  33   19   21 1
  34   19   22 1
  35   20   34 1
  36   20   35 1
  37   20   36 1
  38   21   37 1
  39   21   38 1
  40   21   39 1
  41   22   40 1
  42   22   41 1
  43   22   42 1
  44   23   43 1
  45   23   44 1
  46   23   45 1

#	End of record

