#	Name: ASD11030052
#	Creating user name:	WinNT
#	Creation time:	15. 06. 2019 21:29

#	Modifying user name:	WinNT
#	Modification time:	15. 06. 2019 21:29

#	Program:	/corina/corina34_cracker 3.40 0067  02.08.2006

@<TRIPOS>MOLECULE
ASD11030052
  87   93    0    0    0
SMALL
NO_CHARGES


@<TRIPOS>ATOM
   1 C1             1.3323     6.8009    -4.1017 C.ar    
   2 C2             0.2326     6.0853    -3.6495 C.ar    
   3 C3             0.3747     5.2320    -2.5700 C.ar    
   4 N4             1.5373     5.0906    -1.9678 N.ar    
   5 C5             2.6145     5.7567    -2.3689 C.ar    
   6 C6             2.5424     6.6340    -3.4512 C.ar    
   7 C7             3.8995     5.5668    -1.6630 C.2     
   8 C8             4.2894     4.4287    -1.0351 C.2     
   9 C9             5.5754     4.6550    -0.4880 C.ar    
  10 C10            5.9324     5.9780    -0.8185 C.ar    
  11 N11            4.8897     6.5139    -1.5446 N.pl3   
  12 C12            6.4586     3.8562     0.2526 C.ar    
  13 C13            7.6590     4.3581     0.6522 C.ar    
  14 C14            8.0228     5.6732     0.3279 C.ar    
  15 C15            7.1577     6.4805    -0.4070 C.ar    
  16 C16            4.8406     7.8720    -2.0917 C.3     
  17 C17            3.4952     3.1517    -0.9377 C.3     
  18 C18            9.3277     6.2043     0.7678 C.2     
  19 N19           10.1668     5.4259     1.4794 N.am    
  20 O20            9.6457     7.3441     0.4882 O.2     
  21 C21           11.5050     5.9136     1.8223 C.3     
  22 C22           11.4744     7.1436     2.6925 C.2     
  23 N23           10.4800     7.3119     3.5866 N.am    
  24 O24           12.3445     7.9819     2.5884 O.2     
  25 C25           10.4815     8.4223     4.4305 C.ar    
  26 C26           10.8825     9.6637     3.9422 C.ar    
  27 C27           10.8882    10.7577     4.7589 C.ar    
  28 C28           10.4895    10.6375     6.0961 C.ar    
  29 C29           10.0840     9.3858     6.5926 C.ar    
  30 C30           10.0776     8.2865     5.7530 C.ar    
  31 C31           12.4468     4.8146     2.3420 C.3     
  32 C32           13.5580     5.4872     1.5188 C.3     
  33 C33           12.4440     6.0393     0.6109 C.3     
  34 C34           10.4955    11.8117     6.9749 C.2     
  35 C35           10.8866    13.0145     6.4942 C.2     
  36 C36            4.2757     1.9948    -1.5859 C.3     
  37 C37            4.5165     0.9498    -0.4770 C.3     
  38 C38            3.3933     1.2240     0.5538 C.3     
  39 C39            3.2890     2.7693     0.5426 C.3     
  40 O40            9.6959     9.2583     7.8865 O.3     
  41 C41            9.4539     7.9332     8.3636 C.3     
  42 C42            9.5851     7.7944     9.8895 C.3     
  43 C43            8.3579     6.8694     9.8319 C.3     
  44 C44            7.9620     7.6052     8.5409 C.3     
  45 C45           10.8923    14.1478     7.3424 C.2     
  46 O46           10.5455    14.0404     8.5037 O.2     
  47 O47           11.2824    15.3475     6.8630 O.3     
  48 H48            1.2467     7.4698    -4.9453 H       
  49 H49           -0.7256     6.1940    -4.1357 H       
  50 H50           -0.4797     4.6743    -2.2159 H       
  51 H51            3.4184     7.1752    -3.7768 H       
  52 H52            6.1860     2.8424     0.5064 H       
  53 H53            8.3358     3.7396     1.2230 H       
  54 H54            7.4399     7.4930    -0.6552 H       
  55 H55            5.2195     7.8659    -3.1137 H       
  56 H56            3.8105     8.2282    -2.0881 H       
  57 H57            5.4555     8.5325    -1.4802 H       
  58 H58            2.5306     3.2737    -1.4304 H       
  59 H59            9.8847     4.5427     1.7645 H       
  60 H60            9.7633     6.6607     3.6432 H       
  61 H61           11.1911     9.7612     2.9119 H       
  62 H62           11.2007    11.7170     4.3734 H       
  63 H63            9.7671     7.3222     6.1272 H       
  64 H64           12.6145     4.8563     3.4182 H       
  65 H65           12.1875     3.8156     1.9914 H       
  66 H66           14.0982     6.2608     2.0645 H       
  67 H67           14.2198     4.7801     1.0187 H       
  68 H68           12.1834     5.3755    -0.2134 H       
  69 H69           12.6111     7.0678     0.2909 H       
  70 H70           10.1876    11.7164     8.0057 H       
  71 H71           11.1944    13.1099     5.4634 H       
  72 H72            3.6895     1.5548    -2.3927 H       
  73 H73            5.2289     2.3570    -1.9710 H       
  74 H74            4.4278    -0.0598    -0.8783 H       
  75 H75            5.4960     1.0955    -0.0216 H       
  76 H76            2.4553     0.7711     0.2326 H       
  77 H77            3.6793     0.8633     1.5418 H       
  78 H78            4.0703     3.2089     1.1626 H       
  79 H79            2.3044     3.0877     0.8852 H       
  80 H80           10.0058     7.1756     7.8072 H       
  81 H81           10.4980     7.2894    10.2052 H       
  82 H82            9.4061     8.7241    10.4295 H       
  83 H83            8.6090     5.8201     9.6770 H       
  84 H84            7.6577     7.0213    10.6533 H       
  85 H85            7.3393     8.4832     8.7122 H       
  86 H86            7.5647     6.9475     7.7678 H       
  87 H87           11.2528    16.0604     7.5156 H       
@<TRIPOS>BOND
   1    1    2 ar
   2    1    6 ar
   3    1   48 1
   4    2    3 ar
   5    2   49 1
   6    3    4 ar
   7    3   50 1
   8    4    5 ar
   9    5    6 ar
  10    5    7 1
  11    6   51 1
  12    7    8 2
  13    7   11 1
  14    8    9 1
  15    8   17 1
  16    9   10 ar
  17    9   12 ar
  18   10   11 1
  19   10   15 ar
  20   11   16 1
  21   12   13 ar
  22   12   52 1
  23   13   14 ar
  24   13   53 1
  25   14   15 ar
  26   14   18 1
  27   15   54 1
  28   16   55 1
  29   16   56 1
  30   16   57 1
  31   17   36 1
  32   17   39 1
  33   17   58 1
  34   18   19 am
  35   18   20 2
  36   19   21 1
  37   19   59 1
  38   21   22 1
  39   21   31 1
  40   21   33 1
  41   22   23 am
  42   22   24 2
  43   23   25 1
  44   23   60 1
  45   25   26 ar
  46   25   30 ar
  47   26   27 ar
  48   26   61 1
  49   27   28 ar
  50   27   62 1
  51   28   29 ar
  52   28   34 1
  53   29   30 ar
  54   29   40 1
  55   30   63 1
  56   31   32 1
  57   31   64 1
  58   31   65 1
  59   32   33 1
  60   32   66 1
  61   32   67 1
  62   33   68 1
  63   33   69 1
  64   34   35 2
  65   34   70 1
  66   35   45 1
  67   35   71 1
  68   36   37 1
  69   36   72 1
  70   36   73 1
  71   37   38 1
  72   37   74 1
  73   37   75 1
  74   38   39 1
  75   38   76 1
  76   38   77 1
  77   39   78 1
  78   39   79 1
  79   40   41 1
  80   41   42 1
  81   41   44 1
  82   41   80 1
  83   42   43 1
  84   42   81 1
  85   42   82 1
  86   43   44 1
  87   43   83 1
  88   43   84 1
  89   44   85 1
  90   44   86 1
  91   45   46 2
  92   45   47 1
  93   47   87 1

#	End of record

