#	Name: ASD10420205
#	Creating user name:	WinNT
#	Creation time:	15. 06. 2019 21:27

#	Modifying user name:	WinNT
#	Modification time:	15. 06. 2019 21:27

#	Program:	/corina/corina34_cracker 3.40 0067  02.08.2006

@<TRIPOS>MOLECULE
ASD10420205
  44   46    0    0    0
SMALL
NO_CHARGES


@<TRIPOS>ATOM
   1 C1             0.0270     0.9214     1.1734 C.ar    
   2 C2            -0.0981    -0.4559     1.2579 C.ar    
   3 C3            -1.3125    -1.0615     1.0128 C.ar    
   4 C4            -2.4240    -0.2843     0.6778 C.ar    
   5 C5            -2.2862     1.1033     0.5959 C.ar    
   6 C6            -1.0736     1.7002     0.8464 C.ar    
   7 C7            -3.8200    -0.6444     0.3681 C.2     
   8 C8            -4.5407     0.4313     0.1033 C.2     
   9 C9            -3.6451     1.6425     0.2205 C.3     
  10 C10           -4.1629     2.5802     1.3129 C.3     
  11 C11           -3.3677     3.8602     1.2946 C.2     
  12 C12           -6.0045     0.4471    -0.2545 C.3     
  13 C13           -4.3543    -2.0534     0.3548 C.3     
  14 C14           -4.0865    -2.6795    -0.9896 C.ar    
  15 C15           -2.9092    -3.3703    -1.2081 C.ar    
  16 C16           -2.6635    -3.9446    -2.4413 C.ar    
  17 C17           -3.5952    -3.8285    -3.4558 C.ar    
  18 C18           -4.7729    -3.1384    -3.2370 C.ar    
  19 C19           -5.0205    -2.5678    -2.0025 C.ar    
  20 S20           -3.2815    -4.5595    -5.0280 S.o     
  21 O21           -1.8635    -4.6450    -5.0635 O.2     
  22 C22           -3.9833    -6.2229    -4.8519 C.3     
  23 O23           -2.5659     4.0608     0.4133 O.2     
  24 O24           -3.5503     4.7776     2.2574 O.3     
  25 F25            1.2204     1.5068     1.4150 F       
  26 H26            0.7601    -1.0584     1.5168 H       
  27 H27           -1.4042    -2.1355     1.0794 H       
  28 H28           -0.9758     2.7738     0.7812 H       
  29 H29           -3.5925     2.1665    -0.7338 H       
  30 H30           -5.2144     2.8031     1.1320 H       
  31 H31           -4.0555     2.0996     2.2853 H       
  32 H32           -6.3875    -0.5733    -0.2628 H       
  33 H33           -6.5523     1.0349     0.4820 H       
  34 H34           -6.1324     0.8912    -1.2417 H       
  35 H35           -3.8606    -2.6366     1.1320 H       
  36 H36           -5.4283    -2.0364     0.5402 H       
  37 H37           -2.1812    -3.4610    -0.4155 H       
  38 H38           -1.7434    -4.4837    -2.6122 H       
  39 H39           -5.5007    -3.0474    -4.0297 H       
  40 H40           -5.9406    -2.0288    -1.8316 H       
  41 H41           -5.0478    -6.1466    -4.6303 H       
  42 H42           -3.8442    -6.7761    -5.7807 H       
  43 H43           -3.4794    -6.7456    -4.0388 H       
  44 H44           -3.0174     5.5827     2.2034 H       
@<TRIPOS>BOND
   1    1    2 ar
   2    1   25 1
   3    1    6 ar
   4    2    3 ar
   5    2   26 1
   6    3    4 ar
   7    3   27 1
   8    4    5 ar
   9    4    7 1
  10    5    6 ar
  11    5    9 1
  12    6   28 1
  13    7    8 2
  14    7   13 1
  15    8    9 1
  16    8   12 1
  17    9   10 1
  18    9   29 1
  19   10   11 1
  20   10   30 1
  21   10   31 1
  22   11   23 2
  23   11   24 1
  24   12   32 1
  25   12   33 1
  26   12   34 1
  27   13   14 1
  28   13   35 1
  29   13   36 1
  30   14   15 ar
  31   14   19 ar
  32   15   16 ar
  33   15   37 1
  34   16   17 ar
  35   16   38 1
  36   17   18 ar
  37   17   20 1
  38   18   19 ar
  39   18   39 1
  40   19   40 1
  41   20   21 2
  42   20   22 1
  43   22   41 1
  44   22   42 1
  45   22   43 1
  46   24   44 1

#	End of record

