#	Name: ASD11000287
#	Creating user name:	WinNT
#	Creation time:	15. 06. 2019 21:29

#	Modifying user name:	WinNT
#	Modification time:	15. 06. 2019 21:29

#	Program:	/corina/corina34_cracker 3.40 0067  02.08.2006

@<TRIPOS>MOLECULE
ASD11000287
  46   49    0    0    0
SMALL
NO_CHARGES


@<TRIPOS>ATOM
   1 N1            -0.0162     1.3402     0.0094 N.am    
   2 C2             0.0021    -0.0041     0.0020 C.2     
   3 C3             1.2132    -0.7283    -0.0135 C.2     
   4 C4             2.4005    -0.0733    -0.0213 C.2     
   5 C5             2.3922     1.3908    -0.0134 C.ar    
   6 C6             3.5861     2.1197    -0.0214 C.ar    
   7 C7             3.5421     3.4992    -0.0140 C.ar    
   8 C8             2.3178     4.1638     0.0013 C.ar    
   9 C9             1.1358     3.4572     0.0093 C.ar    
  10 C10            1.1575     2.0663     0.0021 C.ar    
  11 O11           -1.0540    -0.6127     0.0093 O.2     
  12 O12            4.6992     4.2130    -0.0212 O.3     
  13 C13            4.5829     5.6373    -0.0130 C.3     
  14 C14            6.5833     6.5448    -1.2188 C.ar    
  15 C15            5.9581     6.2536    -0.0227 C.ar    
  16 C16            6.6090     6.5348     1.1710 C.ar    
  17 C17            7.8702     7.1009     1.1178 C.ar    
  18 C18            8.4401     7.3677    -0.1226 C.ar    
  19 N19            7.7868     7.0852    -1.2393 N.ar    
  20 N20            9.7067     7.9364    -0.1907 N.pl3   
  21 C21           10.4352     8.2520     1.0405 C.3     
  22 C22           11.7719     8.8547     0.6929 C.ar    
  23 C23           11.8948    10.2235     0.5434 C.ar    
  24 C24           13.1206    10.7769     0.2246 C.ar    
  25 C25           14.2247     9.9606     0.0551 C.ar    
  26 C26           14.1011     8.5907     0.2049 C.ar    
  27 C27           12.8760     8.0391     0.5292 C.ar    
  28 Cl28          15.7645    10.6548    -0.3459 Cl      
  29 H29           -0.8666     1.8066     0.0160 H       
  30 H30            1.1945    -1.8081    -0.0187 H       
  31 H31            3.3320    -0.6197    -0.0328 H       
  32 H32            4.5362     1.6063    -0.0329 H       
  33 H33            2.2955     5.2435     0.0073 H       
  34 H34            0.1923     3.9827     0.0215 H       
  35 H35            4.0329     5.9620    -0.8962 H       
  36 H36            4.0496     5.9531     0.8837 H       
  37 H37            6.0824     6.3236    -2.1497 H       
  38 H38            6.1412     6.3167     2.1196 H       
  39 H39            8.4048     7.3328     2.0271 H       
  40 H40           10.1083     8.1243    -1.0535 H       
  41 H41            9.8585     8.9635     1.6316 H       
  42 H42           10.5869     7.3394     1.6170 H       
  43 H43           11.0328    10.8606     0.6754 H       
  44 H44           13.2164    11.8462     0.1075 H       
  45 H45           14.9626     7.9530     0.0727 H       
  46 H46           12.7803     6.9702     0.6505 H       
@<TRIPOS>BOND
   1    1    2 am
   2    1   10 1
   3    1   29 1
   4    2    3 1
   5    2   11 2
   6    3    4 2
   7    3   30 1
   8    4    5 1
   9    4   31 1
  10    5    6 ar
  11    5   10 ar
  12    6    7 ar
  13    6   32 1
  14    7    8 ar
  15    7   12 1
  16    8    9 ar
  17    8   33 1
  18    9   10 ar
  19    9   34 1
  20   12   13 1
  21   13   15 1
  22   13   35 1
  23   13   36 1
  24   14   15 ar
  25   14   19 ar
  26   14   37 1
  27   15   16 ar
  28   16   17 ar
  29   16   38 1
  30   17   18 ar
  31   17   39 1
  32   18   19 ar
  33   18   20 1
  34   20   21 1
  35   20   40 1
  36   21   22 1
  37   21   41 1
  38   21   42 1
  39   22   23 ar
  40   22   27 ar
  41   23   24 ar
  42   23   43 1
  43   24   25 ar
  44   24   44 1
  45   25   26 ar
  46   25   28 1
  47   26   27 ar
  48   26   45 1
  49   27   46 1

#	End of record

