#	Name: ASD13620002
#	Creating user name:	WinNT
#	Creation time:	15. 06. 2019 21:30

#	Modifying user name:	WinNT
#	Modification time:	15. 06. 2019 21:30

#	Program:	/corina/corina34_cracker 3.40 0067  02.08.2006

@<TRIPOS>MOLECULE
ASD13620002
  39   41    0    0    0
SMALL
NO_CHARGES


@<TRIPOS>ATOM
   1 C1            -0.0160     1.3318     0.0094 C.ar    
   2 N2             0.0021    -0.0041     0.0020 N.ar    
   3 C3             1.1309    -0.6704    -0.0123 C.ar    
   4 C4             2.3643    -0.0224    -0.0205 C.ar    
   5 C5             2.4170     1.3423    -0.0137 C.ar    
   6 C6             1.2023     2.0538     0.0016 C.ar    
   7 C7             1.1778     3.4581     0.0098 C.ar    
   8 C8            -0.0162     4.1125     0.0251 C.ar    
   9 C9            -1.2180     3.4092     0.0329 C.ar    
  10 C10           -1.2339     2.0436     0.0307 C.ar    
  11 O11           -2.4160     1.3744     0.0433 O.3     
  12 C12           -3.6076     2.1628     0.0647 C.3     
  13 C13           -4.8288     1.2411     0.0764 C.3     
  14 N14           -4.8494     0.4736     1.3240 N.am    
  15 S15           -6.2273    -0.3212     1.7846 S.o2    
  16 C16           -6.5282    -1.5795     0.5884 C.ar    
  17 O17           -5.9182    -0.9889     3.0002 O.2     
  18 O18           -7.2904     0.6135     1.6598 O.2     
  19 C19           -5.9886    -2.8405     0.7618 C.ar    
  20 C20           -6.2243    -3.8283    -0.1755 C.ar    
  21 C21           -7.0011    -3.5547    -1.2885 C.ar    
  22 C22           -7.5409    -2.2914    -1.4611 C.ar    
  23 C23           -7.3083    -1.3067    -0.5198 C.ar    
  24 F24           -7.2318    -4.5195    -2.2057 F       
  25 H25            1.1041    -1.7500    -0.0175 H       
  26 H26            3.2777    -0.5986    -0.0319 H       
  27 H27            3.3641     1.8613    -0.0196 H       
  28 H28            2.1022     4.0165     0.0043 H       
  29 H29           -0.0313     5.1924     0.0318 H       
  30 H30           -2.1516     3.9519     0.0451 H       
  31 H31           -3.6146     2.7865     0.9586 H       
  32 H32           -3.6396     2.7971    -0.8211 H       
  33 H33           -5.7366     1.8399     0.0031 H       
  34 H34           -4.7756     0.5568    -0.7704 H       
  35 H35           -4.0560     0.4309     1.8804 H       
  36 H36           -5.3824    -3.0535     1.6298 H       
  37 H37           -5.8024    -4.8132    -0.0400 H       
  38 H38           -8.1470    -2.0769    -2.3289 H       
  39 H39           -7.7293    -0.3212    -0.6542 H       
@<TRIPOS>BOND
   1    1    2 ar
   2    1    6 ar
   3    1   10 ar
   4    2    3 ar
   5    3    4 ar
   6    3   25 1
   7    4    5 ar
   8    4   26 1
   9    5    6 ar
  10    5   27 1
  11    6    7 ar
  12    7    8 ar
  13    7   28 1
  14    8    9 ar
  15    8   29 1
  16    9   10 ar
  17    9   30 1
  18   10   11 1
  19   11   12 1
  20   12   13 1
  21   12   31 1
  22   12   32 1
  23   13   14 1
  24   13   33 1
  25   13   34 1
  26   14   15 am
  27   14   35 1
  28   15   16 1
  29   15   17 2
  30   15   18 2
  31   16   19 ar
  32   16   23 ar
  33   19   20 ar
  34   19   36 1
  35   20   21 ar
  36   20   37 1
  37   21   22 ar
  38   21   24 1
  39   22   23 ar
  40   22   38 1
  41   23   39 1

#	End of record

