#	Name: ASD10950004
#	Creating user name:	WinNT
#	Creation time:	15. 06. 2019 21:28

#	Modifying user name:	WinNT
#	Modification time:	15. 06. 2019 21:28

#	Program:	/corina/corina34_cracker 3.40 0067  02.08.2006

@<TRIPOS>MOLECULE
ASD10950004
  62   65    0    0    0
SMALL
NO_CHARGES


@<TRIPOS>ATOM
   1 C1             1.5149     1.2879     1.2172 C.3     
   2 O2             1.2873    -0.1351     1.0395 O.3     
   3 C3             0.0163    -0.5298     0.8315 C.2     
   4 O4            -0.8775     0.2922     0.7994 O.2     
   5 C5            -0.2907    -1.9625     0.6423 C.ar    
   6 C6            -1.6070    -2.3751     0.4265 C.ar    
   7 C7            -1.8865    -3.7144     0.2507 C.ar    
   8 C8            -0.8660    -4.6481     0.2879 C.ar    
   9 C9             0.4406    -4.2461     0.5013 C.ar    
  10 C10            0.7350    -2.9094     0.6729 C.ar    
  11 C11           -1.1792    -6.1096     0.0955 C.3     
  12 N12           -0.2713    -6.6933    -0.8987 N.am    
  13 C13           -0.1471    -6.2809    -2.2990 C.3     
  14 C14            0.9143    -5.1852    -2.4157 C.3     
  15 C15            1.0420    -4.7609    -3.8561 C.2     
  16 C16            1.9318    -5.2230    -4.7487 C.2     
  17 N17            1.7451    -4.6060    -5.9556 N.pl3   
  18 C18            0.7043    -3.7090    -5.8667 C.ar    
  19 C19            0.2147    -3.7706    -4.5494 C.ar    
  20 C20           -0.8555    -2.9602    -4.1654 C.ar    
  21 C21           -1.4224    -2.1103    -5.0725 C.ar    
  22 C22           -0.9432    -2.0461    -6.3739 C.ar    
  23 C23            0.1094    -2.8391    -6.7750 C.ar    
  24 C24            0.4272    -7.6736    -0.2978 C.2     
  25 O25            1.2692    -8.3621    -0.8388 O.2     
  26 C26            0.0188    -7.7883     1.1197 C.2     
  27 C27           -0.9397    -6.8656     1.3815 C.2     
  28 C28           -1.5901    -6.6521     2.6200 C.2     
  29 O29           -0.9660    -6.2186     3.5664 O.2     
  30 C30           -3.0577    -6.9629     2.7638 C.3     
  31 C31           -3.4820    -6.7584     4.2195 C.3     
  32 C32           -3.8674    -6.0302     1.8607 C.3     
  33 C33           -3.3136    -8.4155     2.3572 C.3     
  34 O34            0.5213    -8.6714     2.0112 O.3     
  35 H35            2.5780     1.4689     1.3756 H       
  36 H36            1.1841     1.8228     0.3269 H       
  37 H37            0.9534     1.6404     2.0824 H       
  38 H38           -2.4045    -1.6474     0.3977 H       
  39 H39           -2.9043    -4.0350     0.0841 H       
  40 H40            1.2324    -4.9801     0.5295 H       
  41 H41            1.7553    -2.5969     0.8394 H       
  42 H42           -2.2139    -6.2316    -0.2247 H       
  43 H43            0.1468    -7.1376    -2.9054 H       
  44 H44           -1.1049    -5.8979    -2.6512 H       
  45 H45            0.6203    -4.3285    -1.8093 H       
  46 H46            1.8721    -5.5681    -2.0634 H       
  47 H47            2.6839    -5.9706    -4.5444 H       
  48 H48            2.2683    -4.7750    -6.7547 H       
  49 H49           -1.2341    -3.0053    -3.1549 H       
  50 H50           -2.2502    -1.4837    -4.7750 H       
  51 H51           -1.4020    -1.3695    -7.0797 H       
  52 H52            0.4750    -2.7818    -7.7896 H       
  53 H53           -3.2997    -5.7235     4.5092 H       
  54 H54           -4.5435    -6.9832     4.3235 H       
  55 H55           -2.9052    -7.4228     4.8628 H       
  56 H56           -3.6534    -6.2593     0.8168 H       
  57 H57           -4.9309    -6.1713     2.0531 H       
  58 H58           -3.5945    -4.9957     2.0690 H       
  59 H59           -2.7998    -9.0825     3.0494 H       
  60 H60           -4.3844    -8.6173     2.3853 H       
  61 H61           -2.9390    -8.5814     1.3471 H       
  62 H62            1.2008    -9.2548     1.6466 H       
@<TRIPOS>BOND
   1    1    2 1
   2    1   35 1
   3    1   36 1
   4    1   37 1
   5    2    3 1
   6    3    4 2
   7    3    5 1
   8    5    6 ar
   9    5   10 ar
  10    6    7 ar
  11    6   38 1
  12    7    8 ar
  13    7   39 1
  14    8    9 ar
  15    8   11 1
  16    9   10 ar
  17    9   40 1
  18   10   41 1
  19   11   12 1
  20   11   27 1
  21   11   42 1
  22   12   13 1
  23   12   24 am
  24   13   14 1
  25   13   43 1
  26   13   44 1
  27   14   15 1
  28   14   45 1
  29   14   46 1
  30   15   16 2
  31   15   19 1
  32   16   17 1
  33   16   47 1
  34   17   18 1
  35   17   48 1
  36   18   19 ar
  37   18   23 ar
  38   19   20 ar
  39   20   21 ar
  40   20   49 1
  41   21   22 ar
  42   21   50 1
  43   22   23 ar
  44   22   51 1
  45   23   52 1
  46   24   25 2
  47   24   26 1
  48   26   27 2
  49   26   34 1
  50   27   28 1
  51   28   29 2
  52   28   30 1
  53   30   31 1
  54   30   32 1
  55   30   33 1
  56   31   53 1
  57   31   54 1
  58   31   55 1
  59   32   56 1
  60   32   57 1
  61   32   58 1
  62   33   59 1
  63   33   60 1
  64   33   61 1
  65   34   62 1

#	End of record

