#	Name: ASD10800044
#	Creating user name:	WinNT
#	Creation time:	15. 06. 2019 21:28

#	Modifying user name:	WinNT
#	Modification time:	15. 06. 2019 21:28

#	Program:	/corina/corina34_cracker 3.40 0067  02.08.2006

@<TRIPOS>MOLECULE
ASD10800044
  58   61    0    0    0
SMALL
NO_CHARGES


@<TRIPOS>ATOM
   1 C1             0.7650     0.1404    -0.2419 C.ar    
   2 C2             0.3035    -0.2905     1.0000 C.ar    
   3 C3             0.9437     0.1114     2.1544 C.ar    
   4 C4             2.0461     0.9433     2.0890 C.ar    
   5 C5             2.5105     1.3756     0.8586 C.ar    
   6 C6             1.8738     0.9761    -0.2943 C.ar    
   7 C7             3.7114     2.2827     0.7817 C.3     
   8 C8             4.0013     2.8636     2.1672 C.3     
   9 N9             4.8725     1.5178     0.3202 N.pl3   
  10 C10            5.1128     3.8762     2.0648 C.ar    
  11 C11            4.8172     5.2049     1.8240 C.ar    
  12 C12            6.4275     3.4772     2.2174 C.ar    
  13 C13            7.4470     4.4060     2.1235 C.ar    
  14 C14            7.1518     5.7337     1.8766 C.ar    
  15 C15            5.8368     6.1337     1.7300 C.ar    
  16 C16            8.8802     3.9712     2.2908 C.3     
  17 C17            5.5150     7.5811     1.4609 C.3     
  18 C18            5.3007     0.4211     1.0317 C.2     
  19 N19            6.3401    -0.2796     0.7512 N.2     
  20 S20            4.5060    -0.2274     2.4712 S.3     
  21 C21            5.6851    -1.5925     2.7284 C.3     
  22 C22            6.6881    -1.4137     1.5779 C.3     
  23 C23            2.1222     1.2615    -1.7576 C.3     
  24 C24            1.0323     0.4918    -2.4729 C.2     
  25 N25            0.3013    -0.1271    -1.5304 N.am    
  26 O26            0.8551     0.4398    -3.6716 O.2     
  27 C27           -0.8550    -0.9780    -1.8219 C.3     
  28 C28            1.9947     2.7596    -2.0407 C.3     
  29 C29            3.5023     0.7509    -2.1765 C.3     
  30 H30           -0.5572    -0.9401     1.0594 H       
  31 H31            0.5814    -0.2254     3.1144 H       
  32 H32            2.5434     1.2553     2.9955 H       
  33 H33            3.5096     3.0942     0.0825 H       
  34 H34            3.1040     3.3469     2.5535 H       
  35 H35            4.3013     2.0618     2.8418 H       
  36 H36            5.3394     1.7847    -0.4871 H       
  37 H37            3.7898     5.5173     1.7088 H       
  38 H38            6.6581     2.4399     2.4103 H       
  39 H39            7.9483     6.4594     1.8036 H       
  40 H40            9.2910     3.6925     1.3204 H       
  41 H41            9.4623     4.7920     2.7097 H       
  42 H42            8.9238     3.1145     2.9634 H       
  43 H43            5.4969     7.7554     0.3851 H       
  44 H44            4.5397     7.8213     1.8843 H       
  45 H45            6.2756     8.2136     1.9187 H       
  46 H46            6.1864    -1.4914     3.6910 H       
  47 H47            5.1801    -2.5557     2.6559 H       
  48 H48            6.6916    -2.3142     0.9638 H       
  49 H49            7.6846    -1.2626     1.9928 H       
  50 H50           -1.0133    -1.0193    -2.8996 H       
  51 H51           -0.6711    -1.9833    -1.4429 H       
  52 H52           -1.7411    -0.5645    -1.3401 H       
  53 H53            2.7944     3.2954    -1.5294 H       
  54 H54            2.0689     2.9341    -3.1141 H       
  55 H55            1.0299     3.1167    -1.6804 H       
  56 H56            3.6086    -0.2929    -1.8814 H       
  57 H57            3.6080     0.8353    -3.2581 H       
  58 H58            4.2737     1.3468    -1.6886 H       
@<TRIPOS>BOND
   1    1    2 ar
   2    1    6 ar
   3    1   25 1
   4    2    3 ar
   5    2   30 1
   6    3    4 ar
   7    3   31 1
   8    4    5 ar
   9    4   32 1
  10    5    6 ar
  11    5    7 1
  12    6   23 1
  13    7    8 1
  14    7    9 1
  15    7   33 1
  16    8   10 1
  17    8   34 1
  18    8   35 1
  19    9   18 1
  20    9   36 1
  21   10   11 ar
  22   10   12 ar
  23   11   15 ar
  24   11   37 1
  25   12   13 ar
  26   12   38 1
  27   13   14 ar
  28   13   16 1
  29   14   15 ar
  30   14   39 1
  31   15   17 1
  32   16   40 1
  33   16   41 1
  34   16   42 1
  35   17   43 1
  36   17   44 1
  37   17   45 1
  38   18   19 2
  39   18   20 1
  40   19   22 1
  41   20   21 1
  42   21   22 1
  43   21   46 1
  44   21   47 1
  45   22   48 1
  46   22   49 1
  47   23   24 1
  48   23   28 1
  49   23   29 1
  50   24   25 am
  51   24   26 2
  52   25   27 1
  53   27   50 1
  54   27   51 1
  55   27   52 1
  56   28   53 1
  57   28   54 1
  58   28   55 1
  59   29   56 1
  60   29   57 1
  61   29   58 1

#	End of record

