#	Name: ASD11670001
#	Creating user name:	WinNT
#	Creation time:	15. 06. 2019 21:29

#	Modifying user name:	WinNT
#	Modification time:	15. 06. 2019 21:29

#	Program:	/corina/corina34_cracker 3.40 0067  02.08.2006

@<TRIPOS>MOLECULE
ASD11670001
  19   19    0    0    0
SMALL
NO_CHARGES


@<TRIPOS>ATOM
   1 O1            -0.0163     1.3532     0.0095 O.3     
   2 O2             0.0565    -4.8448    -1.0820 O.2     
   3 C3             0.0587    -4.2468    -0.0266 C.2     
   4 C4             0.0388    -2.7784    -0.0146 C.ar    
   5 C5             0.0413    -2.0858     1.2029 C.ar    
   6 C6             0.0231    -0.7061     1.2077 C.ar    
   7 O7             0.0255    -0.0302     2.3878 O.3     
   8 C8             0.0474    -0.8126     3.5834 C.3     
   9 C9             0.0021    -0.0041     0.0020 C.ar    
  10 C10           -0.0005    -0.6899    -1.2056 C.ar    
  11 C11            0.0231    -2.0668    -1.2198 C.ar    
  12 H12            0.8616     1.7585     0.0033 H       
  13 H13            0.0754    -4.7943     0.9042 H       
  14 H14            0.0572    -2.6303     2.1355 H       
  15 H15           -0.8339    -1.4533     3.6146 H       
  16 H16            0.9458    -1.4296     3.5974 H       
  17 H17            0.0469    -0.1517     4.4502 H       
  18 H18           -0.0171    -0.1419    -2.1361 H       
  19 H19            0.0252    -2.5974    -2.1605 H       
@<TRIPOS>BOND
   1    1    9 1
   2    1   12 1
   3    2    3 2
   4    3    4 1
   5    3   13 1
   6    4    5 ar
   7    4   11 ar
   8    5    6 ar
   9    5   14 1
  10    6    7 1
  11    6    9 ar
  12    7    8 1
  13    8   15 1
  14    8   16 1
  15    8   17 1
  16    9   10 ar
  17   10   11 ar
  18   10   18 1
  19   11   19 1

#	End of record

