#	Name: ASD12930001
#	Creating user name:	WinNT
#	Creation time:	15. 06. 2019 21:30

#	Modifying user name:	WinNT
#	Modification time:	15. 06. 2019 21:30

#	Program:	/corina/corina34_cracker 3.40 0067  02.08.2006

@<TRIPOS>MOLECULE
ASD12930001
  48   49    0    0    0
SMALL
NO_CHARGES


@<TRIPOS>ATOM
   1 C1             0.1410     1.3837     0.6167 C.ar    
   2 C2             0.1582     0.0014     0.6215 C.ar    
   3 C3             1.2033    -0.6824     0.0290 C.ar    
   4 C4             2.2370     0.0126    -0.5717 C.ar    
   5 C5             2.2273     1.3977    -0.5808 C.ar    
   6 C6             1.1739     2.0875     0.0159 C.ar    
   7 N7             1.1585     3.4887     0.0093 N.am    
   8 O8             3.2432     2.0825    -1.1706 O.3     
   9 C9             4.2893     1.3093    -1.7622 C.3     
  10 C10           -0.0129     4.1493    -0.0782 C.2     
  11 C11           -0.0419     5.6512     0.0428 C.3     
  12 O12           -1.0439     3.5350    -0.2542 O.2     
  13 C13           -1.4835     6.1459    -0.0912 C.3     
  14 C14           -1.5297     7.6552     0.1553 C.3     
  15 C15           -1.9977     5.8433    -1.5001 C.3     
  16 C16           -2.9625     8.1222     0.1450 C.ar    
  17 C17           -3.5493     8.5259    -1.0398 C.ar    
  18 C18           -3.6916     8.1417     1.3192 C.ar    
  19 C19           -5.0059     8.5701     1.3097 C.ar    
  20 C20           -5.5908     8.9796     0.1261 C.ar    
  21 C21           -4.8636     8.9543    -1.0493 C.ar    
  22 C22           -5.8011     8.5903     2.5897 C.3     
  23 C23           -5.5032     9.3948    -2.3407 C.3     
  24 H24           -0.6788     1.9153     1.0768 H       
  25 H25           -0.6467    -0.5457     1.0897 H       
  26 H26            1.2127    -1.7623     0.0355 H       
  27 H27            3.0522    -0.5246    -1.0334 H       
  28 H28            1.9910     3.9831     0.0676 H       
  29 H29            4.7587     0.6888    -0.9989 H       
  30 H30            3.8733     0.6724    -2.5429 H       
  31 H31            5.0337     1.9769    -2.1962 H       
  32 H32            0.3543     5.9451     1.0148 H       
  33 H33            0.5680     6.0910    -0.7463 H       
  34 H34           -2.1113     5.6387     0.6414 H       
  35 H35           -1.0816     7.8791     1.1234 H       
  36 H36           -0.9745     8.1687    -0.6296 H       
  37 H37           -3.0247     6.1958    -1.5955 H       
  38 H38           -1.3699     6.3505    -2.2327 H       
  39 H39           -1.9648     4.7680    -1.6757 H       
  40 H40           -2.9809     8.5069    -1.9579 H       
  41 H41           -3.2346     7.8217     2.2440 H       
  42 H42           -6.6177     9.3140     0.1186 H       
  43 H43           -5.6803     9.5577     3.0772 H       
  44 H44           -6.8549     8.4256     2.3653 H       
  45 H45           -5.4431     7.8023     3.2523 H       
  46 H46           -5.9701     8.5377    -2.8258 H       
  47 H47           -6.2599    10.1510    -2.1320 H       
  48 H48           -4.7420     9.8144    -2.9985 H       
@<TRIPOS>BOND
   1    1    2 ar
   2    1    6 ar
   3    1   24 1
   4    2    3 ar
   5    2   25 1
   6    3    4 ar
   7    3   26 1
   8    4    5 ar
   9    4   27 1
  10    5    6 ar
  11    5    8 1
  12    6    7 1
  13    7   10 am
  14    7   28 1
  15    8    9 1
  16    9   29 1
  17    9   30 1
  18    9   31 1
  19   10   11 1
  20   10   12 2
  21   11   13 1
  22   11   32 1
  23   11   33 1
  24   13   14 1
  25   13   15 1
  26   13   34 1
  27   14   16 1
  28   14   35 1
  29   14   36 1
  30   15   37 1
  31   15   38 1
  32   15   39 1
  33   16   18 ar
  34   16   17 ar
  35   17   21 ar
  36   17   40 1
  37   18   19 ar
  38   18   41 1
  39   19   20 ar
  40   19   22 1
  41   20   21 ar
  42   20   42 1
  43   21   23 1
  44   22   43 1
  45   22   44 1
  46   22   45 1
  47   23   46 1
  48   23   47 1
  49   23   48 1

#	End of record

