#	Name: ASD15050001
#	Creating user name:	WinNT
#	Creation time:	15. 06. 2019 21:31

#	Modifying user name:	WinNT
#	Modification time:	15. 06. 2019 21:31

#	Program:	/corina/corina34_cracker 3.40 0067  02.08.2006

@<TRIPOS>MOLECULE
ASD15050001
  34   35    0    0    0
SMALL
NO_CHARGES


@<TRIPOS>ATOM
   1 O1             0.0110     1.2135     2.5028 O.2     
   2 O2            -0.0163     1.3519     0.0095 O.3     
   3 O3             0.0734    -2.8213     2.3575 O.3     
   4 O4             0.0140    -2.7455    -2.3898 O.3     
   5 O5             0.1332    -2.6549     9.8063 O.3     
   6 C6             0.0482     0.2135     4.9597 C.3     
   7 C7             0.0493    -0.7678     3.7859 C.3     
   8 C8             0.0709    -0.5543     6.2563 C.ar    
   9 C9             0.0266    -0.0001     2.4893 C.2     
  10 C10            0.0233    -0.7167     1.2157 C.ar    
  11 C11            1.2793    -0.8904     6.8382 C.ar    
  12 C12           -1.1166    -0.9165     6.8648 C.ar    
  13 C13            0.0021    -0.0041     0.0020 C.ar    
  14 C14            0.0472    -2.1239     1.1947 C.ar    
  15 C15           -0.0004    -0.6909    -1.1972 C.ar    
  16 C16            0.0439    -2.7925    -0.0147 C.ar    
  17 C17            1.3028    -1.5938     8.0270 C.ar    
  18 C18           -1.0985    -1.6199     8.0536 C.ar    
  19 C19            0.0175    -2.0801    -1.2074 C.ar    
  20 C20            0.1127    -1.9629     8.6369 C.ar    
  21 H21            0.9294     0.8522     4.9002 H       
  22 H22           -0.8503     0.8291     4.9178 H       
  23 H23            0.9478    -1.3835     3.8278 H       
  24 H24           -0.8319    -1.4065     3.8454 H       
  25 H25            2.2055    -0.6032     6.3629 H       
  26 H26           -2.0592    -0.6489     6.4106 H       
  27 H27           -0.0166    -0.1459    -2.1295 H       
  28 H28            0.0622    -3.8722    -0.0330 H       
  29 H29            2.2469    -1.8564     8.4810 H       
  30 H30           -2.0263    -1.9022     8.5288 H       
  31 H31            0.8616     1.7572     0.0033 H       
  32 H32           -0.8022    -3.0388     2.7055 H       
  33 H33            0.8963    -2.9269    -2.7416 H       
  34 H34            0.1339    -2.0950    10.5947 H       
@<TRIPOS>BOND
   1    1    9 2
   2    2   13 1
   3    2   31 1
   4    3   14 1
   5    3   32 1
   6    4   19 1
   7    4   33 1
   8    5   20 1
   9    5   34 1
  10    6    7 1
  11    6    8 1
  12    6   21 1
  13    6   22 1
  14    7    9 1
  15    7   23 1
  16    7   24 1
  17    8   11 ar
  18    8   12 ar
  19    9   10 1
  20   10   13 ar
  21   10   14 ar
  22   11   17 ar
  23   11   25 1
  24   12   18 ar
  25   12   26 1
  26   13   15 ar
  27   14   16 ar
  28   15   19 ar
  29   15   27 1
  30   16   19 ar
  31   16   28 1
  32   17   20 ar
  33   17   29 1
  34   18   20 ar
  35   18   30 1

#	End of record

