#	Name: ASD10610104
#	Creating user name:	WinNT
#	Creation time:	15. 06. 2019 21:28

#	Modifying user name:	WinNT
#	Modification time:	15. 06. 2019 21:28

#	Program:	/corina/corina34_cracker 3.40 0067  02.08.2006

@<TRIPOS>MOLECULE
ASD10610104
  57   60    0    0    0
SMALL
NO_CHARGES


@<TRIPOS>ATOM
   1 C1             0.0253     1.4838     0.0451 C.3     
   2 C2             0.2227    -0.0300    -0.0566 C.3     
   3 C3             1.4378     0.8960     0.0281 C.3     
   4 C4            -0.4415     2.2092    -1.1906 C.2     
   5 O5            -0.2360     1.7333    -2.2871 O.2     
   6 N6            -1.0872     3.3868    -1.0773 N.am    
   7 C7            -1.4436     4.1454    -2.2788 C.3     
   8 C8            -2.6523     5.0619    -1.9946 C.3     
   9 C9            -1.9749     6.3842    -1.5767 C.3     
  10 C10           -0.6231     6.3696    -2.2582 C.ar    
  11 C11            0.2655     7.3998    -2.5034 C.ar    
  12 C12            1.4686     7.1444    -3.1565 C.ar    
  13 C13            1.7718     5.8453    -3.5614 C.ar    
  14 C14            0.8800     4.8244    -3.3128 C.ar    
  15 C15           -0.3172     5.0819    -2.6621 C.ar    
  16 O16            3.7526     8.2312    -4.0898 O.3     
  17 B17            2.4787     8.3135    -3.4350 Du      
  18 O18            2.3300     9.6984    -3.0908 O.3     
  19 C19            2.8580    10.4157    -4.2263 C.3     
  20 C20            3.8226     9.4210    -4.9036 C.3     
  21 C21            5.2469     9.9797    -4.9097 C.3     
  22 C22            3.3611     9.1186    -6.3307 C.3     
  23 C23            1.7297    10.8010    -5.1851 C.3     
  24 C24            3.6155    11.6621    -3.7642 C.3     
  25 N25           -0.4700     2.0175     1.3164 N.am    
  26 C26           -1.7088     1.7015     1.7429 C.2     
  27 O27           -2.3794     0.9047     1.1214 O.2     
  28 C28           -2.2608     2.3383     2.9923 C.3     
  29 F29           -3.5526     1.8566     3.2296 F       
  30 F30           -1.4383     2.0226     4.0791 F       
  31 F31           -2.3038     3.7270     2.8280 F       
  32 H32           -0.0159    -0.6288     0.8224 H       
  33 H33            0.0150    -0.5012    -1.0173 H       
  34 H34            2.0294     1.0339    -0.8769 H       
  35 H35            1.9985     0.9063     0.9627 H       
  36 H36           -1.3160     3.7320    -0.2001 H       
  37 H37           -1.6691     3.4662    -3.1011 H       
  38 H38           -3.2526     5.2014    -2.8936 H       
  39 H39           -3.2580     4.6630    -1.1809 H       
  40 H40           -2.5626     7.2354    -1.9206 H       
  41 H41           -1.8524     6.4208    -0.4942 H       
  42 H42            0.0261     8.4047    -2.1882 H       
  43 H43            2.7028     5.6396    -4.0687 H       
  44 H44            1.1147     3.8180    -3.6268 H       
  45 H45            5.9248     9.2417    -5.3386 H       
  46 H46            5.2771    10.8911    -5.5068 H       
  47 H47            5.5535    10.2043    -3.8881 H       
  48 H48            2.3403     8.7371    -6.3093 H       
  49 H49            3.3953    10.0319    -6.9248 H       
  50 H50            4.0189     8.3715    -6.7747 H       
  51 H51            1.0263    11.4578    -4.6732 H       
  52 H52            2.1476    11.3186    -6.0486 H       
  53 H53            1.2115     9.9013    -5.5166 H       
  54 H54            4.4247    11.3684    -3.0955 H       
  55 H55            4.0294    12.1779    -4.6307 H       
  56 H56            2.9322    12.3280    -3.2371 H       
  57 H57            0.0937     2.5983     1.8510 H       
@<TRIPOS>BOND
   1    1    2 1
   2    1    3 1
   3    1    4 1
   4    1   25 1
   5    2    3 1
   6    2   32 1
   7    2   33 1
   8    3   34 1
   9    3   35 1
  10    4    5 2
  11    4    6 am
  12    6    7 1
  13    6   36 1
  14    7    8 1
  15    7   15 1
  16    7   37 1
  17    8    9 1
  18    8   38 1
  19    8   39 1
  20    9   10 1
  21    9   40 1
  22    9   41 1
  23   10   11 ar
  24   10   15 ar
  25   11   12 ar
  26   11   42 1
  27   12   13 ar
  28   12   17 1
  29   13   14 ar
  30   13   43 1
  31   14   15 ar
  32   14   44 1
  33   16   17 1
  34   16   20 1
  35   17   18 1
  36   18   19 1
  37   19   20 1
  38   19   23 1
  39   19   24 1
  40   20   21 1
  41   20   22 1
  42   21   45 1
  43   21   46 1
  44   21   47 1
  45   22   48 1
  46   22   49 1
  47   22   50 1
  48   23   51 1
  49   23   52 1
  50   23   53 1
  51   24   54 1
  52   24   55 1
  53   24   56 1
  54   25   26 am
  55   25   57 1
  56   26   27 2
  57   26   28 1
  58   28   29 1
  59   28   30 1
  60   28   31 1

#	End of record

