#	Name: ASD10160482
#	Creating user name:	WinNT
#	Creation time:	15. 06. 2019 21:26

#	Modifying user name:	WinNT
#	Modification time:	15. 06. 2019 21:26

#	Program:	/corina/corina34_cracker 3.40 0067  02.08.2006

@<TRIPOS>MOLECULE
ASD10160482
  28   28    0    0    0
SMALL
NO_CHARGES


@<TRIPOS>ATOM
   1 C1            -0.0225     1.8097     0.0120 C.3     
   2 S2             0.0021    -0.0041     0.0020 S.o2    
   3 O3            -1.3056    -0.5216     0.2056 O.2     
   4 O4             0.8248    -0.4858    -1.0517 O.2     
   5 O5             0.7562    -0.3806     1.2693 O.3     
   6 F6             1.2900     2.2940     0.0021 F       
   7 F7            -0.6992     2.2732    -1.1214 F       
   8 F8            -0.6773     2.2609     1.1630 F       
   9 C9            -0.7367    -1.2649     2.9018 C.ar    
  10 C10            0.0335    -0.2233     2.4105 C.ar    
  11 C11            0.0588     0.9858     3.0993 C.ar    
  12 C12           -0.6923     1.1009     4.2571 C.ar    
  13 C13           -1.4408     0.0129     4.6892 C.ar    
  14 N14           -1.4402    -1.1206     4.0089 N.ar    
  15 O15           -2.1808     0.1149     5.8231 O.3     
  16 C16           -2.9288    -1.0377     6.2156 C.3     
  17 C17           -2.0718    -1.9144     7.1310 C.3     
  18 C18           -4.1886    -0.5977     6.9640 C.3     
  19 Cl19          -0.6981     2.5852     5.1573 Cl      
  20 H20           -0.7648    -2.2046     2.3703 H       
  21 H21            0.6505     1.8146     2.7396 H       
  22 H22           -3.2123    -1.6059     5.3297 H       
  23 H23           -1.1743    -2.2279     6.5979 H       
  24 H24           -1.7883    -1.3462     8.0170 H       
  25 H25           -2.6423    -2.7936     7.4304 H       
  26 H26           -4.7991     0.0269     6.3118 H       
  27 H27           -4.7591    -1.4769     7.2634 H       
  28 H28           -3.9051    -0.0295     7.8499 H       
@<TRIPOS>BOND
   1    1    2 1
   2    1    6 1
   3    1    7 1
   4    1    8 1
   5    2    3 2
   6    2    4 2
   7    2    5 1
   8    5   10 1
   9    9   10 ar
  10    9   14 ar
  11    9   20 1
  12   10   11 ar
  13   11   12 ar
  14   11   21 1
  15   12   13 ar
  16   12   19 1
  17   13   14 ar
  18   13   15 1
  19   15   16 1
  20   16   17 1
  21   16   18 1
  22   16   22 1
  23   17   23 1
  24   17   24 1
  25   17   25 1
  26   18   26 1
  27   18   27 1
  28   18   28 1

#	End of record

