#	Name: ASD14720005
#	Creating user name:	WinNT
#	Creation time:	15. 06. 2019 21:31

#	Modifying user name:	WinNT
#	Modification time:	15. 06. 2019 21:31

#	Program:	/corina/corina34_cracker 3.40 0067  02.08.2006

@<TRIPOS>MOLECULE
ASD14720005
  55   58    0    0    0
SMALL
NO_CHARGES


@<TRIPOS>ATOM
   1 N1             0.1521     1.4638     0.1107 N.3     
   2 C2             0.1898    -0.0069     0.1483 C.3     
   3 C3             0.7832    -0.5110    -1.1675 C.3     
   4 C4             2.0754     0.2082    -1.4584 C.ar    
   5 C5             1.5094     2.0089     0.2142 C.3     
   6 C6             2.9392    -0.3378    -2.3962 C.ar    
   7 C7             4.1315     0.2893    -2.6954 C.ar    
   8 C8             4.4669     1.4711    -2.0562 C.ar    
   9 C9             3.6063     2.0149    -1.1210 C.ar    
  10 C10            2.4092     1.3830    -0.8190 C.ar    
  11 C11           -0.7112     1.9956     1.1736 C.3     
  12 C12           -0.3085     1.3948     2.4957 C.2     
  13 C13           -0.5645     3.4941     1.2372 C.ar    
  14 N14            0.9138     1.2129     2.9327 N.2     
  15 N15           -1.1341     0.9462     3.4594 N.pl3   
  16 N16           -0.3933     0.5127     4.4227 N.2     
  17 N17            0.8427     0.6753     4.1014 N.2     
  18 C18            0.3132     5.4483     2.3067 C.ar    
  19 C19           -0.2953     6.2466     1.3555 C.ar    
  20 C20           -1.0436     5.6723     0.3465 C.ar    
  21 C21           -1.1802     4.2929     0.2849 C.ar    
  22 C22            0.1786     4.0737     2.2475 C.ar    
  23 C23           -2.5986     0.9500     3.4218 C.3     
  24 C24           -3.0830    -0.0003     2.3249 C.3     
  25 C25           -3.1447     0.4882     4.7744 C.3     
  26 C26           -3.0975     2.3659     3.1269 C.3     
  27 O27           -1.9156     3.7254    -0.7071 O.3     
  28 C28           -2.4231     4.5978    -1.7187 C.3     
  29 F29            5.6321     2.0906    -2.3455 F       
  30 H30            0.8121    -0.3361     0.9805 H       
  31 H31           -0.8213    -0.3962     0.2670 H       
  32 H32            0.9740    -1.5815    -1.0918 H       
  33 H33            0.0767    -0.3273    -1.9769 H       
  34 H34            1.4774     3.0872     0.0582 H       
  35 H35            1.9053     1.8035     1.2088 H       
  36 H36            2.6774    -1.2593    -2.8949 H       
  37 H37            4.8012    -0.1406    -3.4256 H       
  38 H38            3.8677     2.9367    -0.6227 H       
  39 H39           -1.7493     1.7409     0.9599 H       
  40 H40            0.8979     5.8993     3.0949 H       
  41 H41           -0.1887     7.3202     1.4039 H       
  42 H42           -1.5186     6.2961    -0.3961 H       
  43 H43            0.6545     3.4525     2.9918 H       
  44 H44           -2.6485    -0.9876     2.4815 H       
  45 H45           -4.1701    -0.0719     2.3602 H       
  46 H46           -2.7756     0.3817     1.3514 H       
  47 H47           -2.7995     1.1651     5.5558 H       
  48 H48           -4.2343     0.4910     4.7464 H       
  49 H49           -2.7892    -0.5206     4.9844 H       
  50 H50           -2.8031     2.6520     2.1172 H       
  51 H51           -4.1840     2.3930     3.2099 H       
  52 H52           -2.6610     3.0616     3.8435 H       
  53 H53           -2.9902     4.0183    -2.4472 H       
  54 H54           -3.0734     5.3439    -1.2623 H       
  55 H55           -1.5926     5.0965    -2.2184 H       
@<TRIPOS>BOND
   1    1    2 1
   2    1    5 1
   3    1   11 1
   4    2    3 1
   5    2   30 1
   6    2   31 1
   7    3    4 1
   8    3   32 1
   9    3   33 1
  10    4    6 ar
  11    4   10 ar
  12    5   10 1
  13    5   34 1
  14    5   35 1
  15    6    7 ar
  16    6   36 1
  17    7    8 ar
  18    7   37 1
  19    8    9 ar
  20    8   29 1
  21    9   10 ar
  22    9   38 1
  23   11   12 1
  24   11   13 1
  25   11   39 1
  26   12   15 1
  27   12   14 2
  28   13   22 ar
  29   13   21 ar
  30   14   17 1
  31   15   16 1
  32   15   23 1
  33   16   17 2
  34   18   19 ar
  35   18   22 ar
  36   18   40 1
  37   19   20 ar
  38   19   41 1
  39   20   21 ar
  40   20   42 1
  41   21   27 1
  42   22   43 1
  43   23   24 1
  44   23   25 1
  45   23   26 1
  46   24   44 1
  47   24   45 1
  48   24   46 1
  49   25   47 1
  50   25   48 1
  51   25   49 1
  52   26   50 1
  53   26   51 1
  54   26   52 1
  55   27   28 1
  56   28   53 1
  57   28   54 1
  58   28   55 1

#	End of record

