#	Name: ASD13490051
#	Creating user name:	WinNT
#	Creation time:	15. 06. 2019 21:30

#	Modifying user name:	WinNT
#	Modification time:	15. 06. 2019 21:30

#	Program:	/corina/corina34_cracker 3.40 0067  02.08.2006

@<TRIPOS>MOLECULE
ASD13490051
  53   57    0    0    0
SMALL
NO_CHARGES


@<TRIPOS>ATOM
   1 C1            -1.4535     1.4194     0.0136 C.ar    
   2 C2            -1.6662     0.0604    -0.0825 C.ar    
   3 C3            -1.2164    -0.7871     0.9220 C.ar    
   4 C4            -0.5513    -0.2684     2.0257 C.ar    
   5 C5            -0.3359     1.0898     2.1270 C.ar    
   6 C6            -0.7863     1.9427     1.1203 C.ar    
   7 N7            -1.4344    -2.1686     0.8218 N.pl3   
   8 C8            -1.0505    -3.1221     1.7289 C.2     
   9 C9            -1.4574    -4.3099     1.2420 C.2     
  10 N10           -2.0733    -4.0934     0.0704 N.2     
  11 C11           -2.0712    -2.8142    -0.1894 C.2     
  12 C12           -0.5556     3.4038     1.2263 C.2     
  13 N13           -0.9648     4.2554     0.2952 N.2     
  14 C14           -0.7083     5.5117     0.4935 C.2     
  15 S15            0.1492     5.6992     2.0202 S.3     
  16 C16            0.0776     3.9571     2.2753 C.2     
  17 N17           -1.0549     6.5451    -0.3631 N.pl3   
  18 C18           -1.2549    -5.6507     1.8996 C.3     
  19 C19           -0.7413     7.8608    -0.0298 C.2     
  20 N20           -1.5706     8.7618     0.5632 N.pl3   
  21 C21            0.4474     8.4779    -0.2309 C.2     
  22 C22            0.3402     9.7926     0.2487 C.2     
  23 N23           -0.8613     9.9619     0.7200 N.2     
  24 C24            1.7001     7.9136    -0.8540 C.3     
  25 C25            2.6149     9.0844    -1.2351 C.3     
  26 C26            2.7785    10.0222    -0.0369 C.3     
  27 C27            1.4727    10.7902     0.2021 C.3     
  28 C28           -2.9584     8.5213     0.9662 C.3     
  29 C29           -2.9996     8.1293     2.4446 C.3     
  30 H30           -1.7996     2.0774    -0.7698 H       
  31 H31           -2.1833    -0.3455    -0.9394 H       
  32 H32           -0.2029    -0.9296     2.8054 H       
  33 H33            0.1810     1.4925     2.9856 H       
  34 H34           -0.5226    -2.9531     2.6559 H       
  35 H35           -2.5010    -2.3477    -1.0635 H       
  36 H36            0.4756     3.4252     3.1268 H       
  37 H37           -1.5157     6.3521    -1.1945 H       
  38 H38           -2.1025    -5.8683     2.5495 H       
  39 H39           -1.1765    -6.4226     1.1340 H       
  40 H40           -0.3394    -5.6309     2.4908 H       
  41 H41            2.2083     7.2678    -0.1380 H       
  42 H42            1.4421     7.3430    -1.7462 H       
  43 H43            3.5911     8.7005    -1.5311 H       
  44 H44            2.1741     9.6330    -2.0675 H       
  45 H45            3.0230     9.4378     0.8501 H       
  46 H46            3.5835    10.7293    -0.2373 H       
  47 H47            1.3074    11.4965    -0.6114 H       
  48 H48            1.5296    11.3263     1.1495 H       
  49 H49           -3.5432     9.4286     0.8145 H       
  50 H50           -3.3769     7.7145     0.3646 H       
  51 H51           -2.4148     7.2220     2.5963 H       
  52 H52           -2.5811     8.9361     3.0462 H       
  53 H53           -4.0322     7.9504     2.7444 H       
@<TRIPOS>BOND
   1    1    2 ar
   2    1    6 ar
   3    1   30 1
   4    2    3 ar
   5    2   31 1
   6    3    4 ar
   7    3    7 1
   8    4    5 ar
   9    4   32 1
  10    5    6 ar
  11    5   33 1
  12    6   12 1
  13    7    8 1
  14    7   11 1
  15    8    9 2
  16    8   34 1
  17    9   10 1
  18    9   18 1
  19   10   11 2
  20   11   35 1
  21   12   13 1
  22   12   16 2
  23   13   14 2
  24   14   15 1
  25   14   17 1
  26   15   16 1
  27   16   36 1
  28   17   19 1
  29   17   37 1
  30   18   38 1
  31   18   39 1
  32   18   40 1
  33   19   21 2
  34   19   20 1
  35   20   23 1
  36   20   28 1
  37   21   24 1
  38   21   22 1
  39   22   23 2
  40   22   27 1
  41   24   25 1
  42   24   41 1
  43   24   42 1
  44   25   26 1
  45   25   43 1
  46   25   44 1
  47   26   27 1
  48   26   45 1
  49   26   46 1
  50   27   47 1
  51   27   48 1
  52   28   29 1
  53   28   49 1
  54   28   50 1
  55   29   51 1
  56   29   52 1
  57   29   53 1

#	End of record

