#	Name: ASD11030064
#	Creating user name:	WinNT
#	Creation time:	15. 06. 2019 21:29

#	Modifying user name:	WinNT
#	Modification time:	15. 06. 2019 21:29

#	Program:	/corina/corina34_cracker 3.40 0067  02.08.2006

@<TRIPOS>MOLECULE
ASD11030064
  79   84    0    0    0
SMALL
NO_CHARGES


@<TRIPOS>ATOM
   1 C1            -0.6898     2.8936     0.2036 C.ar    
   2 N2            -0.9611     1.5958     0.2717 N.ar    
   3 C3             0.7198     3.3338     0.1406 C.2     
   4 C4             1.1372     4.6229     0.0684 C.2     
   5 C5             2.5524     4.6178     0.0266 C.ar    
   6 C6             2.9573     3.2686     0.0772 C.ar    
   7 N7             1.8150     2.5010     0.1519 N.pl3   
   8 C8             3.5150     5.6348    -0.0491 C.ar    
   9 C9             4.8388     5.3193    -0.0738 C.ar    
  10 C10            5.2511     3.9797    -0.0239 C.ar    
  11 C11            4.3090     2.9571     0.0519 C.ar    
  12 C12            1.7734     1.0384     0.2232 C.3     
  13 C13            0.2523     5.8423     0.0373 C.3     
  14 C14            6.6903     3.6524    -0.0514 C.2     
  15 N15            7.6047     4.6398    -0.1243 N.am    
  16 O16            7.0508     2.4920    -0.0083 O.2     
  17 C17            9.0328     4.3230    -0.0444 C.3     
  18 C18            9.5007     3.7586     1.2723 C.2     
  19 N19            8.9233     4.1616     2.4215 N.am    
  20 O20           10.3968     2.9418     1.2978 O.2     
  21 C21            9.4636     3.7730     3.6471 C.ar    
  22 C22           10.8437     3.6473     3.7879 C.ar    
  23 C23           11.3841     3.2676     4.9827 C.ar    
  24 C24           10.5513     3.0016     6.0768 C.ar    
  25 C25            9.1574     3.1274     5.9386 C.ar    
  26 C26            8.6233     3.5185     4.7240 C.ar    
  27 C27            9.7152     3.8115    -1.3146 C.3     
  28 C28           10.0011     5.2278    -0.8091 C.3     
  29 C29           11.1302     2.5931     7.3610 C.2     
  30 C30           12.4715     2.4726     7.4907 C.2     
  31 C31            0.5638     6.7504     1.2398 C.3     
  32 C32            1.0323     8.1018     0.6618 C.3     
  33 C33            0.4131     8.1431    -0.7573 C.3     
  34 C34            0.5422     6.6736    -1.2294 C.3     
  35 C35           -2.2103     1.1690     0.3289 C.ar    
  36 C36           -3.2440     2.0960     0.3169 C.ar    
  37 C37           -2.9249     3.4454     0.2449 C.ar    
  38 N38           -1.6548     3.8051     0.1852 N.ar    
  39 Cl39          -4.8996     1.5789     0.3898 Cl      
  40 O40            8.3415     2.8721     6.9922 O.3     
  41 C41            6.1845     2.6931     8.0672 C.3     
  42 C42            6.9368     3.0212     6.7760 C.3     
  43 C43           13.0302     2.0783     8.7302 C.2     
  44 O44           12.3042     1.8479     9.6790 O.2     
  45 O45           14.3682     1.9581     8.8594 O.3     
  46 H46            3.2057     6.6689    -0.0883 H       
  47 H47            5.5766     6.1058    -0.1325 H       
  48 H48            4.6291     1.9264     0.0905 H       
  49 H49            1.7977     0.7246     1.2667 H       
  50 H50            0.8567     0.6777    -0.2434 H       
  51 H51            2.6350     0.6245    -0.3008 H       
  52 H52           -0.7958     5.5434     0.0569 H       
  53 H53            7.3173     5.5602    -0.2298 H       
  54 H54            8.1319     4.7220     2.3962 H       
  55 H55           11.4899     3.8511     2.9469 H       
  56 H56           12.4550     3.1720     5.0843 H       
  57 H57            7.5538     3.6176     4.6104 H       
  58 H58           10.5028     3.0670    -1.1980 H       
  59 H59            9.1016     3.7107    -2.2098 H       
  60 H60            9.5755     6.0587    -1.3717 H       
  61 H61           10.9766     5.4145    -0.3601 H       
  62 H62           10.4857     2.3886     8.2032 H       
  63 H63           13.1159     2.6771     6.6485 H       
  64 H64           -0.3332     6.8929     1.8425 H       
  65 H65            1.3551     6.3091     1.8459 H       
  66 H66            0.6554     8.9266     1.2666 H       
  67 H67            2.1202     8.1356     0.6045 H       
  68 H68           -0.6336     8.4441    -0.7135 H       
  69 H69            0.9808     8.8090    -1.4072 H       
  70 H70            1.5511     6.4767    -1.5922 H       
  71 H71           -0.1923     6.4560    -2.0049 H       
  72 H72           -2.4247     0.1119     0.3838 H       
  73 H73           -3.7054     4.1917     0.2334 H       
  74 H74            6.3997     1.6661     8.3622 H       
  75 H75            6.5047     3.3727     8.8570 H       
  76 H76            5.1130     2.8068     7.9023 H       
  77 H77            6.7216     4.0482     6.4810 H       
  78 H78            6.6166     2.3417     5.9862 H       
  79 H79           14.6551     1.6844     9.7414 H       
@<TRIPOS>BOND
   1    1    2 ar
   2    1    3 1
   3    1   38 ar
   4    2   35 ar
   5    3    4 2
   6    3    7 1
   7    4    5 1
   8    4   13 1
   9    5    6 ar
  10    5    8 ar
  11    6    7 1
  12    6   11 ar
  13    7   12 1
  14    8    9 ar
  15    8   46 1
  16    9   10 ar
  17    9   47 1
  18   10   11 ar
  19   10   14 1
  20   11   48 1
  21   12   49 1
  22   12   50 1
  23   12   51 1
  24   13   31 1
  25   13   34 1
  26   13   52 1
  27   14   15 am
  28   14   16 2
  29   15   17 1
  30   15   53 1
  31   17   18 1
  32   17   27 1
  33   17   28 1
  34   18   19 am
  35   18   20 2
  36   19   21 1
  37   19   54 1
  38   21   22 ar
  39   21   26 ar
  40   22   23 ar
  41   22   55 1
  42   23   24 ar
  43   23   56 1
  44   24   25 ar
  45   24   29 1
  46   25   26 ar
  47   25   40 1
  48   26   57 1
  49   27   28 1
  50   27   58 1
  51   27   59 1
  52   28   60 1
  53   28   61 1
  54   29   30 2
  55   29   62 1
  56   30   43 1
  57   30   63 1
  58   31   32 1
  59   31   64 1
  60   31   65 1
  61   32   33 1
  62   32   66 1
  63   32   67 1
  64   33   34 1
  65   33   68 1
  66   33   69 1
  67   34   70 1
  68   34   71 1
  69   35   36 ar
  70   35   72 1
  71   36   37 ar
  72   36   39 1
  73   37   38 ar
  74   37   73 1
  75   40   42 1
  76   41   42 1
  77   41   74 1
  78   41   75 1
  79   41   76 1
  80   42   77 1
  81   42   78 1
  82   43   44 2
  83   43   45 1
  84   45   79 1

#	End of record

