#	Name: ASD10160426
#	Creating user name:	WinNT
#	Creation time:	15. 06. 2019 21:25

#	Modifying user name:	WinNT
#	Modification time:	15. 06. 2019 21:25

#	Program:	/corina/corina34_cracker 3.40 0067  02.08.2006

@<TRIPOS>MOLECULE
ASD10160426
  35   36    0    0    0
SMALL
NO_CHARGES


@<TRIPOS>ATOM
   1 C1             4.7333    -7.0743    -0.9454 C.2     
   2 C2             3.5035    -6.3007    -0.7027 C.ar    
   3 C3             2.8447    -5.6750    -1.7691 C.ar    
   4 C4             1.6928    -4.9522    -1.5353 C.ar    
   5 C5             1.1879    -4.8454    -0.2455 C.ar    
   6 C6             1.8399    -5.4655     0.8154 C.ar    
   7 C7             2.9863    -6.1932     0.5922 C.ar    
   8 O8             5.1781    -7.1706    -2.0722 O.2     
   9 O9             5.3682    -7.6707     0.0829 O.3     
  10 F10            3.3363    -5.7788    -3.0232 F       
  11 O11            0.0553    -4.1333    -0.0197 O.3     
  12 C12           -2.3266    -4.0816    -0.0019 C.ar    
  13 C13           -1.1361    -4.7815    -0.1160 C.ar    
  14 C14           -1.1748    -6.1565    -0.3308 C.ar    
  15 C15           -2.4105    -6.7747    -0.4227 C.ar    
  16 C16           -3.5623    -6.0073    -0.2982 C.ar    
  17 N17           -3.4868    -4.7032    -0.0945 N.ar    
  18 O18           -4.7789    -6.6035    -0.3867 O.3     
  19 C19           -5.9255    -5.7615    -0.2505 C.3     
  20 C20           -7.0831    -6.3403    -1.0666 C.3     
  21 C21           -6.3291    -5.6839     1.2232 C.3     
  22 Cl22          -2.5192    -8.4865    -0.6905 Cl      
  23 H23            1.1834    -4.4687    -2.3558 H       
  24 H24            1.4431    -5.3789     1.8161 H       
  25 H25            3.4883    -6.6775     1.4167 H       
  26 H26            6.1713    -8.1673    -0.1256 H       
  27 H27           -2.3045    -3.0155     0.1694 H       
  28 H28           -0.2628    -6.7273    -0.4240 H       
  29 H29           -5.6878    -4.7623    -0.6153 H       
  30 H30           -7.3208    -7.3396    -0.7018 H       
  31 H31           -7.9576    -5.6981    -0.9627 H       
  32 H32           -6.7955    -6.3957    -2.1165 H       
  33 H33           -6.5668    -6.6832     1.5880 H       
  34 H34           -5.5044    -5.2716     1.8046 H       
  35 H35           -7.2037    -5.0417     1.3271 H       
@<TRIPOS>BOND
   1    1    2 1
   2    1    8 2
   3    1    9 1
   4    2    3 ar
   5    2    7 ar
   6    3    4 ar
   7    3   10 1
   8    4    5 ar
   9    4   23 1
  10    5    6 ar
  11    5   11 1
  12    6    7 ar
  13    6   24 1
  14    7   25 1
  15    9   26 1
  16   11   13 1
  17   12   13 ar
  18   12   17 ar
  19   12   27 1
  20   13   14 ar
  21   14   15 ar
  22   14   28 1
  23   15   16 ar
  24   15   22 1
  25   16   17 ar
  26   16   18 1
  27   18   19 1
  28   19   20 1
  29   19   21 1
  30   19   29 1
  31   20   30 1
  32   20   31 1
  33   20   32 1
  34   21   33 1
  35   21   34 1
  36   21   35 1

#	End of record

