#	Name: ASD10160336
#	Creating user name:	WinNT
#	Creation time:	15. 06. 2019 21:25

#	Modifying user name:	WinNT
#	Modification time:	15. 06. 2019 21:25

#	Program:	/corina/corina34_cracker 3.40 0067  02.08.2006

@<TRIPOS>MOLECULE
ASD10160336
  17   17    0    0    0
SMALL
NO_CHARGES


@<TRIPOS>ATOM
   1 C1            -0.0167     1.3793     0.0096 C.ar    
   2 C2             0.0021    -0.0041     0.0020 C.ar    
   3 C3             1.2229    -0.6630    -0.0132 C.ar    
   4 C4             2.3826     0.0969    -0.0203 C.ar    
   5 C5             2.2849     1.4753    -0.0119 C.ar    
   6 N6             1.1072     2.0686     0.0026 N.ar    
   7 C7            -1.3366     2.1064     0.0198 C.3     
   8 C8            -1.0873     3.6159     0.0268 C.3     
   9 F9            -2.0687     1.7600    -1.1209 F       
  10 F10           -2.0579     1.7476     1.1636 F       
  11 Cl11          -1.4826    -0.9037     0.0120 Cl      
  12 H12            1.2688    -1.7420    -0.0191 H       
  13 H13            3.3503    -0.3825    -0.0318 H       
  14 H14            3.1838     2.0739    -0.0170 H       
  15 H15           -0.5253     3.8955    -0.8643 H       
  16 H16           -2.0420     4.1419     0.0342 H       
  17 H17           -0.5169     3.8858     0.9156 H       
@<TRIPOS>BOND
   1    1    2 ar
   2    1    6 ar
   3    1    7 1
   4    2    3 ar
   5    2   11 1
   6    3    4 ar
   7    3   12 1
   8    4    5 ar
   9    4   13 1
  10    5    6 ar
  11    5   14 1
  12    7    8 1
  13    7    9 1
  14    7   10 1
  15    8   15 1
  16    8   16 1
  17    8   17 1

#	End of record

