#	Name: ASD13110052
#	Creating user name:	WinNT
#	Creation time:	15. 06. 2019 21:30

#	Modifying user name:	WinNT
#	Modification time:	15. 06. 2019 21:30

#	Program:	/corina/corina34_cracker 3.40 0067  02.08.2006

@<TRIPOS>MOLECULE
ASD13110052
  38   39    0    0    0
SMALL
NO_CHARGES


@<TRIPOS>ATOM
   1 C1            -0.0169     1.3931     0.0097 C.ar    
   2 C2             0.0021    -0.0041     0.0020 C.ar    
   3 C3             1.2342    -0.6794    -0.0134 C.ar    
   4 C4             2.4199     0.0415    -0.0208 C.ar    
   5 C5             2.3854     1.4196    -0.0131 C.ar    
   6 C6             1.1702     2.0931     0.0021 C.ar    
   7 N7             0.9295    -2.0271    -0.0173 N.pl3   
   8 C8            -0.4263    -2.1353    -0.0046 C.2     
   9 N9            -0.9693    -0.9529     0.0066 N.2     
  10 C10           -1.1885    -3.4353    -0.0034 C.3     
  11 N11           -1.5261    -3.8021     1.3742 N.am    
  12 C12           -2.7861    -3.3457     1.9660 C.3     
  13 C13           -0.6774    -4.5594     2.0971 C.2     
  14 O14            0.3678    -4.9380     1.6063 O.2     
  15 O15           -0.9876    -4.8966     3.3631 O.3     
  16 C16           -0.0266    -5.7141     4.0819 C.3     
  17 C17            1.3091    -4.9730     4.1693 C.3     
  18 C18           -0.5485    -5.9928     5.4929 C.3     
  19 C19            0.1722    -7.0378     3.3409 C.3     
  20 F20            1.1522     3.4440     0.0096 F       
  21 H21           -0.9583     1.9224     0.0170 H       
  22 H22            3.3677    -0.4761    -0.0323 H       
  23 H23            3.3090     1.9794    -0.0186 H       
  24 H24            1.5647    -2.7601    -0.0271 H       
  25 H25           -2.1042    -3.3201    -0.5835 H       
  26 H26           -0.5731    -4.2177    -0.4474 H       
  27 H27           -3.5663    -4.0819     1.7720 H       
  28 H28           -2.6596    -3.2253     3.0419 H       
  29 H29           -3.0700    -2.3905     1.5243 H       
  30 H30            1.1675    -4.0299     4.6972 H       
  31 H31            2.0304    -5.5866     4.7089 H       
  32 H32            1.6809    -4.7744     3.1641 H       
  33 H33           -1.5001    -6.5208     5.4306 H       
  34 H34            0.1729    -6.6065     6.0324 H       
  35 H35           -0.6901    -5.0497     6.0208 H       
  36 H36            0.5440    -6.8392     2.3357 H       
  37 H37            0.8935    -7.6515     3.8805 H       
  38 H38           -0.7794    -7.5658     3.2786 H       
@<TRIPOS>BOND
   1    1    2 ar
   2    1    6 ar
   3    1   21 1
   4    2    9 1
   5    2    3 ar
   6    3    4 ar
   7    3    7 1
   8    4    5 ar
   9    4   22 1
  10    5    6 ar
  11    5   23 1
  12    6   20 1
  13    7    8 1
  14    7   24 1
  15    8   10 1
  16    8    9 2
  17   10   11 1
  18   10   25 1
  19   10   26 1
  20   11   12 1
  21   11   13 am
  22   12   27 1
  23   12   28 1
  24   12   29 1
  25   13   14 2
  26   13   15 1
  27   15   16 1
  28   16   17 1
  29   16   18 1
  30   16   19 1
  31   17   30 1
  32   17   31 1
  33   17   32 1
  34   18   33 1
  35   18   34 1
  36   18   35 1
  37   19   36 1
  38   19   37 1
  39   19   38 1

#	End of record

