#	Name: ASD10420132
#	Creating user name:	WinNT
#	Creation time:	15. 06. 2019 21:27

#	Modifying user name:	WinNT
#	Modification time:	15. 06. 2019 21:27

#	Program:	/corina/corina34_cracker 3.40 0067  02.08.2006

@<TRIPOS>MOLECULE
ASD10420132
  31   33    0    0    0
SMALL
NO_CHARGES


@<TRIPOS>ATOM
   1 C1            -0.0184     1.5028     0.0103 C.3     
   2 C2             0.0155    -2.8206    -2.5310 C.3     
   3 C3             0.1384    -5.7041     5.9399 C.ar    
   4 C4             0.1302    -4.5118     6.6479 C.ar    
   5 C5             0.1246    -5.6976     4.5628 C.ar    
   6 C6             0.1073    -3.3027     5.9829 C.ar    
   7 C7             0.0228    -0.6984     1.1919 C.ar    
   8 C8             0.0400    -2.7820    -0.0329 C.ar    
   9 C9             0.0021    -0.0041     0.0020 C.ar    
  10 C10            0.0183    -2.0803    -1.2184 C.ar    
  11 C11            0.0417    -2.0949     1.1831 C.ar    
  12 C12           -0.0005    -0.6912    -1.2054 C.ar    
  13 C13            0.0645    -2.8431     2.4563 C.2     
  14 C14            0.1016    -4.4816     3.8761 C.ar    
  15 C15            0.0928    -3.2764     4.5975 C.ar    
  16 N16            0.0833    -4.1483     2.5598 N.2     
  17 O17           -0.0218    -0.0033    -2.3760 O.3     
  18 O18            0.0697    -2.2831     3.6809 O.3     
  19 H19            1.0042     1.8801     0.0026 H       
  20 H20           -0.5455     1.8639    -0.8728 H       
  21 H21           -0.5286     1.8543     0.9071 H       
  22 H22           -1.0127    -3.0134    -2.8372 H       
  23 H23            0.5133    -2.2168    -3.2898 H       
  24 H24            0.5437    -3.7670    -2.4155 H       
  25 H25            0.1606    -6.6438     6.4718 H       
  26 H26            0.1413    -4.5295     7.7277 H       
  27 H27            0.1319    -6.6290     4.0161 H       
  28 H28            0.1003    -2.3783     6.5415 H       
  29 H29            0.0289    -0.1634     2.1301 H       
  30 H30            0.0546    -3.8618    -0.0438 H       
  31 H31            0.8553     0.2083    -2.7239 H       
@<TRIPOS>BOND
   1    1    9 1
   2    1   19 1
   3    1   20 1
   4    1   21 1
   5    2   10 1
   6    2   22 1
   7    2   23 1
   8    2   24 1
   9    3    4 ar
  10    3    5 ar
  11    3   25 1
  12    4    6 ar
  13    4   26 1
  14    5   14 ar
  15    5   27 1
  16    6   15 ar
  17    6   28 1
  18    7    9 ar
  19    7   11 ar
  20    7   29 1
  21    8   10 ar
  22    8   11 ar
  23    8   30 1
  24    9   12 ar
  25   10   12 ar
  26   11   13 1
  27   12   17 1
  28   13   16 2
  29   13   18 1
  30   14   15 ar
  31   14   16 1
  32   15   18 1
  33   17   31 1

#	End of record

