#	Name: ASD10420151
#	Creating user name:	WinNT
#	Creation time:	15. 06. 2019 21:27

#	Modifying user name:	WinNT
#	Modification time:	15. 06. 2019 21:27

#	Program:	/corina/corina34_cracker 3.40 0067  02.08.2006

@<TRIPOS>MOLECULE
ASD10420151
  36   37    0    0    0
SMALL
NO_CHARGES


@<TRIPOS>ATOM
   1 C1            -0.0166     1.3754     0.0096 C.ar    
   2 C2             0.0021    -0.0041     0.0020 C.ar    
   3 C3             2.3849     1.4194    -0.0135 C.ar    
   4 C4             0.4871    -2.8813     0.9094 C.ar    
   5 C5             2.0195    -2.8425    -0.9542 C.ar    
   6 C6             4.4101    -4.9996    -3.8267 C.3     
   7 C7             5.1361    -3.9947    -4.7234 C.3     
   8 C8             5.9752    -4.7360    -5.7320 C.2     
   9 C9             2.8614    -4.9635    -1.9459 C.2     
  10 C10            1.1721     2.0877     0.0021 C.ar    
  11 C11            2.4142     0.0374    -0.0207 C.ar    
  12 C12            0.5054    -4.2599     0.9073 C.ar    
  13 C13            1.2768    -4.9469    -0.0205 C.ar    
  14 C14            1.2438    -2.1662    -0.0209 C.ar    
  15 C15            2.0397    -4.2376    -0.9583 C.ar    
  16 C16            1.2189    -0.6827    -0.0132 C.ar    
  17 N17            3.5943    -4.2789    -2.8463 N.am    
  18 O18            5.9910    -5.9442    -5.7335 O.2     
  19 O19            2.8773    -6.1793    -1.9474 O.2     
  20 O20            1.2924    -6.3034    -0.0190 O.3     
  21 O21            6.7052    -4.0542    -6.6286 O.3     
  22 F22            1.1478     3.4384     0.0095 F       
  23 F23            3.5973    -0.6146    -0.0364 F       
  24 I24           -0.6338    -5.3215     2.3089 I       
  25 H25           -0.9598     1.9015     0.0169 H       
  26 H26           -0.9254    -0.5573     0.0082 H       
  27 H27            3.3089     1.9786    -0.0201 H       
  28 H28           -0.1183    -2.3525     1.6307 H       
  29 H29            2.6048    -2.2902    -1.6744 H       
  30 H30            3.7679    -5.6339    -4.4377 H       
  31 H31            5.1420    -5.6174    -3.3065 H       
  32 H32            4.4041    -3.3769    -5.2436 H       
  33 H33            5.7783    -3.3603    -4.1124 H       
  34 H34            3.5817    -3.3090    -2.8450 H       
  35 H35            0.6146    -6.7051    -0.5796 H       
  36 H36            7.2274    -4.5733    -7.2554 H       
@<TRIPOS>BOND
   1    1    2 ar
   2    1   10 ar
   3    1   25 1
   4    2   16 ar
   5    2   26 1
   6    3   10 ar
   7    3   11 ar
   8    3   27 1
   9    4   12 ar
  10    4   14 ar
  11    4   28 1
  12    5   14 ar
  13    5   15 ar
  14    5   29 1
  15    6    7 1
  16    6   17 1
  17    6   30 1
  18    6   31 1
  19    7    8 1
  20    7   32 1
  21    7   33 1
  22    8   18 2
  23    8   21 1
  24    9   15 1
  25    9   17 am
  26    9   19 2
  27   10   22 1
  28   11   16 ar
  29   11   23 1
  30   12   13 ar
  31   12   24 1
  32   13   15 ar
  33   13   20 1
  34   14   16 1
  35   17   34 1
  36   20   35 1
  37   21   36 1

#	End of record

