#	Name: ASD10160514
#	Creating user name:	WinNT
#	Creation time:	15. 06. 2019 21:26

#	Modifying user name:	WinNT
#	Modification time:	15. 06. 2019 21:26

#	Program:	/corina/corina34_cracker 3.40 0067  02.08.2006

@<TRIPOS>MOLECULE
ASD10160514
  23   23    0    0    0
SMALL
NO_CHARGES


@<TRIPOS>ATOM
   1 C1            -0.0168     1.3861     0.0097 C.ar    
   2 C2             0.0021    -0.0041     0.0020 C.ar    
   3 C3             1.2210    -0.6607    -0.0132 C.ar    
   4 C4             2.3825     0.0998    -0.0202 C.ar    
   5 C5             2.2883     1.4769    -0.0119 C.ar    
   6 N6             1.1118     2.0749     0.0026 N.ar    
   7 N7             3.7077    -0.5591    -0.0360 N.pl3   
   8 O8             3.7834    -1.7747    -0.0429 O.2     
   9 O9             4.7226     0.1143    -0.0421 O.2     
  10 O10           -1.2046     2.0422     0.0188 O.3     
  11 C11           -1.1466     3.9879    -1.4134 C.3     
  12 C12           -1.1569     3.4703     0.0264 C.3     
  13 C13           -2.3849     4.0178     0.7564 C.3     
  14 F14           -2.3943     3.5446     2.0729 F       
  15 F15           -2.3382     5.4160     0.7638 F       
  16 F16           -3.5453     3.5935     0.1001 F       
  17 F17           -2.3070     3.5635    -2.0697 F       
  18 F18           -1.0999     5.3861    -1.4060 F       
  19 F19           -0.0237     3.4873    -2.0809 F       
  20 Cl20          -1.4823    -0.9043     0.0120 Cl      
  21 H21            1.2672    -1.7397    -0.0191 H       
  22 H22            3.1890     2.0728    -0.0170 H       
  23 H23           -0.2528     3.8010     0.5377 H       
@<TRIPOS>BOND
   1    1    2 ar
   2    1    6 ar
   3    1   10 1
   4    2    3 ar
   5    2   20 1
   6    3    4 ar
   7    3   21 1
   8    4    5 ar
   9    4    7 1
  10    5    6 ar
  11    5   22 1
  12    7    8 2
  13    7    9 2
  14   10   12 1
  15   11   12 1
  16   11   17 1
  17   11   18 1
  18   11   19 1
  19   12   13 1
  20   12   23 1
  21   13   14 1
  22   13   15 1
  23   13   16 1

#	End of record

