#	Name: ASD10410143
#	Creating user name:	WinNT
#	Creation time:	15. 06. 2019 21:27

#	Modifying user name:	WinNT
#	Modification time:	15. 06. 2019 21:27

#	Program:	/corina/corina34_cracker 3.40 0067  02.08.2006

@<TRIPOS>MOLECULE
ASD10410143
  66   70    0    0    0
SMALL
NO_CHARGES


@<TRIPOS>ATOM
   1 C1             0.1121     1.6215     0.8335 C.ar    
   2 C2             0.0515     0.3851     0.2078 C.ar    
   3 C3             1.1871    -0.1519    -0.3806 C.ar    
   4 C4             2.3793     0.5441    -0.3434 C.ar    
   5 C5             2.4409     1.7821     0.2828 C.ar    
   6 C6             1.3033     2.3191     0.8713 C.ar    
   7 O7            -1.1219    -0.3014     0.1715 O.3     
   8 N8             3.6490     2.4881     0.3214 N.pl3   
   9 C9             3.6420     3.8830     0.3222 C.2     
  10 N10            4.6988     4.6497     0.4458 N.2     
  11 N11            2.5564     4.6545     0.1912 N.2     
  12 C12            2.9061     5.9223     0.2352 C.2     
  13 N13            4.2491     5.9789     0.3951 N.pl3   
  14 C14            5.0322     7.1311     0.4904 C.ar    
  15 N15            2.0533     7.0048     0.1321 N.pl3   
  16 C16            6.2530     7.0790     1.1490 C.ar    
  17 C17           -1.1121    -1.5684    -0.4893 C.3     
  18 C18           -2.5106    -2.1862    -0.4284 C.3     
  19 N19           -3.4566    -1.3290    -1.1553 N.3     
  20 C20           -4.7925    -1.9372    -1.1974 C.3     
  21 N21            4.6047     8.2607    -0.0534 N.ar    
  22 C22            5.3166     9.3751     0.0145 C.ar    
  23 C23            6.5461     9.3929     0.6643 C.ar    
  24 C24            7.0242     8.2276     1.2390 C.ar    
  25 C25           -5.7813    -0.9563    -1.8314 C.3     
  26 C26           -5.3126    -0.6104    -3.2475 C.3     
  27 C27           -3.9000    -0.0236    -3.1801 C.3     
  28 C28           -2.9657    -1.0316    -2.5070 C.3     
  29 N29            4.8305    10.5386    -0.5700 N.3     
  30 C30            3.5235    10.3048    -1.2013 C.3     
  31 C31            2.9989    11.6220    -1.7789 C.3     
  32 O32            3.9583    12.1488    -2.6994 O.3     
  33 C33            5.2425    12.3892    -2.1178 C.3     
  34 C34            5.7899    11.0797    -1.5436 C.3     
  35 H35           -0.7737     2.0408     1.2874 H       
  36 H36            1.1390    -1.1146    -0.8675 H       
  37 H37            3.2636     0.1256    -0.8009 H       
  38 H38            1.3502     3.2820     1.3582 H       
  39 H39            4.4911     2.0073     0.3475 H       
  40 H40            1.1008     6.8626     0.0160 H       
  41 H41            2.4072     7.9069     0.1759 H       
  42 H42            6.5981     6.1541     1.5869 H       
  43 H43           -0.8198    -1.4329    -1.5306 H       
  44 H44           -0.4007    -2.2303     0.0046 H       
  45 H45           -2.4911    -3.1753    -0.8859 H       
  46 H46           -2.8244    -2.2731     0.6118 H       
  47 H47           -4.7569    -2.8512    -1.7903 H       
  48 H48           -5.1157    -2.1745    -0.1838 H       
  49 H49            7.1231    10.3044     0.7166 H       
  50 H50            7.9759     8.2144     1.7494 H       
  51 H51           -6.7695    -1.4140    -1.8768 H       
  52 H52           -5.8277    -0.0475    -1.2314 H       
  53 H53           -5.3034    -1.5129    -3.8587 H       
  54 H54           -5.9905     0.1213    -3.6870 H       
  55 H55           -3.5441     0.1851    -4.1890 H       
  56 H56           -3.9168     0.8999    -2.6012 H       
  57 H57           -1.9620    -0.6110    -2.4445 H       
  58 H58           -2.9387    -1.9498    -3.0937 H       
  59 H59            3.6319     9.5736    -2.0024 H       
  60 H60            2.8218     9.9287    -0.4568 H       
  61 H61            2.0572    11.4425    -2.2976 H       
  62 H62            2.8396    12.3360    -0.9708 H       
  63 H63            5.9235    12.7645    -2.8817 H       
  64 H64            5.1485    13.1254    -1.3196 H       
  65 H65            6.7426    11.2693    -1.0491 H       
  66 H66            5.9345    10.3610    -2.3502 H       
@<TRIPOS>BOND
   1    1    2 ar
   2    1    6 ar
   3    1   35 1
   4    2    3 ar
   5    2    7 1
   6    3    4 ar
   7    3   36 1
   8    4    5 ar
   9    4   37 1
  10    5    6 ar
  11    5    8 1
  12    6   38 1
  13    7   17 1
  14    8    9 1
  15    8   39 1
  16    9   10 2
  17    9   11 1
  18   10   13 1
  19   11   12 2
  20   12   13 1
  21   12   15 1
  22   13   14 1
  23   14   16 ar
  24   14   21 ar
  25   15   40 1
  26   15   41 1
  27   16   24 ar
  28   16   42 1
  29   17   18 1
  30   17   43 1
  31   17   44 1
  32   18   19 1
  33   18   45 1
  34   18   46 1
  35   19   20 1
  36   19   28 1
  37   20   25 1
  38   20   47 1
  39   20   48 1
  40   21   22 ar
  41   22   23 ar
  42   22   29 1
  43   23   24 ar
  44   23   49 1
  45   24   50 1
  46   25   26 1
  47   25   51 1
  48   25   52 1
  49   26   27 1
  50   26   53 1
  51   26   54 1
  52   27   28 1
  53   27   55 1
  54   27   56 1
  55   28   57 1
  56   28   58 1
  57   29   30 1
  58   29   34 1
  59   30   31 1
  60   30   59 1
  61   30   60 1
  62   31   32 1
  63   31   61 1
  64   31   62 1
  65   32   33 1
  66   33   34 1
  67   33   63 1
  68   33   64 1
  69   34   65 1
  70   34   66 1

#	End of record

