#	Name: ASD11830001
#	Creating user name:	WinNT
#	Creation time:	15. 06. 2019 21:29

#	Modifying user name:	WinNT
#	Modification time:	15. 06. 2019 21:29

#	Program:	/corina/corina34_cracker 3.40 0067  02.08.2006

@<TRIPOS>MOLECULE
ASD11830001
 248  255    0    0    0
SMALL
NO_CHARGES


@<TRIPOS>ATOM
   1 N1            -1.7223     7.8676    -3.3550 N.am    
   2 C2            -2.5000     6.9103    -3.8994 C.2     
   3 C3            -3.8685     7.2605    -4.4204 C.3     
   4 O4            -2.0976     5.7684    -3.9697 O.2     
   5 C5            -3.8768     7.1536    -5.9236 C.ar    
   6 C6            -3.7598     8.2926    -6.6981 C.ar    
   7 C7            -3.7675     8.1947    -8.0770 C.ar    
   8 C8            -3.8917     6.9576    -8.6813 C.ar    
   9 C9            -4.0077     5.8185    -7.9068 C.ar    
  10 C10           -3.9957     5.9161    -6.5279 C.ar    
  11 C11           -0.3507     7.5687    -2.9446 C.3     
  12 C12           -0.3423     6.9762    -1.5604 C.2     
  13 C13            0.2670     6.5717    -3.9271 C.3     
  14 C14            0.1397     7.1142    -5.3520 C.3     
  15 O15            1.6478     6.3842    -3.6104 O.3     
  16 O16           -1.0770     6.0528    -1.2804 O.2     
  17 N17            0.5066     7.4956    -0.6261 N.am    
  18 C18            0.5195     6.8085     0.6831 C.3     
  19 C19            0.0799     7.7784     1.7490 C.2     
  20 N20            0.0388     7.3542     3.0423 N.am    
  21 O21           -0.2308     8.9148     1.4609 O.2     
  22 C22           -0.4028     8.3364     4.0527 C.3     
  23 C23            0.8177     9.0248     4.6670 C.3     
  24 C24            0.3547    10.1225     5.6270 C.3     
  25 C25            1.5695    10.7288     6.3324 C.3     
  26 C26           -0.3754    11.2131     4.8407 C.3     
  27 C27           -1.1691     7.6109     5.1290 C.2     
  28 N28           -2.1824     8.2615     5.7715 N.am    
  29 O29           -0.8899     6.4669     5.4193 O.2     
  30 C30           -2.8968     7.4750     6.7999 C.3     
  31 C31           -4.2941     8.0217     6.9430 C.2     
  32 C32           -2.9613     6.0078     6.3708 C.3     
  33 N33           -5.3429     7.1551     6.9822 N.am    
  34 O34           -4.4813     9.2173     7.0225 O.2     
  35 C35           -6.6853     7.7470     7.1428 C.3     
  36 C36           -7.6168     6.7312     7.8070 C.3     
  37 C37           -6.3417     5.4377     9.5905 C.2     
  38 C38           -7.1362     6.4495     9.2073 C.2     
  39 N39           -6.1188     5.5046    10.9388 N.pl3   
  40 C40           -6.7813     6.5886    11.4696 C.ar    
  41 C41           -7.4476     7.2280    10.4085 C.ar    
  42 C42           -8.2095     8.3723    10.6529 C.ar    
  43 C43           -8.3039     8.8657    11.9235 C.ar    
  44 C44           -7.6482     8.2383    12.9741 C.ar    
  45 C45           -6.8917     7.1081    12.7555 C.ar    
  46 C46           -7.2250     8.1134     5.7841 C.2     
  47 N47           -8.5428     7.8857     5.5151 N.am    
  48 O48           -6.4999     8.6028     4.9441 O.2     
  49 C49           -8.9997     8.2750     4.1629 C.3     
  50 C50           -9.8410     7.1367     3.5827 C.3     
  51 C51           -9.8350     9.5261     4.2522 C.2     
  52 C52          -10.0616     7.3759     2.0880 C.3     
  53 C53          -10.6336     6.1309     1.4603 C.2     
  54 N54          -10.3433     5.8430     0.1627 N.am    
  55 O55          -11.3460     5.3919     2.1063 O.2     
  56 C56           -9.4667     6.7929    -0.5490 C.3     
  57 C57           -8.5422     6.0196    -1.4532 C.2     
  58 C58          -10.3194     7.7495    -1.3850 C.3     
  59 C59          -11.2354     8.5555    -0.4619 C.3     
  60 C60          -12.0186     9.5786    -1.2870 C.3     
  61 N61          -12.8418    10.3984    -0.3946 N.pl3   
  62 C62          -13.5482    11.4652    -0.8977 C.2     
  63 N63          -13.4020    11.8261    -2.2163 N.pl3   
  64 N64          -14.3566    12.1344    -0.1247 N.2     
  65 O65           -8.1492     4.9177    -1.1333 O.2     
  66 N66           -8.1535     6.5754    -2.6367 N.am    
  67 C67           -7.2386     5.7559    -3.4637 C.3     
  68 C68           -6.5952     4.6711    -2.5977 C.3     
  69 C69           -5.8980     5.3209    -1.4007 C.3     
  70 C70           -5.2190     4.2574    -0.5768 C.2     
  71 O71           -5.2858     3.0986    -0.9124 O.2     
  72 O72           -4.5399     4.5974     0.5300 O.3     
  73 C73           -6.1689     6.6554    -4.0261 C.2     
  74 N74           -4.8603     6.3258    -3.8548 N.am    
  75 O75           -6.4719     7.6647    -4.6265 O.2     
  76 O76          -10.4026     9.8036     5.2875 O.2     
  77 N77           -9.9512    10.3367     3.1817 N.am    
  78 C78          -10.6957    11.5936     3.2920 C.3     
  79 C79          -10.1306    12.5989     2.3220 C.2     
  80 N80           -9.1265    12.2466     1.4949 N.am    
  81 C81          -12.1696    11.3436     2.9666 C.3     
  82 O82          -10.5793    13.7251     2.2856 O.2     
  83 C83          -12.7631    10.4219     4.0007 C.2     
  84 C84          -12.8840     9.0883     3.9065 C.2     
  85 N85          -13.4705     8.5920     5.0387 N.pl3   
  86 C86          -13.3117    10.8107     5.3021 C.ar    
  87 C87          -13.7483     9.6202     5.9112 C.ar    
  88 C88          -14.3240     9.6734     7.1767 C.ar    
  89 C89          -14.4594    10.8859     7.8163 C.ar    
  90 C90          -14.0269    12.0580     7.2109 C.ar    
  91 C91          -13.4616    12.0292     5.9674 C.ar    
  92 C92           -8.6662    13.1790     0.4629 C.3     
  93 C93           -8.2208    12.4049    -0.7509 C.2     
  94 O94           -8.2960    11.1945    -0.7595 O.2     
  95 C95           -7.4932    13.9994     1.0033 C.3     
  96 C96           -7.9602    14.8391     2.1643 C.2     
  97 C97           -8.4265    16.0965     2.1038 C.2     
  98 N98           -8.7537    16.5335     3.3584 N.pl3   
  99 C99           -7.9974    14.4359     3.5721 C.ar    
 100 C100          -8.4996    15.5428     4.2802 C.ar    
 101 C101          -8.6508    15.4573     5.6606 C.ar    
 102 C102          -8.3087    14.2948     6.3156 C.ar    
 103 C103          -7.8135    13.2051     5.6121 C.ar    
 104 C104          -7.6540    13.2684     4.2567 C.ar    
 105 N105          -7.7387    13.0577    -1.8270 N.am    
 106 C106          -7.4185    12.3176    -3.0500 C.3     
 107 C107          -6.0196    11.7102    -2.9271 C.3     
 108 C108          -5.9946    10.7188    -1.7621 C.3     
 109 C109          -4.5813    10.1549    -1.6024 C.3     
 110 N110          -4.5776     9.1375    -0.5484 N.pl3   
 111 C111          -3.3976     8.5393    -0.1745 C.2     
 112 N112          -2.2096     8.9587    -0.7250 N.pl3   
 113 N113          -3.4050     7.5745     0.7019 N.2     
 114 C114          -7.4572    13.2551    -4.2293 C.2     
 115 O115          -7.7259    14.4262    -4.0643 O.2     
 116 N116          -7.1933    12.7922    -5.4672 N.am    
 117 C117          -7.2309    13.7036    -6.6136 C.3     
 118 C118          -7.5162    12.9202    -7.8690 C.2     
 119 C119          -5.8802    14.4093    -6.7486 C.3     
 120 C120          -4.7659    13.3648    -6.8397 C.3     
 121 O121          -5.6611    15.2411    -5.6075 O.3     
 122 N122          -7.5897    13.5535    -9.0564 N.am    
 123 O123          -7.6796    11.7199    -7.8108 O.2     
 124 C124          -7.9620    12.8089   -10.2619 C.3     
 125 C125          -8.5604    13.7543   -11.2715 C.2     
 126 N126          -8.9787    13.2889   -12.4652 N.am    
 127 O127          -8.6655    14.9339   -11.0098 O.2     
 128 C128          -6.7175    12.1476   -10.8575 C.3     
 129 C129          -5.6439    13.2096   -11.1036 C.3     
 130 C130          -6.1819    11.0973    -9.8823 C.3     
 131 H131          -2.0743     8.7638    -3.2382 H       
 132 H132          -4.1197     8.2797    -4.1268 H       
 133 H133          -3.6628     9.2591    -6.2260 H       
 134 H134          -3.6768     9.0846    -8.6821 H       
 135 H135          -3.8984     6.8811    -9.7586 H       
 136 H136          -4.1051     4.8521    -8.3789 H       
 137 H137          -4.0827     5.0258    -5.9228 H       
 138 H138           0.2359     8.4874    -2.9482 H       
 139 H139          -0.2555     5.6179    -3.8534 H       
 140 H140           0.6621     8.0680    -5.4256 H       
 141 H141           0.5798     6.4039    -6.0519 H       
 142 H142          -0.9136     7.2573    -5.5935 H       
 143 H143           2.1751     7.1934    -3.6557 H       
 144 H144           1.0662     8.2664    -0.8096 H       
 145 H145          -0.1647     5.9604     0.6568 H       
 146 H146           1.5285     6.4588     0.9016 H       
 147 H147           0.2875     6.4495     3.2882 H       
 148 H148          -1.0447     9.0813     3.5825 H       
 149 H149           1.4120     8.2918     5.2126 H       
 150 H150           1.4228     9.4662     3.8751 H       
 151 H151          -0.3204     9.6955     6.3686 H       
 152 H152           2.2447    11.1558     5.5908 H       
 153 H153           1.2397    11.5108     7.0164 H       
 154 H154           2.0897     9.9518     6.8926 H       
 155 H155          -1.2904    10.8025     4.4139 H       
 156 H156          -0.6241    12.0378     5.5086 H       
 157 H157           0.2683    11.5760     4.0394 H       
 158 H158          -2.4183     9.1799     5.5670 H       
 159 H159          -2.3729     7.5570     7.7522 H       
 160 H160          -2.0223     5.5143     6.6215 H       
 161 H161          -3.7819     5.5130     6.8903 H       
 162 H162          -3.1257     5.9508     5.2947 H       
 163 H163          -5.2144     6.1964     6.9087 H       
 164 H164          -6.6181     8.6406     7.7634 H       
 165 H165          -8.6282     7.1359     7.8445 H       
 166 H166          -7.6166     5.8065     7.2299 H       
 167 H167          -5.9414     4.6804     8.9327 H       
 168 H168          -5.5752     4.8810    11.4454 H       
 169 H169          -8.7220     8.8659     9.8405 H       
 170 H170          -8.8930     9.7510    12.1120 H       
 171 H171          -7.7324     8.6402    13.9730 H       
 172 H172          -6.3856     6.6271    13.5795 H       
 173 H173          -9.1423     7.4931     6.1689 H       
 174 H174          -8.1359     8.4543     3.5227 H       
 175 H175          -9.3197     6.1902     3.7261 H       
 176 H176         -10.8045     7.1014     4.0912 H       
 177 H177         -10.7568     8.2042     1.9512 H       
 178 H178          -9.1102     7.6176     1.6143 H       
 179 H179         -10.6953     5.0513    -0.2734 H       
 180 H180          -8.8804     7.3604     0.1736 H       
 181 H181          -9.6691     8.4293    -1.9355 H       
 182 H182         -10.9247     7.1768    -2.0878 H       
 183 H183         -11.9317     7.8819     0.0376 H       
 184 H184         -10.6336     9.0745     0.2842 H       
 185 H185         -11.3219    10.2184    -1.8286 H       
 186 H186         -12.6607     9.0576    -1.9972 H       
 187 H187         -12.8885    10.1886     0.5513 H       
 188 H188         -12.8004    11.3280    -2.7916 H       
 189 H189         -13.9003    12.5787    -2.5713 H       
 190 H190         -14.8550    12.8871    -0.4797 H       
 191 H191          -8.4576     7.4522    -2.9189 H       
 192 H192          -7.7965     5.2921    -4.2772 H       
 193 H193          -7.3648     3.9861    -2.2420 H       
 194 H194          -5.8638     4.1203    -3.1891 H       
 195 H195          -5.1549     6.0345    -1.7565 H       
 196 H196          -6.6356     5.8394    -0.7882 H       
 197 H197          -4.1212     3.8805     1.0258 H       
 198 H198          -4.5935     5.5196    -3.3860 H       
 199 H199          -9.5420    10.0878     2.3382 H       
 200 H200         -10.6083    11.9797     4.3076 H       
 201 H201          -8.7087    11.3756     1.5828 H       
 202 H202         -12.7087    12.2909     2.9720 H       
 203 H203         -12.2514    10.8847     1.9813 H       
 204 H204         -12.5658     8.4951     3.0620 H       
 205 H205         -13.6622     7.6553     5.2022 H       
 206 H206         -14.6639     8.7671     7.6558 H       
 207 H207         -14.9068    10.9251     8.7984 H       
 208 H208         -14.1407    13.0004     7.7259 H       
 209 H209         -13.1301    12.9454     5.5014 H       
 210 H210          -9.4815    13.8482     0.1880 H       
 211 H211          -6.7024    13.3271     1.3361 H       
 212 H212          -7.1106    14.6487     0.2159 H       
 213 H213          -8.5279    16.6772     1.1989 H       
 214 H214          -9.1112    17.4107     3.5674 H       
 215 H215          -9.0348    16.2996     6.2168 H       
 216 H216          -8.4264    14.2305     7.3872 H       
 217 H217          -7.5496    12.3011     6.1409 H       
 218 H218          -7.2656    12.4178     3.7164 H       
 219 H219          -7.6038    14.0177    -1.7917 H       
 220 H220          -8.1488    11.5215    -3.1947 H       
 221 H221          -5.7663    11.1911    -3.8515 H       
 222 H222          -5.2940    12.5030    -2.7451 H       
 223 H223          -6.2881    11.2288    -0.8446 H       
 224 H224          -6.6902     9.9041    -1.9633 H       
 225 H225          -4.2611     9.7055    -2.5424 H       
 226 H226          -3.8974    10.9597    -1.3329 H       
 227 H227          -5.4078     8.8858    -0.1143 H       
 228 H228          -2.2114     9.6097    -1.4441 H       
 229 H229          -1.3697     8.6037    -0.3942 H       
 230 H230          -2.5834     7.1036     0.9118 H       
 231 H231          -6.9784    11.8555    -5.5991 H       
 232 H232          -8.0150    14.4455    -6.4623 H       
 233 H233          -5.8787    15.0217    -7.6503 H       
 234 H234          -4.9330    12.7303    -7.7101 H       
 235 H235          -3.8036    13.8675    -6.9359 H       
 236 H236          -4.7673    12.7524    -5.9380 H       
 237 H237          -6.3682    15.8806    -5.4454 H       
 238 H238          -7.3961    14.5023    -9.1128 H       
 239 H239          -8.6927    12.0423   -10.0042 H       
 240 H240          -8.8946    12.3455   -12.6745 H       
 241 H241          -9.3639    13.8974   -13.1150 H       
 242 H242          -6.9773    11.6681   -11.8013 H       
 243 H243          -5.3841    13.6891   -10.1599 H       
 244 H244          -4.7573    12.7384   -11.5280 H       
 245 H245          -6.0255    13.9578   -11.7984 H       
 246 H246          -5.9220    11.5768    -8.9386 H       
 247 H247          -6.9467    10.3408    -9.7070 H       
 248 H248          -5.2953    10.6262   -10.3067 H       
@<TRIPOS>BOND
   1    1    2 am
   2    1   11 1
   3    1  131 1
   4    2    3 1
   5    2    4 2
   6    3    5 1
   7    3   74 1
   8    3  132 1
   9    5    6 ar
  10    5   10 ar
  11    6    7 ar
  12    6  133 1
  13    7    8 ar
  14    7  134 1
  15    8    9 ar
  16    8  135 1
  17    9   10 ar
  18    9  136 1
  19   10  137 1
  20   11   12 1
  21   11   13 1
  22   11  138 1
  23   12   16 2
  24   12   17 am
  25   13   14 1
  26   13   15 1
  27   13  139 1
  28   14  140 1
  29   14  141 1
  30   14  142 1
  31   15  143 1
  32   17   18 1
  33   17  144 1
  34   18   19 1
  35   18  145 1
  36   18  146 1
  37   19   20 am
  38   19   21 2
  39   20   22 1
  40   20  147 1
  41   22   23 1
  42   22   27 1
  43   22  148 1
  44   23   24 1
  45   23  149 1
  46   23  150 1
  47   24   25 1
  48   24   26 1
  49   24  151 1
  50   25  152 1
  51   25  153 1
  52   25  154 1
  53   26  155 1
  54   26  156 1
  55   26  157 1
  56   27   28 am
  57   27   29 2
  58   28   30 1
  59   28  158 1
  60   30   31 1
  61   30   32 1
  62   30  159 1
  63   31   33 am
  64   31   34 2
  65   32  160 1
  66   32  161 1
  67   32  162 1
  68   33   35 1
  69   33  163 1
  70   35   36 1
  71   35   46 1
  72   35  164 1
  73   36   38 1
  74   36  165 1
  75   36  166 1
  76   37   38 2
  77   37   39 1
  78   37  167 1
  79   38   41 1
  80   39   40 1
  81   39  168 1
  82   40   41 ar
  83   40   45 ar
  84   41   42 ar
  85   42   43 ar
  86   42  169 1
  87   43   44 ar
  88   43  170 1
  89   44   45 ar
  90   44  171 1
  91   45  172 1
  92   46   47 am
  93   46   48 2
  94   47   49 1
  95   47  173 1
  96   49   50 1
  97   49   51 1
  98   49  174 1
  99   50   52 1
 100   50  175 1
 101   50  176 1
 102   51   76 2
 103   51   77 am
 104   52   53 1
 105   52  177 1
 106   52  178 1
 107   53   54 am
 108   53   55 2
 109   54   56 1
 110   54  179 1
 111   56   57 1
 112   56   58 1
 113   56  180 1
 114   57   65 2
 115   57   66 am
 116   58   59 1
 117   58  181 1
 118   58  182 1
 119   59   60 1
 120   59  183 1
 121   59  184 1
 122   60   61 1
 123   60  185 1
 124   60  186 1
 125   61   62 1
 126   61  187 1
 127   62   63 1
 128   62   64 2
 129   63  188 1
 130   63  189 1
 131   64  190 1
 132   66   67 1
 133   66  191 1
 134   67   68 1
 135   67   73 1
 136   67  192 1
 137   68   69 1
 138   68  193 1
 139   68  194 1
 140   69   70 1
 141   69  195 1
 142   69  196 1
 143   70   71 2
 144   70   72 1
 145   72  197 1
 146   73   74 am
 147   73   75 2
 148   74  198 1
 149   77   78 1
 150   77  199 1
 151   78   79 1
 152   78   81 1
 153   78  200 1
 154   79   80 am
 155   79   82 2
 156   80   92 1
 157   80  201 1
 158   81   83 1
 159   81  202 1
 160   81  203 1
 161   83   84 2
 162   83   86 1
 163   84   85 1
 164   84  204 1
 165   85   87 1
 166   85  205 1
 167   86   87 ar
 168   86   91 ar
 169   87   88 ar
 170   88   89 ar
 171   88  206 1
 172   89   90 ar
 173   89  207 1
 174   90   91 ar
 175   90  208 1
 176   91  209 1
 177   92   93 1
 178   92   95 1
 179   92  210 1
 180   93   94 2
 181   93  105 am
 182   95   96 1
 183   95  211 1
 184   95  212 1
 185   96   97 2
 186   96   99 1
 187   97   98 1
 188   97  213 1
 189   98  100 1
 190   98  214 1
 191   99  100 ar
 192   99  104 ar
 193  100  101 ar
 194  101  102 ar
 195  101  215 1
 196  102  103 ar
 197  102  216 1
 198  103  104 ar
 199  103  217 1
 200  104  218 1
 201  105  106 1
 202  105  219 1
 203  106  107 1
 204  106  114 1
 205  106  220 1
 206  107  108 1
 207  107  221 1
 208  107  222 1
 209  108  109 1
 210  108  223 1
 211  108  224 1
 212  109  110 1
 213  109  225 1
 214  109  226 1
 215  110  111 1
 216  110  227 1
 217  111  112 1
 218  111  113 2
 219  112  228 1
 220  112  229 1
 221  113  230 1
 222  114  115 2
 223  114  116 am
 224  116  117 1
 225  116  231 1
 226  117  118 1
 227  117  119 1
 228  117  232 1
 229  118  122 am
 230  118  123 2
 231  119  120 1
 232  119  121 1
 233  119  233 1
 234  120  234 1
 235  120  235 1
 236  120  236 1
 237  121  237 1
 238  122  124 1
 239  122  238 1
 240  124  125 1
 241  124  128 1
 242  124  239 1
 243  125  126 am
 244  125  127 2
 245  126  240 1
 246  126  241 1
 247  128  129 1
 248  128  130 1
 249  128  242 1
 250  129  243 1
 251  129  244 1
 252  129  245 1
 253  130  246 1
 254  130  247 1
 255  130  248 1

#	End of record

