#	Name: ASD11000028
#	Creating user name:	WinNT
#	Creation time:	15. 06. 2019 21:28

#	Modifying user name:	WinNT
#	Modification time:	15. 06. 2019 21:28

#	Program:	/corina/corina34_cracker 3.40 0067  02.08.2006

@<TRIPOS>MOLECULE
ASD11000028
  61   64    0    0    0
SMALL
NO_CHARGES


@<TRIPOS>ATOM
   1 C1            -1.4259    -0.0276    -0.5447 C.ar    
   2 C2            -0.9179    -1.2920    -0.3176 C.ar    
   3 C3             0.4531    -1.5026    -0.3442 C.ar    
   4 C4             1.3106    -0.4422    -0.5989 C.ar    
   5 C5             0.7976     0.8203    -0.8254 C.ar    
   6 C6            -0.5691     1.0276    -0.7983 C.ar    
   7 C7            -1.1260     2.4059    -1.0457 C.3     
   8 O8             0.9553    -2.7455    -0.1206 O.3     
   9 C9             2.3765    -2.8883    -0.1633 C.3     
  10 C10            2.7509    -4.3464     0.1098 C.3     
  11 N11            2.2582    -4.7369     1.4349 N.am    
  12 C12            2.1304    -5.2296    -0.9437 C.ar    
  13 C13            1.4300    -6.3727    -0.6274 C.ar    
  14 C14            2.2858    -4.8568    -2.2721 C.ar    
  15 C15            0.8946    -7.1543    -1.6443 C.ar    
  16 C16            1.0501    -6.7897    -2.9687 C.ar    
  17 C17            1.7489    -5.6289    -3.2862 C.ar    
  18 C18            2.2064    -6.1764     1.7393 C.3     
  19 C19            1.1961    -6.8208     0.7916 C.3     
  20 C20            1.8690    -3.8150     2.3378 C.2     
  21 O21            2.0317    -2.6326     2.1078 O.2     
  22 O22            1.9040    -5.2568    -4.5850 O.3     
  23 C23            2.6333    -4.0531    -4.8324 C.3     
  24 O24            0.5224    -7.5613    -3.9564 O.3     
  25 C25           -0.1822    -8.7377    -3.5542 C.3     
  26 C26            1.2441    -4.2419     3.6079 C.ar    
  27 C27            1.3751    -3.4546     4.7529 C.ar    
  28 C28            0.5158    -5.4312     3.6657 C.ar    
  29 C29           -0.0651    -5.8236     4.8538 C.ar    
  30 C30            0.0729    -5.0411     5.9865 C.ar    
  31 C31            0.7892    -3.8585     5.9347 C.ar    
  32 C32           -1.3852     2.5902    -2.5423 C.3     
  33 H33           -2.4933     0.1360    -0.5286 H       
  34 H34           -1.5875    -2.1158    -0.1192 H       
  35 H35            2.3783    -0.6035    -0.6197 H       
  36 H36            1.4648     1.6462    -1.0233 H       
  37 H37           -2.0609     2.5239    -0.4978 H       
  38 H38           -0.4092     3.1537    -0.7064 H       
  39 H39            2.7414    -2.5978    -1.1484 H       
  40 H40            2.8288    -2.2489     0.5948 H       
  41 H41            3.8352    -4.4541     0.0798 H       
  42 H42            2.8302    -3.9563    -2.5155 H       
  43 H43            0.3523    -8.0551    -1.3976 H       
  44 H44            3.1900    -6.6211     1.5877 H       
  45 H45            1.8895    -6.3239     2.7718 H       
  46 H46            0.1884    -6.5376     1.0954 H       
  47 H47            1.2946    -7.9050     0.8459 H       
  48 H48            2.1304    -3.2171    -4.3464 H       
  49 H49            3.6429    -4.1515    -4.4334 H       
  50 H50            2.6830    -3.8726    -5.9062 H       
  51 H51            0.4901    -9.3919    -2.9991 H       
  52 H52           -1.0233    -8.4584    -2.9197 H       
  53 H53           -0.5507    -9.2602    -4.4370 H       
  54 H54            1.9343    -2.5314     4.7138 H       
  55 H55            0.4070    -6.0427     2.7821 H       
  56 H56           -0.6293    -6.7434     4.8999 H       
  57 H57           -0.3838    -5.3528     6.9142 H       
  58 H58            0.8935    -3.2524     6.8225 H       
  59 H59           -0.4503     2.4723    -3.0902 H       
  60 H60           -2.1020     1.8424    -2.8816 H       
  61 H61           -1.7879     3.5871    -2.7212 H       
@<TRIPOS>BOND
   1    1    2 ar
   2    1    6 ar
   3    1   33 1
   4    2    3 ar
   5    2   34 1
   6    3    4 ar
   7    3    8 1
   8    4    5 ar
   9    4   35 1
  10    5    6 ar
  11    5   36 1
  12    6    7 1
  13    7   32 1
  14    7   37 1
  15    7   38 1
  16    8    9 1
  17    9   10 1
  18    9   39 1
  19    9   40 1
  20   10   11 1
  21   10   12 1
  22   10   41 1
  23   11   18 1
  24   11   20 am
  25   12   13 ar
  26   12   14 ar
  27   13   15 ar
  28   13   19 1
  29   14   17 ar
  30   14   42 1
  31   15   16 ar
  32   15   43 1
  33   16   17 ar
  34   16   24 1
  35   17   22 1
  36   18   19 1
  37   18   44 1
  38   18   45 1
  39   19   46 1
  40   19   47 1
  41   20   21 2
  42   20   26 1
  43   22   23 1
  44   23   48 1
  45   23   49 1
  46   23   50 1
  47   24   25 1
  48   25   51 1
  49   25   52 1
  50   25   53 1
  51   26   27 ar
  52   26   28 ar
  53   27   31 ar
  54   27   54 1
  55   28   29 ar
  56   28   55 1
  57   29   30 ar
  58   29   56 1
  59   30   31 ar
  60   30   57 1
  61   31   58 1
  62   32   59 1
  63   32   60 1
  64   32   61 1

#	End of record

