#	Name: ASD10610030
#	Creating user name:	WinNT
#	Creation time:	15. 06. 2019 21:27

#	Modifying user name:	WinNT
#	Modification time:	15. 06. 2019 21:27

#	Program:	/corina/corina34_cracker 3.40 0067  02.08.2006

@<TRIPOS>MOLECULE
ASD10610030
  56   60    0    0    0
SMALL
NO_CHARGES


@<TRIPOS>ATOM
   1 C1            -0.2430     1.6183    -0.1681 C.ar    
   2 C2            -0.3349     0.2273    -0.1744 C.ar    
   3 C3             0.8240    -0.5403    -0.1065 C.ar    
   4 C4             2.0657     0.0774    -0.0323 C.ar    
   5 C5             2.1482     1.4604    -0.0306 C.ar    
   6 C6             0.9936     2.2241    -0.0969 C.ar    
   7 C7             3.4790     2.1667     0.0372 C.3     
   8 C8            -1.6610    -0.4312    -0.2525 C.ar    
   9 C9            -1.8895    -1.4342    -1.1899 C.ar    
  10 C10           -3.1267    -2.0462    -1.2603 C.ar    
  11 C11           -4.1449    -1.6675    -0.4016 C.ar    
  12 C12           -3.9344    -0.6726     0.5356 C.ar    
  13 C13           -2.6902    -0.0502     0.6224 C.ar    
  14 F14           -4.9324    -0.3078     1.3699 F       
  15 Cl15          -3.4058    -3.2963    -2.4321 Cl      
  16 C16           -2.4591     1.0171     1.6255 C.2     
  17 N17           -1.3214     1.6994     1.8216 N.2     
  18 N18           -1.5356     2.5329     2.7823 N.2     
  19 N19           -2.7495     2.3990     3.1893 N.pl3   
  20 N20           -3.3339     1.4843     2.4947 N.2     
  21 N21            3.3798     3.3066     0.9521 N.am    
  22 C22            2.9190     4.4916     0.5049 C.2     
  23 O23            2.6730     4.6410    -0.6733 O.2     
  24 C24            2.7095     5.6309     1.4688 C.3     
  25 N25            3.6742     5.7140     2.5681 N.am    
  26 C26            2.1694     6.9455     0.9020 C.3     
  27 C27            1.2683     6.0539     1.7601 C.3     
  28 C28            4.9927     5.8009     2.3026 C.2     
  29 C29            5.9916     5.7783     3.4307 C.3     
  30 O30            5.3753     5.8972     1.1557 O.2     
  31 F31            7.2859     5.8810     2.9097 F       
  32 F32            5.7484     6.8548     4.2906 F       
  33 F33            5.8680     4.5784     4.1392 F       
  34 C34           -3.3710     3.1699     4.2690 C.3     
  35 O35            3.1735    -0.7056     0.0439 O.3     
  36 C36            4.4360    -0.1072    -0.2523 C.3     
  37 C37            4.5512     1.1990     0.5437 C.3     
  38 H38           -1.1381     2.2201    -0.2234 H       
  39 H39            0.7577    -1.6183    -0.1113 H       
  40 H40            1.0630     3.3019    -0.0927 H       
  41 H41            3.7521     2.5219    -0.9565 H       
  42 H42           -1.0999    -1.7342    -1.8628 H       
  43 H43           -5.1085    -2.1513    -0.4644 H       
  44 H44            3.6457     3.2085     1.8798 H       
  45 H45            3.3641     5.7064     3.4872 H       
  46 H46            2.5315     7.8721     1.3474 H       
  47 H47            1.9656     6.9862    -0.1680 H       
  48 H48            0.4716     5.5083     1.2544 H       
  49 H49            1.0379     6.3942     2.7696 H       
  50 H50           -3.8317     4.0673     3.8561 H       
  51 H51           -4.1329     2.5622     4.7573 H       
  52 H52           -2.6110     3.4536     4.9969 H       
  53 H53            5.2399    -0.7847     0.0356 H       
  54 H54            4.4997     0.1063    -1.3193 H       
  55 H55            5.5392     1.6343     0.3942 H       
  56 H56            4.3940     0.9984     1.6035 H       
@<TRIPOS>BOND
   1    1    2 ar
   2    1    6 ar
   3    1   38 1
   4    2    3 ar
   5    2    8 1
   6    3    4 ar
   7    3   39 1
   8    4    5 ar
   9    4   35 1
  10    5    6 ar
  11    5    7 1
  12    6   40 1
  13    7   21 1
  14    7   37 1
  15    7   41 1
  16    8    9 ar
  17    8   13 ar
  18    9   10 ar
  19    9   42 1
  20   10   11 ar
  21   10   15 1
  22   11   12 ar
  23   11   43 1
  24   12   13 ar
  25   12   14 1
  26   13   16 1
  27   16   17 1
  28   16   20 2
  29   17   18 2
  30   18   19 1
  31   19   20 1
  32   19   34 1
  33   21   22 am
  34   21   44 1
  35   22   23 2
  36   22   24 1
  37   24   25 1
  38   24   26 1
  39   24   27 1
  40   25   28 am
  41   25   45 1
  42   26   27 1
  43   26   46 1
  44   26   47 1
  45   27   48 1
  46   27   49 1
  47   28   29 1
  48   28   30 2
  49   29   31 1
  50   29   32 1
  51   29   33 1
  52   34   50 1
  53   34   51 1
  54   34   52 1
  55   35   36 1
  56   36   37 1
  57   36   53 1
  58   36   54 1
  59   37   55 1
  60   37   56 1

#	End of record

