#	Name: ASD13490040
#	Creating user name:	WinNT
#	Creation time:	15. 06. 2019 21:30

#	Modifying user name:	WinNT
#	Modification time:	15. 06. 2019 21:30

#	Program:	/corina/corina34_cracker 3.40 0067  02.08.2006

@<TRIPOS>MOLECULE
ASD13490040
  57   61    0    0    0
SMALL
NO_CHARGES


@<TRIPOS>ATOM
   1 C1             0.0540     1.1322    -0.2678 C.ar    
   2 C2             0.0083     0.0975     0.6638 C.ar    
   3 C3             1.1532    -0.2568     1.3629 C.ar    
   4 C4             2.3376     0.4156     1.1365 C.ar    
   5 C5             2.3862     1.4480     0.2078 C.ar    
   6 C6             1.2430     1.8054    -0.4943 C.ar    
   7 N7            -1.1958    -0.5862     0.8955 N.pl3   
   8 C8            -1.3951    -1.6006     1.7584 C.2     
   9 N9            -2.6511    -1.9604     1.6779 N.2     
  10 C10           -3.2815    -1.2041     0.7806 C.2     
  11 N11           -2.4338    -0.3442     0.2779 N.2     
  12 C12           -4.7375    -1.3173     0.4087 C.3     
  13 O13           -1.0653     1.4769    -0.9577 O.3     
  14 C14           -0.9447     2.5471    -1.8969 C.3     
  15 N15            3.5875     2.1277    -0.0198 N.pl3   
  16 C16            4.7932     1.4520     0.0700 C.ar    
  17 C17            7.1342     0.1577     0.2416 C.ar    
  18 C18            5.9263    -0.5356     0.3472 C.ar    
  19 N19            4.7856     0.1405     0.2571 N.ar    
  20 N20            5.9239     2.1329    -0.0386 N.ar    
  21 C21            8.5671    -0.3168     0.3069 C.3     
  22 C22            7.0988     1.5221     0.0419 C.ar    
  23 C23            8.5083     2.0635    -0.0408 C.3     
  24 C24            9.3999     0.8309    -0.3045 C.3     
  25 C25            8.6251     3.0461    -1.1775 C.ar    
  26 C26            9.0264     4.3455    -0.9287 C.ar    
  27 C27            9.1344     5.2473    -1.9703 C.ar    
  28 C28            8.8403     4.8491    -3.2634 C.ar    
  29 C29            8.4384     3.5475    -3.5113 C.ar    
  30 C30            8.3363     2.6460    -2.4688 C.ar    
  31 N31            5.9175    -1.9062     0.5478 N.pl3   
  32 C32            4.6441    -2.6223     0.6569 C.3     
  33 F33            8.9450     5.7299    -4.2824 F       
  34 H34            1.1177    -1.0589     2.0852 H       
  35 H35            3.2276     0.1389     1.6821 H       
  36 H36            1.2809     2.6076    -1.2163 H       
  37 H37           -0.6492    -2.0404     2.4039 H       
  38 H38           -5.3293    -0.6701     1.0561 H       
  39 H39           -4.8721    -1.0137    -0.6295 H       
  40 H40           -5.0644    -2.3500     0.5306 H       
  41 H41           -1.9080     2.7196    -2.3769 H       
  42 H42           -0.6303     3.4525    -1.3777 H       
  43 H43           -0.2038     2.2858    -2.6525 H       
  44 H44            3.5761     3.0721    -0.2406 H       
  45 H45            8.8621    -0.4884     1.3421 H       
  46 H46            8.6910    -1.2277    -0.2787 H       
  47 H47            8.7871     2.5377     0.9002 H       
  48 H48           10.3579     0.9292     0.2061 H       
  49 H49            9.5436     0.6782    -1.3742 H       
  50 H50            9.2554     4.6560     0.0800 H       
  51 H51            9.4476     6.2624    -1.7757 H       
  52 H52            8.2088     3.2357    -4.5195 H       
  53 H53            8.0268     1.6296    -2.6625 H       
  54 H54            6.7544    -2.3919     0.6160 H       
  55 H55            4.0712    -2.4867    -0.2604 H       
  56 H56            4.8364    -3.6840     0.8116 H       
  57 H57            4.0772    -2.2290     1.5008 H       
@<TRIPOS>BOND
   1    1    2 ar
   2    1    6 ar
   3    1   13 1
   4    2    3 ar
   5    2    7 1
   6    3    4 ar
   7    3   34 1
   8    4    5 ar
   9    4   35 1
  10    5    6 ar
  11    5   15 1
  12    6   36 1
  13    7    8 1
  14    7   11 1
  15    8    9 2
  16    8   37 1
  17    9   10 1
  18   10   11 2
  19   10   12 1
  20   12   38 1
  21   12   39 1
  22   12   40 1
  23   13   14 1
  24   14   41 1
  25   14   42 1
  26   14   43 1
  27   15   16 1
  28   15   44 1
  29   16   20 ar
  30   16   19 ar
  31   17   18 ar
  32   17   22 ar
  33   17   21 1
  34   18   19 ar
  35   18   31 1
  36   20   22 ar
  37   21   24 1
  38   21   45 1
  39   21   46 1
  40   22   23 1
  41   23   24 1
  42   23   25 1
  43   23   47 1
  44   24   48 1
  45   24   49 1
  46   25   26 ar
  47   25   30 ar
  48   26   27 ar
  49   26   50 1
  50   27   28 ar
  51   27   51 1
  52   28   29 ar
  53   28   33 1
  54   29   30 ar
  55   29   52 1
  56   30   53 1
  57   31   32 1
  58   31   54 1
  59   32   55 1
  60   32   56 1
  61   32   57 1

#	End of record

