#	Name: ASD11000192
#	Creating user name:	WinNT
#	Creation time:	15. 06. 2019 21:28

#	Modifying user name:	WinNT
#	Modification time:	15. 06. 2019 21:28

#	Program:	/corina/corina34_cracker 3.40 0067  02.08.2006

@<TRIPOS>MOLECULE
ASD11000192
  46   49    0    0    0
SMALL
NO_CHARGES


@<TRIPOS>ATOM
   1 N1            -0.0172     1.3215    -0.0111 N.ar    
   2 C2             0.0016    -0.0034    -0.0059 C.ar    
   3 N3             1.1403    -0.6810    -0.0153 N.ar    
   4 C4             2.3025    -0.0498    -0.0304 C.ar    
   5 C5             2.3192     1.3363    -0.0362 C.ar    
   6 C6             1.1099     2.0136    -0.0260 C.ar    
   7 C7             3.6238     2.0904    -0.0528 C.3     
   8 O8             4.0223     2.3233    -1.4052 O.3     
   9 C9             5.1877     2.9972    -1.5982 C.ar    
  10 C10            5.9266     3.4158    -0.5115 C.ar    
  11 N11           -1.1974    -0.6965     0.0102 N.pl3   
  12 C12           -1.2008    -2.0923    -0.1029 C.ar    
  13 C13           -2.1491    -2.8420     0.5799 C.ar    
  14 C14           -0.2594    -2.7267    -0.9028 C.ar    
  15 C15           -0.2636    -4.1032    -1.0150 C.ar    
  16 C16           -1.2075    -4.8526    -0.3287 C.ar    
  17 C17           -2.1520    -4.2195     0.4672 C.ar    
  18 O18           -1.2108    -6.2082    -0.4399 O.3     
  19 C19            5.6331     3.2571    -2.8947 C.ar    
  20 C20            6.8131     3.9396    -3.1082 C.ar    
  21 C21            7.5689     4.3745    -2.0258 C.ar    
  22 C22            7.1251     4.1089    -0.7160 C.ar    
  23 Cl23          -3.3332    -5.1582     1.3259 Cl      
  24 C24           -0.2138    -6.7927    -1.2803 C.3     
  25 F25           -0.3607    -6.3082    -2.5845 F       
  26 F26            1.0565    -6.4581    -0.7989 F       
  27 F27            4.9026     2.8364    -3.9505 F       
  28 N28            8.7518     5.0592    -2.2184 N.am    
  29 C29            9.4848     5.4809    -1.1733 C.2     
  30 C30            9.0814     5.2447     0.1573 C.2     
  31 C31            7.9308     4.5732     0.4138 C.2     
  32 O32           10.5245     6.0824    -1.3810 O.2     
  33 H33            3.2273    -0.6075    -0.0376 H       
  34 H34            1.0881     3.0934    -0.0305 H       
  35 H35            3.4983     3.0448     0.4585 H       
  36 H36            4.3891     1.5038     0.4556 H       
  37 H37            5.5823     3.2101     0.4913 H       
  38 H38           -2.0347    -0.2151     0.0999 H       
  39 H39           -2.8839    -2.3491     1.1992 H       
  40 H40            0.4759    -2.1436    -1.4374 H       
  41 H41            0.4682    -4.5962    -1.6377 H       
  42 H42            7.1494     4.1355    -4.1157 H       
  43 H43           -0.3285    -7.8766    -1.2802 H       
  44 H44            9.0588     5.2384    -3.1209 H       
  45 H45            9.6930     5.5959     0.9753 H       
  46 H46            7.6147     4.3881     1.4298 H       
@<TRIPOS>BOND
   1    1    2 ar
   2    1    6 ar
   3    2    3 ar
   4    2   11 1
   5    3    4 ar
   6    4    5 ar
   7    4   33 1
   8    5    6 ar
   9    5    7 1
  10    6   34 1
  11    7    8 1
  12    7   35 1
  13    7   36 1
  14    8    9 1
  15    9   19 ar
  16    9   10 ar
  17   10   22 ar
  18   10   37 1
  19   11   12 1
  20   11   38 1
  21   12   13 ar
  22   12   14 ar
  23   13   17 ar
  24   13   39 1
  25   14   15 ar
  26   14   40 1
  27   15   16 ar
  28   15   41 1
  29   16   17 ar
  30   16   18 1
  31   17   23 1
  32   18   24 1
  33   19   20 ar
  34   19   27 1
  35   20   21 ar
  36   20   42 1
  37   21   22 ar
  38   21   28 1
  39   22   31 1
  40   24   25 1
  41   24   26 1
  42   24   43 1
  43   28   29 am
  44   28   44 1
  45   29   30 1
  46   29   32 2
  47   30   31 2
  48   30   45 1
  49   31   46 1

#	End of record

