#	Name: ASD10160424
#	Creating user name:	WinNT
#	Creation time:	15. 06. 2019 21:25

#	Modifying user name:	WinNT
#	Modification time:	15. 06. 2019 21:25

#	Program:	/corina/corina34_cracker 3.40 0067  02.08.2006

@<TRIPOS>MOLECULE
ASD10160424
  38   39    0    0    0
SMALL
NO_CHARGES


@<TRIPOS>ATOM
   1 C1            -2.2262    -2.6066     4.8623 C.2     
   2 C2            -1.6258    -3.0084     3.5786 C.ar    
   3 C3            -0.3007    -3.4595     3.5334 C.ar    
   4 C4             0.2571    -3.8347     2.3280 C.ar    
   5 C5            -0.4935    -3.7654     1.1619 C.ar    
   6 C6            -1.8117    -3.3174     1.2024 C.ar    
   7 C7            -2.3792    -2.9461     2.4016 C.ar    
   8 O8            -1.5715    -2.6663     5.8844 O.2     
   9 O9            -3.4998    -2.1677     4.9025 O.3     
  10 F10           -2.5369    -3.2522     0.0644 F       
  11 F11            0.4303    -3.5268     4.6676 F       
  12 O12            0.0593    -4.1350    -0.0213 O.3     
  13 C13            2.4218    -3.8529    -0.1454 C.ar    
  14 C14            1.3101    -4.6678    -0.0027 C.ar    
  15 C15            1.4897    -6.0386     0.1602 C.ar    
  16 C16            2.7815    -6.5372     0.1735 C.ar    
  17 C17            3.8478    -5.6586     0.0247 C.ar    
  18 N18            3.6389    -4.3621    -0.1280 N.ar    
  19 Cl19           3.0653    -8.2381     0.3739 Cl      
  20 O20            5.1184    -6.1370     0.0362 O.3     
  21 C21            6.1718    -5.1843    -0.1213 C.3     
  22 C22            6.1076    -4.1607     1.0140 C.3     
  23 C23            7.5210    -5.9048    -0.0828 C.3     
  24 C24            6.0146    -4.4675    -1.4638 C.3     
  25 H25            1.2790    -4.1824     2.2917 H       
  26 H26           -3.4030    -2.6035     2.4323 H       
  27 H27           -3.8501    -1.9153     5.7678 H       
  28 H28            2.2902    -2.7890    -0.2767 H       
  29 H29            0.6416    -6.6976     0.2740 H       
  30 H30            6.2196    -4.6714     1.9705 H       
  31 H31            6.9111    -3.4340     0.8939 H       
  32 H32            5.1464    -3.6474     0.9866 H       
  33 H33            7.5667    -6.6340    -0.8916 H       
  34 H34            8.3245    -5.1781    -0.2029 H       
  35 H35            7.6330    -6.4155     0.8737 H       
  36 H36            5.0534    -3.9542    -1.4913 H       
  37 H37            6.8181    -3.7408    -1.5839 H       
  38 H38            6.0603    -5.1967    -2.2726 H       
@<TRIPOS>BOND
   1    1    2 1
   2    1    8 2
   3    1    9 1
   4    2    3 ar
   5    2    7 ar
   6    3    4 ar
   7    3   11 1
   8    4    5 ar
   9    4   25 1
  10    5    6 ar
  11    5   12 1
  12    6    7 ar
  13    6   10 1
  14    7   26 1
  15    9   27 1
  16   12   14 1
  17   13   14 ar
  18   13   18 ar
  19   13   28 1
  20   14   15 ar
  21   15   16 ar
  22   15   29 1
  23   16   17 ar
  24   16   19 1
  25   17   18 ar
  26   17   20 1
  27   20   21 1
  28   21   22 1
  29   21   24 1
  30   21   23 1
  31   22   30 1
  32   22   31 1
  33   22   32 1
  34   23   33 1
  35   23   34 1
  36   23   35 1
  37   24   36 1
  38   24   37 1
  39   24   38 1

#	End of record

