#	Name: ASD13490033
#	Creating user name:	WinNT
#	Creation time:	15. 06. 2019 21:30

#	Modifying user name:	WinNT
#	Modification time:	15. 06. 2019 21:30

#	Program:	/corina/corina34_cracker 3.40 0067  02.08.2006

@<TRIPOS>MOLECULE
ASD13490033
  55   59    0    0    0
SMALL
NO_CHARGES


@<TRIPOS>ATOM
   1 C1            -0.0159     1.3219     0.0093 C.ar    
   2 C2            -2.3235     1.3827     0.0217 C.ar    
   3 N3            -1.1505     2.0034     0.0183 N.ar    
   4 N4             0.0021    -0.0041     0.0020 N.ar    
   5 C5            -2.3496    -0.0006     0.0271 C.ar    
   6 C6            -1.1334    -0.6889     0.0094 C.ar    
   7 O7            -3.5315    -0.6687     0.0423 O.3     
   8 N8            -1.1273    -2.0796    -0.0038 N.pl3   
   9 C9            -2.3855    -2.7734     0.3212 C.3     
  10 C10           -3.5259    -2.0322    -0.3908 C.3     
  11 C11            0.0333    -2.7947    -0.3153 C.ar    
  12 C12            0.9170    -3.1603     0.6919 C.ar    
  13 C13            2.0621    -3.8670     0.3810 C.ar    
  14 C14            2.3302    -4.2105    -0.9315 C.ar    
  15 C15            1.4531    -3.8485    -1.9373 C.ar    
  16 C16            0.3023    -3.1462    -1.6328 C.ar    
  17 N17            1.1859     2.0129     0.0015 N.pl3   
  18 C18            1.1887     3.4778     0.0094 C.3     
  19 C19            2.5179     5.5198    -0.5260 C.3     
  20 C20            2.3634     5.9450     0.9365 C.3     
  21 O21            1.1466     5.4096     1.4609 O.3     
  22 C22            1.0855     3.9819     1.4513 C.3     
  23 C23            2.4922     3.9906    -0.6105 C.3     
  24 C24            2.3284     7.4492     1.0216 C.ar    
  25 C25            1.1415     8.1430     0.8398 C.ar    
  26 C26            1.1479     9.5222     0.9255 C.ar    
  27 N27            2.2647    10.1774     1.1763 N.ar    
  28 C28            3.4111     9.5508     1.3545 C.ar    
  29 C29            3.4808     8.1719     1.2891 C.ar    
  30 C30            4.6587    10.3470     1.6385 C.3     
  31 Cl31          -0.8022    -2.6982    -2.8949 Cl      
  32 H32           -3.2433     1.9485     0.0295 H       
  33 H33           -2.3397    -3.8046    -0.0291 H       
  34 H34           -2.5494    -2.7555     1.3987 H       
  35 H35           -4.4781    -2.4993    -0.1393 H       
  36 H36           -3.3706    -2.0724    -1.4689 H       
  37 H37            0.7090    -2.8919     1.7171 H       
  38 H38            2.7495    -4.1514     1.1640 H       
  39 H39            3.2269    -4.7626    -1.1715 H       
  40 H40            1.6654    -4.1184    -2.9613 H       
  41 H41            2.0250     1.5263    -0.0091 H       
  42 H42            0.3409     3.8468    -0.5680 H       
  43 H43            1.6970     5.9309    -1.1136 H       
  44 H44            3.4665     5.8902    -0.9148 H       
  45 H45            3.2060     5.5676     1.5158 H       
  46 H46            0.1396     3.6557     1.8836 H       
  47 H47            1.9114     3.5788     2.0372 H       
  48 H48            3.3417     3.5809    -0.0640 H       
  49 H49            2.5455     3.6821    -1.6546 H       
  50 H50            0.2239     7.6122     0.6335 H       
  51 H51            0.2277    10.0699     0.7852 H       
  52 H52            4.4219     7.6642     1.4402 H       
  53 H53            4.7692    10.4775     2.7150 H       
  54 H54            5.5258     9.8159     1.2460 H       
  55 H55            4.5834    11.3234     1.1600 H       
@<TRIPOS>BOND
   1    1    4 ar
   2    1   17 1
   3    1    3 ar
   4    2    3 ar
   5    2    5 ar
   6    2   32 1
   7    4    6 ar
   8    5    6 ar
   9    5    7 1
  10    6    8 1
  11    7   10 1
  12    8    9 1
  13    8   11 1
  14    9   10 1
  15    9   33 1
  16    9   34 1
  17   10   35 1
  18   10   36 1
  19   11   12 ar
  20   11   16 ar
  21   12   13 ar
  22   12   37 1
  23   13   14 ar
  24   13   38 1
  25   14   15 ar
  26   14   39 1
  27   15   16 ar
  28   15   40 1
  29   16   31 1
  30   17   18 1
  31   17   41 1
  32   18   23 1
  33   18   22 1
  34   18   42 1
  35   19   20 1
  36   19   23 1
  37   19   43 1
  38   19   44 1
  39   20   21 1
  40   20   24 1
  41   20   45 1
  42   21   22 1
  43   22   46 1
  44   22   47 1
  45   23   48 1
  46   23   49 1
  47   24   25 ar
  48   24   29 ar
  49   25   26 ar
  50   25   50 1
  51   26   27 ar
  52   26   51 1
  53   27   28 ar
  54   28   29 ar
  55   28   30 1
  56   29   52 1
  57   30   53 1
  58   30   54 1
  59   30   55 1

#	End of record

