#	Name: ASD13390006
#	Creating user name:	WinNT
#	Creation time:	15. 06. 2019 21:30

#	Modifying user name:	WinNT
#	Modification time:	15. 06. 2019 21:30

#	Program:	/corina/corina34_cracker 3.40 0067  02.08.2006

@<TRIPOS>MOLECULE
ASD13390006
  24   23    0    0    0
SMALL
NO_CHARGES


@<TRIPOS>ATOM
   1 C1            -0.0166     1.3750     0.0096 C.ar    
   2 C2             0.0021    -0.0041     0.0020 C.ar    
   3 C3             1.2240    -0.6834    -0.0133 C.ar    
   4 C4             2.4194     0.0421    -0.0208 C.ar    
   5 C5             2.3848     1.4215    -0.0130 C.ar    
   6 C6             1.1697     2.0868     0.0021 C.ar    
   7 C7             1.2520    -2.1550    -0.0210 C.2     
   8 N8             2.3942    -2.7858    -0.0352 N.2     
   9 N9             2.4188    -4.0755    -0.0420 N.2     
  10 C10            3.5725    -4.7127    -0.0564 C.2     
  11 N11            4.7468    -4.0045    -0.0642 N.pl3   
  12 N12            3.5986    -6.0838    -0.0635 N.pl3   
  13 Cl13           3.8670     2.3252    -0.0223 Cl      
  14 H14           -0.9600     1.9007     0.0169 H       
  15 H15           -0.9251    -0.5579     0.0082 H       
  16 H16            3.3671    -0.4757    -0.0322 H       
  17 H17            1.1484     3.1666     0.0081 H       
  18 H18            0.3272    -2.7127    -0.0148 H       
  19 H19            4.7284    -3.0347    -0.0592 H       
  20 H20            5.5959    -4.4734    -0.0748 H       
  21 H21            2.7679    -6.5847    -0.0580 H       
  22 H22            4.4476    -6.5527    -0.0742 H       
  23 Cl23          10.5959     8.1666     5.0169 Cl      
  24 H24           10.5959     9.5366     5.0169 H       
@<TRIPOS>BOND
   1    1    2 ar
   2    1    6 ar
   3    1   14 1
   4    2    3 ar
   5    2   15 1
   6    3    4 ar
   7    3    7 1
   8    4    5 ar
   9    4   16 1
  10    5    6 ar
  11    5   13 1
  12    6   17 1
  13    7    8 2
  14    7   18 1
  15    8    9 1
  16    9   10 2
  17   10   11 1
  18   10   12 1
  19   11   19 1
  20   11   20 1
  21   12   21 1
  22   12   22 1
  23   23   24 1

#	End of record

