#	Name: ASD10610130
#	Creating user name:	WinNT
#	Creation time:	15. 06. 2019 21:28

#	Modifying user name:	WinNT
#	Modification time:	15. 06. 2019 21:28

#	Program:	/corina/corina34_cracker 3.40 0067  02.08.2006

@<TRIPOS>MOLECULE
ASD10610130
  57   60    0    0    0
SMALL
NO_CHARGES


@<TRIPOS>ATOM
   1 C1            -0.0088     1.5155     0.0198 C.3     
   2 C2             0.1343    -0.0071    -0.0267 C.3     
   3 C3             1.3815     0.8770     0.0345 C.3     
   4 C4            -0.4410     2.2127    -1.2444 C.2     
   5 O5            -0.2321     1.6981    -2.3225 O.2     
   6 N6            -1.0597     3.4082    -1.1769 N.am    
   7 C7            -1.3804     4.1375    -2.4063 C.3     
   8 C8            -2.5706     5.0908    -2.1685 C.3     
   9 C9            -1.8674     6.4089    -1.7813 C.3     
  10 C10           -0.5067     6.3409    -2.4416 C.ar    
  11 C11            0.4098     7.3421    -2.7051 C.ar    
  12 C12            1.6156     7.0397    -3.3325 C.ar    
  13 C13            1.8951     5.7228    -3.6935 C.ar    
  14 C14            0.9751     4.7287    -3.4266 C.ar    
  15 C15           -0.2264     5.0348    -2.8010 C.ar    
  16 O16            3.9360     8.0465    -4.2659 O.3     
  17 B17            2.6554     8.1772    -3.6324 Du      
  18 O18            2.5329     9.5750    -3.3334 O.3     
  19 C19            3.0925    10.2448    -4.4827 C.3     
  20 C20            4.0438     9.2085    -5.1149 C.3     
  21 C21            5.4802     9.7354    -5.1177 C.3     
  22 C22            3.5954     8.8719    -6.5385 C.3     
  23 C23            1.9864    10.6247    -5.4692 C.3     
  24 C24            3.8712    11.4881    -4.0484 C.3     
  25 F25            1.2446     3.4519    -3.7765 F       
  26 N26           -0.4927     2.1117     1.2675 N.am    
  27 C27           -1.7447     1.8555     1.6956 C.2     
  28 O28           -2.4395     1.0614     1.0976 O.2     
  29 C29           -2.2813     2.5558     2.9174 C.3     
  30 F30           -3.5911     2.1292     3.1619 F       
  31 F31           -1.4776     2.2500     4.0209 F       
  32 F32           -2.2734     3.9384     2.7036 F       
  33 H33           -0.1315    -0.5652     0.8710 H       
  34 H34           -0.0841    -0.5045    -0.9717 H       
  35 H35            1.9836     0.9613    -0.8702 H       
  36 H36            1.9362     0.9005     0.9725 H       
  37 H37           -1.2927     3.7857    -0.3143 H       
  38 H38           -1.6104     3.4388    -3.2107 H       
  39 H39           -3.1544     5.2165    -3.0803 H       
  40 H40           -3.1974     4.7318    -1.3522 H       
  41 H41           -2.4293     7.2627    -2.1600 H       
  42 H42           -1.7596     6.4762    -0.6988 H       
  43 H43            0.1898     8.3614    -2.4240 H       
  44 H44            2.8284     5.4809    -4.1801 H       
  45 H45            6.1473     8.9697    -5.5137 H       
  46 H46            5.5390    10.6268    -5.7422 H       
  47 H47            5.7776     9.9850    -4.0992 H       
  48 H48            2.5661     8.5138    -6.5201 H       
  49 H49            3.6582     9.7652    -7.1600 H       
  50 H50            4.2424     8.0970    -6.9496 H       
  51 H51            1.2909    11.3123    -4.9881 H       
  52 H52            2.4276    11.1058    -6.3421 H       
  53 H53            1.4528     9.7266    -5.7802 H       
  54 H54            4.6643    11.1978    -3.3593 H       
  55 H55            4.3084    11.9674    -4.9244 H       
  56 H56            3.1958    12.1849    -3.5522 H       
  57 H57            0.0881     2.6907     1.7855 H       
@<TRIPOS>BOND
   1    1    2 1
   2    1    3 1
   3    1    4 1
   4    1   26 1
   5    2    3 1
   6    2   33 1
   7    2   34 1
   8    3   35 1
   9    3   36 1
  10    4    5 2
  11    4    6 am
  12    6    7 1
  13    6   37 1
  14    7    8 1
  15    7   15 1
  16    7   38 1
  17    8    9 1
  18    8   39 1
  19    8   40 1
  20    9   10 1
  21    9   41 1
  22    9   42 1
  23   10   11 ar
  24   10   15 ar
  25   11   12 ar
  26   11   43 1
  27   12   13 ar
  28   12   17 1
  29   13   14 ar
  30   13   44 1
  31   14   15 ar
  32   14   25 1
  33   16   17 1
  34   16   20 1
  35   17   18 1
  36   18   19 1
  37   19   20 1
  38   19   23 1
  39   19   24 1
  40   20   21 1
  41   20   22 1
  42   21   45 1
  43   21   46 1
  44   21   47 1
  45   22   48 1
  46   22   49 1
  47   22   50 1
  48   23   51 1
  49   23   52 1
  50   23   53 1
  51   24   54 1
  52   24   55 1
  53   24   56 1
  54   26   27 am
  55   26   57 1
  56   27   28 2
  57   27   29 1
  58   29   30 1
  59   29   31 1
  60   29   32 1

#	End of record

