#	Name: ASD10420058
#	Creating user name:	WinNT
#	Creation time:	15. 06. 2019 21:27

#	Modifying user name:	WinNT
#	Modification time:	15. 06. 2019 21:27

#	Program:	/corina/corina34_cracker 3.40 0067  02.08.2006

@<TRIPOS>MOLECULE
ASD10420058
  82   86    0    0    0
SMALL
NO_CHARGES


@<TRIPOS>ATOM
   1 N1             2.0409    -4.2841    -0.4546 N.am    
   2 C2             2.2001    -4.2975    -1.9155 C.3     
   3 C3             1.8248    -2.9145    -2.4621 C.3     
   4 N4             2.5358    -1.8922    -1.6815 N.am    
   5 C5             2.3765    -1.8788    -0.2206 C.3     
   6 C6             2.7519    -3.2618     0.3260 C.3     
   7 C7             1.2526    -5.1895     0.1579 C.2     
   8 O8             0.5784    -5.9542    -0.5034 O.2     
   9 O9             1.2120    -5.2468     1.5024 O.3     
  10 C10            1.2785    -5.3571    -2.5227 C.3     
  11 C11            1.7898    -6.7299    -2.1689 C.2     
  12 O12            2.7888    -6.8485    -1.4997 O.2     
  13 O13            1.1353    -7.8208    -2.5972 O.3     
  14 C14            1.6849    -9.1103    -2.2184 C.3     
  15 C15            3.3201    -0.9836    -2.2945 C.2     
  16 O16            3.5191    -1.0610    -3.4936 O.2     
  17 C17            5.3951     1.2756    -0.3765 C.2     
  18 C18            5.2096     0.0716    -1.0548 C.2     
  19 C19            3.9131     0.0616    -1.5439 C.2     
  20 N20            3.2964     1.2408    -1.1776 N.pl3   
  21 C21            2.0361     1.7102    -1.4102 C.2     
  22 C22            1.6516     2.9178    -0.9424 C.2     
  23 C23            2.5463     3.7096    -0.2078 C.2     
  24 C24            3.8082     3.2513     0.0310 C.2     
  25 C25            4.1889     1.9939    -0.4635 C.2     
  26 C26            6.6304     1.7139     0.3127 C.ar    
  27 C27            7.3217     2.8391    -0.1369 C.ar    
  28 C28            8.4720     3.2424     0.5095 C.ar    
  29 C29            8.9402     2.5333     1.6013 C.ar    
  30 C30            8.2594     1.4163     2.0517 C.ar    
  31 C31            7.1045     1.0066     1.4177 C.ar    
  32 C32            6.2338    -1.0206    -1.2258 C.3     
  33 C33            6.9403    -0.8446    -2.5453 C.ar    
  34 C34            8.1732    -0.2213    -2.5910 C.ar    
  35 C35            8.8222    -0.0602    -3.8032 C.ar    
  36 C36            8.2352    -0.5237    -4.9686 C.ar    
  37 C37            7.0027    -1.1465    -4.9204 C.ar    
  38 C38            6.3578    -1.3115    -3.7085 C.ar    
  39 C39            8.8104     0.2831    -1.3219 C.3     
  40 F40           10.0270     0.5493    -3.8491 F       
  41 C41            0.3409    -6.2468     2.0936 C.3     
  42 C42            0.7787    -7.6395     1.6358 C.3     
  43 C43            0.4271    -6.1607     3.6188 C.3     
  44 C44           -1.1011    -5.9937     1.6493 C.3     
  45 H45            3.2363    -4.5220    -2.1685 H       
  46 H46            2.1170    -2.8437    -3.5098 H       
  47 H47            0.7493    -2.7638    -2.3687 H       
  48 H48            3.0331    -1.1239     0.2120 H       
  49 H49            1.3403    -1.6543     0.0324 H       
  50 H50            2.4597    -3.3326     1.3737 H       
  51 H51            3.8274    -3.4125     0.2326 H       
  52 H52            0.2706    -5.2317    -2.1273 H       
  53 H53            1.2602    -5.2445    -3.6068 H       
  54 H54            2.6975    -9.2032    -2.6111 H       
  55 H55            1.7079    -9.1904    -1.1316 H       
  56 H56            1.0619    -9.9053    -2.6282 H       
  57 H57            1.3385     1.1095    -1.9750 H       
  58 H58            0.6508     3.2753    -1.1352 H       
  59 H59            2.2384     4.6751     0.1657 H       
  60 H60            4.5081     3.8501     0.5948 H       
  61 H61            6.9573     3.3932    -0.9893 H       
  62 H62            9.0082     4.1131     0.1622 H       
  63 H63            9.8411     2.8529     2.1040 H       
  64 H64            8.6303     0.8665     2.9042 H       
  65 H65            6.5710     0.1375     1.7734 H       
  66 H66            6.9602    -0.9677    -0.4148 H       
  67 H67            5.7372    -1.9907    -1.2062 H       
  68 H68            8.7404    -0.3983    -5.9149 H       
  69 H69            6.5447    -1.5081    -5.8292 H       
  70 H70            5.3965    -1.8024    -3.6712 H       
  71 H71            9.5168    -0.4592    -0.9502 H       
  72 H72            9.3367     1.2157    -1.5253 H       
  73 H73            8.0386     0.4575    -0.5723 H       
  74 H74            1.8060    -7.8197     1.9524 H       
  75 H75            0.1248    -8.3901     2.0796 H       
  76 H76            0.7173    -7.7008     0.5493 H       
  77 H77            0.1152    -5.1685     3.9449 H       
  78 H78           -0.2268    -6.9113     4.0626 H       
  79 H79            1.4544    -6.3410     3.9353 H       
  80 H80           -1.1626    -6.0551     0.5627 H       
  81 H81           -1.7551    -6.7444     2.0931 H       
  82 H82           -1.4131    -5.0016     1.9754 H       
@<TRIPOS>BOND
   1    1    2 1
   2    1    6 1
   3    1    7 am
   4    2    3 1
   5    2   10 1
   6    2   45 1
   7    3    4 1
   8    3   46 1
   9    3   47 1
  10    4    5 1
  11    4   15 am
  12    5    6 1
  13    5   48 1
  14    5   49 1
  15    6   50 1
  16    6   51 1
  17    7    8 2
  18    7    9 1
  19    9   41 1
  20   10   11 1
  21   10   52 1
  22   10   53 1
  23   11   12 2
  24   11   13 1
  25   13   14 1
  26   14   54 1
  27   14   55 1
  28   14   56 1
  29   15   16 2
  30   15   19 1
  31   17   18 1
  32   17   25 2
  33   17   26 1
  34   18   19 2
  35   18   32 1
  36   19   20 1
  37   20   21 1
  38   20   25 1
  39   21   22 2
  40   21   57 1
  41   22   23 1
  42   22   58 1
  43   23   24 2
  44   23   59 1
  45   24   25 1
  46   24   60 1
  47   26   27 ar
  48   26   31 ar
  49   27   28 ar
  50   27   61 1
  51   28   29 ar
  52   28   62 1
  53   29   30 ar
  54   29   63 1
  55   30   31 ar
  56   30   64 1
  57   31   65 1
  58   32   33 1
  59   32   66 1
  60   32   67 1
  61   33   34 ar
  62   33   38 ar
  63   34   35 ar
  64   34   39 1
  65   35   36 ar
  66   35   40 1
  67   36   37 ar
  68   36   68 1
  69   37   38 ar
  70   37   69 1
  71   38   70 1
  72   39   71 1
  73   39   72 1
  74   39   73 1
  75   41   42 1
  76   41   44 1
  77   41   43 1
  78   42   74 1
  79   42   75 1
  80   42   76 1
  81   43   77 1
  82   43   78 1
  83   43   79 1
  84   44   80 1
  85   44   81 1
  86   44   82 1

#	End of record

