#	Name: ASD13490025
#	Creating user name:	WinNT
#	Creation time:	15. 06. 2019 21:30

#	Modifying user name:	WinNT
#	Modification time:	15. 06. 2019 21:30

#	Program:	/corina/corina34_cracker 3.40 0067  02.08.2006

@<TRIPOS>MOLECULE
ASD13490025
  53   57    0    0    0
SMALL
NO_CHARGES


@<TRIPOS>ATOM
   1 N1             1.8129     1.9626     1.6717 N.ar    
   2 C2             1.8373     0.8480     2.3829 C.ar    
   3 C3             0.6905     0.0691     2.5221 C.ar    
   4 C4            -0.4856     0.4781     1.9031 C.ar    
   5 C5            -0.4720     1.6512     1.1672 C.ar    
   6 C6             0.7079     2.3787     1.0700 C.ar    
   7 N7             0.7220    -1.1149     3.2782 N.pl3   
   8 C8            -0.1577    -1.4732     4.2657 C.2     
   9 C9             0.2386    -2.6771     4.7225 C.2     
  10 N10            1.3293    -3.0445     4.0340 N.2     
  11 C11            1.6227    -2.1168     3.1634 C.2     
  12 C12           -0.4274    -3.4720     5.8159 C.3     
  13 O13            2.9908     0.4587     2.9826 O.3     
  14 C14            4.1319     1.2997     2.8018 C.3     
  15 N15            0.7293     3.5586     0.3322 N.pl3   
  16 C16            1.9373     4.2261     0.1173 C.ar    
  17 C17            1.9629     5.6276     0.0236 C.ar    
  18 C18            3.1154     3.5114     0.0014 C.ar    
  19 C19            4.3180     4.1687    -0.2116 C.ar    
  20 C20            4.3571     5.5434    -0.3113 C.ar    
  21 C21            1.5477     7.7647    -0.0548 C.2     
  22 N22            1.0043     6.5824     0.0986 N.2     
  23 C23            3.1865     6.2820    -0.1927 C.ar    
  24 N24            2.8987     7.6324    -0.2386 N.pl3   
  25 C25            0.8135     9.0480    -0.0333 C.ar    
  26 C26            1.4536    10.2140     0.3896 C.ar    
  27 C27            0.7643    11.4082     0.4078 C.ar    
  28 C28           -0.5620    11.4518     0.0076 C.ar    
  29 C29           -1.2023    10.2968    -0.4132 C.ar    
  30 C30           -0.5203     9.0986    -0.4411 C.ar    
  31 F31           -1.2331    12.6242     0.0282 F       
  32 C32            3.8588     8.7195    -0.4448 C.3     
  33 H33           -1.3894    -0.1063     1.9938 H       
  34 H34           -1.3684     1.9965     0.6737 H       
  35 H35           -1.0054    -0.9005     4.6116 H       
  36 H36            2.4489    -2.1442     2.4684 H       
  37 H37           -1.1842    -4.1249     5.3811 H       
  38 H38            0.3190    -4.0750     6.3329 H       
  39 H39           -0.8988    -2.7910     6.5246 H       
  40 H40            4.3644     1.3732     1.7394 H       
  41 H41            3.9174     2.2929     3.1963 H       
  42 H42            4.9842     0.8746     3.3317 H       
  43 H43           -0.0947     3.9175    -0.0328 H       
  44 H44            3.0990     2.4342     0.0776 H       
  45 H45            5.2313     3.5991    -0.2996 H       
  46 H46            5.2984     6.0462    -0.4772 H       
  47 H47            2.4868    10.1809     0.7023 H       
  48 H48            1.2586    12.3110     0.7348 H       
  49 H49           -2.2360    10.3361    -0.7236 H       
  50 H50           -1.0189     8.2000    -0.7733 H       
  51 H51            4.1837     9.1055     0.5214 H       
  52 H52            4.7216     8.3430    -0.9943 H       
  53 H53            3.3856     9.5190    -1.0149 H       
@<TRIPOS>BOND
   1    1    2 ar
   2    1    6 ar
   3    2    3 ar
   4    2   13 1
   5    3    4 ar
   6    3    7 1
   7    4    5 ar
   8    4   33 1
   9    5    6 ar
  10    5   34 1
  11    6   15 1
  12    7    8 1
  13    7   11 1
  14    8    9 2
  15    8   35 1
  16    9   10 1
  17    9   12 1
  18   10   11 2
  19   11   36 1
  20   12   37 1
  21   12   38 1
  22   12   39 1
  23   13   14 1
  24   14   40 1
  25   14   41 1
  26   14   42 1
  27   15   16 1
  28   15   43 1
  29   16   18 ar
  30   16   17 ar
  31   17   23 ar
  32   17   22 1
  33   18   19 ar
  34   18   44 1
  35   19   20 ar
  36   19   45 1
  37   20   23 ar
  38   20   46 1
  39   21   22 2
  40   21   24 1
  41   21   25 1
  42   23   24 1
  43   24   32 1
  44   25   26 ar
  45   25   30 ar
  46   26   27 ar
  47   26   47 1
  48   27   28 ar
  49   27   48 1
  50   28   29 ar
  51   28   31 1
  52   29   30 ar
  53   29   49 1
  54   30   50 1
  55   32   51 1
  56   32   52 1
  57   32   53 1

#	End of record

