#	Name: ASD10410088
#	Creating user name:	WinNT
#	Creation time:	15. 06. 2019 21:26

#	Modifying user name:	WinNT
#	Modification time:	15. 06. 2019 21:26

#	Program:	/corina/corina34_cracker 3.40 0067  02.08.2006

@<TRIPOS>MOLECULE
ASD10410088
  65   69    0    0    0
SMALL
NO_CHARGES


@<TRIPOS>ATOM
   1 C1             1.0607    -0.4925    -0.4387 C.ar    
   2 C2            -0.0018     0.0491     0.2922 C.ar    
   3 C3             0.1557     1.2883     0.9377 C.ar    
   4 C4             1.3636     1.9612     0.8427 C.ar    
   5 C5             2.4077     1.4083     0.1127 C.ar    
   6 C6             2.2456     0.1794    -0.5251 C.ar    
   7 N7            -0.8934     1.8352     1.6657 N.3     
   8 N8             3.6205     2.0841     0.0170 N.pl3   
   9 C9             3.6488     3.4772     0.0739 C.2     
  10 N10            4.7280     4.2187     0.0048 N.2     
  11 N11            2.5783     4.2701     0.2020 N.2     
  12 C12            2.9583     5.5294     0.2214 C.2     
  13 N13            4.3135     5.5570     0.0999 N.pl3   
  14 C14            5.1246     6.6839     0.0750 C.ar    
  15 N15            2.1296     6.6276     0.3410 N.pl3   
  16 N16            4.9483     7.6685     0.9448 N.ar    
  17 C17            5.7138     8.7479     0.9325 C.ar    
  18 N18            6.6888     8.9212     0.0719 N.ar    
  19 C19            6.9534     7.9860    -0.8521 C.ar    
  20 C20            6.1634     6.8087    -0.8745 C.ar    
  21 C21            7.9869     8.1389    -1.7851 C.ar    
  22 C22            8.2163     7.1559    -2.7067 C.ar    
  23 C23            7.4301     5.9946    -2.7312 C.ar    
  24 C24            6.4195     5.8165    -1.8300 C.ar    
  25 C25           -1.2794    -0.6749     0.3849 C.2     
  26 C26           -1.3593     3.0892     1.0574 C.3     
  27 C27           -2.5634     3.6167     1.8411 C.3     
  28 N28           -2.1780     3.8265     3.2436 N.3     
  29 C29           -1.7121     2.5725     3.8520 C.3     
  30 C30           -0.5080     2.0450     3.0683 C.3     
  31 C31           -3.2874     4.4048     4.0135 C.3     
  32 N32           -1.4660    -1.8060    -0.3239 N.am    
  33 O33           -2.1672    -0.2527     1.1013 O.2     
  34 O34            7.6802     5.0330    -3.6594 O.3     
  35 C35            6.8454     3.8736    -3.6335 C.3     
  36 O36            9.2186     7.3058    -3.6111 O.3     
  37 C37            9.9846     8.5099    -3.5370 C.3     
  38 H38            0.9448    -1.4462    -0.9320 H       
  39 H39            1.4926     2.9136     1.3352 H       
  40 H40            3.0625    -0.2436    -1.0908 H       
  41 H41            4.4461     1.5861    -0.0894 H       
  42 H42            1.1707     6.5051     0.4210 H       
  43 H43            2.5064     7.5214     0.3450 H       
  44 H44            5.5272     9.5209     1.6633 H       
  45 H45            8.5989     9.0287    -1.7766 H       
  46 H46            5.8195     4.9188    -1.8561 H       
  47 H47           -0.5568     3.8263     1.0839 H       
  48 H48           -1.6506     2.9054     0.0232 H       
  49 H49           -2.8927     4.5618     1.4091 H       
  50 H50           -3.3755     2.8914     1.7917 H       
  51 H51           -1.4207     2.7563     4.8861 H       
  52 H52           -2.5146     1.8354     3.8254 H       
  53 H53           -0.1787     1.0999     3.5002 H       
  54 H54            0.3042     2.7703     3.1176 H       
  55 H55           -4.1419     3.7289     3.9833 H       
  56 H56           -2.9752     4.5497     5.0478 H       
  57 H57           -3.5682     5.3651     3.5809 H       
  58 H58           -0.7580    -2.1427    -0.8952 H       
  59 H59           -2.3082    -2.2832    -0.2628 H       
  60 H60            7.1512     3.1879    -4.4238 H       
  61 H61            6.9401     3.3791    -2.6668 H       
  62 H62            5.8080     4.1692    -3.7903 H       
  63 H63            9.3281     9.3677    -3.6825 H       
  64 H64           10.4603     8.5783    -2.5586 H       
  65 H65           10.7498     8.5022    -4.3132 H       
@<TRIPOS>BOND
   1    1    2 ar
   2    1    6 ar
   3    1   38 1
   4    2    3 ar
   5    2   25 1
   6    3    4 ar
   7    3    7 1
   8    4    5 ar
   9    4   39 1
  10    5    6 ar
  11    5    8 1
  12    6   40 1
  13    7   26 1
  14    7   30 1
  15    8    9 1
  16    8   41 1
  17    9   10 2
  18    9   11 1
  19   10   13 1
  20   11   12 2
  21   12   13 1
  22   12   15 1
  23   13   14 1
  24   14   16 ar
  25   14   20 ar
  26   15   42 1
  27   15   43 1
  28   16   17 ar
  29   17   18 ar
  30   17   44 1
  31   18   19 ar
  32   19   20 ar
  33   19   21 ar
  34   20   24 ar
  35   21   22 ar
  36   21   45 1
  37   22   23 ar
  38   22   36 1
  39   23   24 ar
  40   23   34 1
  41   24   46 1
  42   25   32 am
  43   25   33 2
  44   26   27 1
  45   26   47 1
  46   26   48 1
  47   27   28 1
  48   27   49 1
  49   27   50 1
  50   28   29 1
  51   28   31 1
  52   29   30 1
  53   29   51 1
  54   29   52 1
  55   30   53 1
  56   30   54 1
  57   31   55 1
  58   31   56 1
  59   31   57 1
  60   32   58 1
  61   32   59 1
  62   34   35 1
  63   35   60 1
  64   35   61 1
  65   35   62 1
  66   36   37 1
  67   37   63 1
  68   37   64 1
  69   37   65 1

#	End of record

