#	Name: ASD11030001
#	Creating user name:	WinNT
#	Creation time:	15. 06. 2019 21:29

#	Modifying user name:	WinNT
#	Modification time:	15. 06. 2019 21:29

#	Program:	/corina/corina34_cracker 3.40 0067  02.08.2006

@<TRIPOS>MOLECULE
ASD11030001
  22   22    0    0    0
SMALL
NO_CHARGES


@<TRIPOS>ATOM
   1 O1             0.0021    -0.0041     0.0020 O.2     
   2 C2            -0.0144     1.2115     0.0087 C.2     
   3 C3             1.2547     1.9674     0.0006 C.ar    
   4 C4             2.4748     1.2882    -0.0147 C.ar    
   5 C5             3.6561     1.9985    -0.0221 C.ar    
   6 C6             3.6344     3.3849    -0.0139 C.ar    
   7 C7             2.4258     4.0642     0.0017 C.ar    
   8 C8             1.2386     3.3639     0.0025 C.ar    
   9 F9             4.7951     4.0762    -0.0208 F       
  10 N10           -1.1906     1.8694     0.0179 N.am    
  11 N11           -2.3943     1.1525     0.0197 N.am    
  12 C12           -3.5705     1.8105     0.0288 C.2     
  13 S13           -5.0414     0.9344     0.0310 S.2     
  14 N14           -3.5888     3.1581     0.0362 N.am    
  15 H15            2.4928     0.2084    -0.0203 H       
  16 H16            4.6002     1.4742    -0.0339 H       
  17 H17            2.4145     5.1442     0.0088 H       
  18 H18            0.2977     3.8940     0.0147 H       
  19 H19           -1.2038     2.8393     0.0232 H       
  20 H20           -2.3811     0.1826     0.0143 H       
  21 H21           -2.7554     3.6544     0.0350 H       
  22 H22           -4.4353     3.6316     0.0428 H       
@<TRIPOS>BOND
   1    1    2 2
   2    2    3 1
   3    2   10 am
   4    3    4 ar
   5    3    8 ar
   6    4    5 ar
   7    4   15 1
   8    5    6 ar
   9    5   16 1
  10    6    7 ar
  11    6    9 1
  12    7    8 ar
  13    7   17 1
  14    8   18 1
  15   10   11 1
  16   10   19 1
  17   11   12 am
  18   11   20 1
  19   12   13 2
  20   12   14 am
  21   14   21 1
  22   14   22 1

#	End of record

