#	Name: ASD10220092
#	Creating user name:	WinNT
#	Creation time:	15. 06. 2019 21:26

#	Modifying user name:	WinNT
#	Modification time:	15. 06. 2019 21:26

#	Program:	/corina/corina34_cracker 3.40 0067  02.08.2006

@<TRIPOS>MOLECULE
ASD10220092
  27   29    0    0    0
SMALL
NO_CHARGES


@<TRIPOS>ATOM
   1 C1            -0.0062     1.4621    -0.1712 C.2     
   2 C2             0.0238     0.0553    -0.3198 C.2     
   3 C3            -1.1136    -0.6722    -0.3768 C.2     
   4 C4            -2.4361    -0.0541    -0.2890 C.2     
   5 C5            -2.5496     1.3193    -0.1426 C.2     
   6 C6            -1.3372     2.1501    -0.0696 C.2     
   7 O7            -3.6788    -0.5720    -0.3221 O.3     
   8 C8            -4.6082     0.3785    -0.2062 C.2     
   9 C9            -3.9874     1.6051    -0.0878 C.2     
  10 C10           -4.6314     2.9214     0.0625 C.2     
  11 O11           -3.9536     3.9103     0.2661 O.2     
  12 C12           -6.1015     3.0403    -0.0342 C.ar    
  13 C13           -6.8278     2.1416    -0.8185 C.ar    
  14 C14           -8.1996     2.2580    -0.9038 C.ar    
  15 C15           -8.8561     3.2626    -0.2149 C.ar    
  16 C16           -8.1426     4.1565     0.5642 C.ar    
  17 C17           -6.7711     4.0482     0.6630 C.ar    
  18 Br18          -0.9912    -2.5486    -0.5769 Br      
  19 Br19           1.6923    -0.8262    -0.4418 Br      
  20 O20            1.0260     2.1012    -0.1218 O.2     
  21 O21           -1.4107     3.3540     0.0589 O.2     
  22 H22           -5.6755     0.2140    -0.2048 H       
  23 H23           -6.3166     1.3575    -1.3573 H       
  24 H24           -8.7625     1.5637    -1.5100 H       
  25 H25           -9.9303     3.3496    -0.2858 H       
  26 H26           -8.6612     4.9384     1.0990 H       
  27 H27           -6.2155     4.7462     1.2716 H       
@<TRIPOS>BOND
   1    1    2 1
   2    1   20 2
   3    1    6 1
   4    2    3 2
   5    2   19 1
   6    3    4 1
   7    3   18 1
   8    4    5 2
   9    4    7 1
  10    5    6 1
  11    5    9 1
  12    6   21 2
  13    7    8 1
  14    8    9 2
  15    8   22 1
  16    9   10 1
  17   10   11 2
  18   10   12 1
  19   12   13 ar
  20   12   17 ar
  21   13   14 ar
  22   13   23 1
  23   14   15 ar
  24   14   24 1
  25   15   16 ar
  26   15   25 1
  27   16   17 ar
  28   16   26 1
  29   17   27 1

#	End of record

