#	Name: ASD13490028
#	Creating user name:	WinNT
#	Creation time:	15. 06. 2019 21:30

#	Modifying user name:	WinNT
#	Modification time:	15. 06. 2019 21:30

#	Program:	/corina/corina34_cracker 3.40 0067  02.08.2006

@<TRIPOS>MOLECULE
ASD13490028
  61   65    0    0    0
SMALL
NO_CHARGES


@<TRIPOS>ATOM
   1 N1             2.2860     1.4314    -0.0333 N.ar    
   2 C2             2.3975     0.1138    -0.0481 C.ar    
   3 C3             1.2631    -0.6951    -0.0349 C.ar    
   4 C4             0.0069    -0.0996    -0.0053 C.ar    
   5 C5            -0.0689     1.2832     0.0099 C.ar    
   6 C6             1.1034     2.0282    -0.0051 C.ar    
   7 N7             1.3869    -2.0946    -0.0517 N.pl3   
   8 C8             0.7688    -2.9762     0.7958 C.2     
   9 C9             1.1635    -4.2109     0.4291 C.2     
  10 N10            1.9991    -4.0881    -0.6128 N.2     
  11 C11            2.1338    -2.8241    -0.9109 C.2     
  12 C12            0.7405    -5.5042     1.0768 C.3     
  13 O13            3.6289    -0.4560    -0.0770 O.3     
  14 C14            4.7523     0.4271    -0.0898 C.3     
  15 N15            1.0349     3.4195     0.0101 N.pl3   
  16 C16            2.1976     4.1704     0.1077 C.ar    
  17 N17            3.3506     3.5454     0.2876 N.ar    
  18 N18            2.1190     5.4882     0.0126 N.ar    
  19 C19            4.4410     5.6088     0.2872 C.ar    
  20 C20            4.4845     4.2289     0.3803 C.ar    
  21 C21            3.2155     6.2432     0.0996 C.ar    
  22 N22            3.0784     7.6213     0.0053 N.3     
  23 C23            4.1857     8.4147     0.4147 C.3     
  24 C24            5.5099     7.7036     0.4476 C.2     
  25 N25            5.6155     6.3684     0.3689 N.am    
  26 O26            6.5230     8.3632     0.5488 O.2     
  27 C27            6.9291     5.7198     0.3634 C.3     
  28 C28            1.7751     7.9709     0.5569 C.3     
  29 C29            7.4263     5.5870    -1.0775 C.3     
  30 C30            4.3734     9.6785    -0.4195 C.3     
  31 C31            1.4733     9.4246     0.7719 C.3     
  32 C32            3.4494    10.7803     0.0001 C.3     
  33 C33            1.9993    10.3873    -0.2363 C.3     
  34 H34           -0.8895    -0.7019     0.0051 H       
  35 H35           -1.0292     1.7770     0.0325 H       
  36 H36            0.0951    -2.7287     1.6028 H       
  37 H37            2.7430    -2.4270    -1.7094 H       
  38 H38           -0.1582    -5.8789     0.5870 H       
  39 H39            1.5404    -6.2382     0.9790 H       
  40 H40            0.5335    -5.3310     2.1328 H       
  41 H41            4.7036     1.0641    -0.9729 H       
  42 H42            4.7373     1.0469     0.8067 H       
  43 H43            5.6727    -0.1563    -0.1128 H       
  44 H44            0.1743     3.8634    -0.0476 H       
  45 H45            5.4243     3.7172     0.5260 H       
  46 H46            3.9808     8.7480     1.4321 H       
  47 H47            7.6339     6.3217     0.9370 H       
  48 H48            6.8474     4.7298     0.8122 H       
  49 H49            1.0127     7.5678    -0.1096 H       
  50 H50            1.6733     7.4645     1.5167 H       
  51 H51            8.4036     5.1045    -1.0816 H       
  52 H52            6.7215     4.9851    -1.6511 H       
  53 H53            7.5080     6.5770    -1.5263 H       
  54 H54            5.4027    10.0214    -0.3143 H       
  55 H55            4.1874     9.4412    -1.4669 H       
  56 H56            0.3901     9.5394     0.8111 H       
  57 H57            1.8717     9.7087     1.7459 H       
  58 H58            3.5967    10.9881     1.0599 H       
  59 H59            3.6764    11.6776    -0.5756 H       
  60 H60            1.9164     9.9370    -1.2255 H       
  61 H61            1.3853    11.2876    -0.2129 H       
@<TRIPOS>BOND
   1    1    2 ar
   2    1    6 ar
   3    2    3 ar
   4    2   13 1
   5    3    4 ar
   6    3    7 1
   7    4    5 ar
   8    4   34 1
   9    5    6 ar
  10    5   35 1
  11    6   15 1
  12    7    8 1
  13    7   11 1
  14    8    9 2
  15    8   36 1
  16    9   10 1
  17    9   12 1
  18   10   11 2
  19   11   37 1
  20   12   38 1
  21   12   39 1
  22   12   40 1
  23   13   14 1
  24   14   41 1
  25   14   42 1
  26   14   43 1
  27   15   16 1
  28   15   44 1
  29   16   18 ar
  30   16   17 ar
  31   17   20 ar
  32   18   21 ar
  33   19   20 ar
  34   19   25 1
  35   19   21 ar
  36   20   45 1
  37   21   22 1
  38   22   23 1
  39   22   28 1
  40   23   24 1
  41   23   30 1
  42   23   46 1
  43   24   25 am
  44   24   26 2
  45   25   27 1
  46   27   29 1
  47   27   47 1
  48   27   48 1
  49   28   31 1
  50   28   49 1
  51   28   50 1
  52   29   51 1
  53   29   52 1
  54   29   53 1
  55   30   32 1
  56   30   54 1
  57   30   55 1
  58   31   33 1
  59   31   56 1
  60   31   57 1
  61   32   33 1
  62   32   58 1
  63   32   59 1
  64   33   60 1
  65   33   61 1

#	End of record

