#	Name: ASD14490001
#	Creating user name:	WinNT
#	Creation time:	15. 06. 2019 21:31

#	Modifying user name:	WinNT
#	Modification time:	15. 06. 2019 21:31

#	Program:	/corina/corina34_cracker 3.40 0067  02.08.2006

@<TRIPOS>MOLECULE
ASD14490001
  26   27    0    0    0
SMALL
NO_CHARGES


@<TRIPOS>ATOM
   1 Cl1            3.4897     2.6944    -3.4176 Cl      
   2 Cl2            4.7396     4.5452    -1.2398 Cl      
   3 O3            -0.0163     1.3527     0.0095 O.3     
   4 O4            -0.1926    -4.5835     2.1635 O.2     
   5 O5             1.8869    -4.2343     2.2307 O.2     
   6 N6             0.7595    -3.8456     1.9829 N.pl3   
   7 N7            -3.3078     0.0775     0.1678 N.1     
   8 C8             0.1677     0.0958     0.4865 C.ar    
   9 C9             1.0860     2.0927    -0.2808 C.ar    
  10 C10           -0.9331    -0.7478     0.6914 C.ar    
  11 C11            1.4460    -0.3621     0.7682 C.ar    
  12 C12            0.5464    -2.4765     1.4621 C.ar    
  13 C13           -0.7306    -2.0399     1.1826 C.ar    
  14 C14            1.6319    -1.6418     1.2528 C.ar    
  15 C15            1.6550     2.0248    -1.5440 C.ar    
  16 C16            1.6402     2.9215     0.6845 C.ar    
  17 C17            2.7765     2.7785    -1.8371 C.ar    
  18 C18            2.7606     3.6731     0.3882 C.ar    
  19 C19            3.3312     3.6000    -0.8702 C.ar    
  20 C20           -2.2573    -0.2876     0.3994 C.1     
  21 H21            2.2973     0.2829     0.6080 H       
  22 H22           -1.5736    -2.6956     1.3434 H       
  23 H23            2.6295    -1.9937     1.4702 H       
  24 H24            1.2227     1.3834    -2.2977 H       
  25 H25            1.1954     2.9791     1.6670 H       
  26 H26            3.1916     4.3183     1.1394 H       
@<TRIPOS>BOND
   1    1   17 1
   2    2   19 1
   3    3    8 1
   4    3    9 1
   5    4    6 2
   6    5    6 2
   7    6   12 1
   8    7   20 3
   9    8   10 ar
  10    8   11 ar
  11    9   15 ar
  12    9   16 ar
  13   10   13 ar
  14   10   20 1
  15   11   14 ar
  16   11   21 1
  17   12   13 ar
  18   12   14 ar
  19   13   22 1
  20   14   23 1
  21   15   17 ar
  22   15   24 1
  23   16   18 ar
  24   16   25 1
  25   17   19 ar
  26   18   19 ar
  27   18   26 1

#	End of record

