#	Name: ASD10220034
#	Creating user name:	WinNT
#	Creation time:	15. 06. 2019 21:26

#	Modifying user name:	WinNT
#	Modification time:	15. 06. 2019 21:26

#	Program:	/corina/corina34_cracker 3.40 0067  02.08.2006

@<TRIPOS>MOLECULE
ASD10220034
  38   40    0    0    0
SMALL
NO_CHARGES


@<TRIPOS>ATOM
   1 C1             0.0038     1.5152     0.4028 C.2     
   2 C2             0.0503     0.2234     0.9780 C.2     
   3 C3            -1.0769    -0.4285     1.3400 C.2     
   4 C4            -2.4041     0.1580     1.1605 C.2     
   5 C5            -2.5339     1.4207     0.6037 C.2     
   6 C6            -1.3328     2.1689     0.2002 C.2     
   7 O7            -3.6403    -0.2962     1.4415 O.3     
   8 C8            -4.5751     0.5937     1.1020 C.2     
   9 C9            -3.9728     1.7020     0.5682 C.2     
  10 O10           -1.4202     3.2755    -0.2889 O.2     
  11 O11            1.0271     2.0873     0.0834 O.2     
  12 C12           -4.6316     2.9203     0.0652 C.2     
  13 O13           -3.9620     3.8745    -0.2825 O.2     
  14 C14           -6.1035     2.9829    -0.0168 C.ar    
  15 C15           -6.7610     4.2107     0.1070 C.ar    
  16 C16           -8.1344     4.2647     0.0294 C.ar    
  17 C17           -8.8676     3.1006    -0.1716 C.ar    
  18 C18           -8.2179     1.8777    -0.2952 C.ar    
  19 C19           -6.8444     1.8154    -0.2241 C.ar    
  20 Br20           1.7266    -0.6099     1.2454 Br      
  21 Br21          -0.9331    -2.1531     2.1021 Br      
  22 O22          -10.2213     3.1582    -0.2470 O.3     
  23 C23          -10.9125     1.9249    -0.4547 C.3     
  24 C24          -12.4187     2.1877    -0.5119 C.3     
  25 O25          -12.7195     2.9873    -1.6575 O.3     
  26 C26          -14.1078     3.2922    -1.8052 C.3     
  27 H27           -5.6394     0.4609     1.2286 H       
  28 H28           -6.1922     5.1153     0.2635 H       
  29 H29           -8.6431     5.2126     0.1253 H       
  30 H30           -8.7912     0.9758    -0.4512 H       
  31 H31           -6.3405     0.8651    -0.3202 H       
  32 H32          -10.5856     1.4789    -1.3940 H       
  33 H33          -10.6937     1.2428     0.3669 H       
  34 H34          -12.9507     1.2389    -0.5812 H       
  35 H35          -12.7302     2.7139     0.3904 H       
  36 H36          -14.6749     2.3663    -1.9013 H       
  37 H37          -14.4543     3.8413    -0.9297 H       
  38 H38          -14.2530     3.9015    -2.6972 H       
@<TRIPOS>BOND
   1    1    2 1
   2    1   11 2
   3    1    6 1
   4    2    3 2
   5    2   20 1
   6    3    4 1
   7    3   21 1
   8    4    5 2
   9    4    7 1
  10    5    6 1
  11    5    9 1
  12    6   10 2
  13    7    8 1
  14    8    9 2
  15    8   27 1
  16    9   12 1
  17   12   13 2
  18   12   14 1
  19   14   15 ar
  20   14   19 ar
  21   15   16 ar
  22   15   28 1
  23   16   17 ar
  24   16   29 1
  25   17   18 ar
  26   17   22 1
  27   18   19 ar
  28   18   30 1
  29   19   31 1
  30   22   23 1
  31   23   24 1
  32   23   32 1
  33   23   33 1
  34   24   25 1
  35   24   34 1
  36   24   35 1
  37   25   26 1
  38   26   36 1
  39   26   37 1
  40   26   38 1

#	End of record

