#	Name: ASD10160318
#	Creating user name:	WinNT
#	Creation time:	15. 06. 2019 21:25

#	Modifying user name:	WinNT
#	Modification time:	15. 06. 2019 21:25

#	Program:	/corina/corina34_cracker 3.40 0067  02.08.2006

@<TRIPOS>MOLECULE
ASD10160318
  47   49    0    0    0
SMALL
NO_CHARGES


@<TRIPOS>ATOM
   1 C1             0.2261     1.4261     0.1399 C.2     
   2 C2             0.2090    -0.0442     0.0532 C.ar    
   3 C3            -0.9940    -0.7196    -0.1793 C.ar    
   4 C4            -1.0054    -2.0938    -0.2596 C.ar    
   5 C5             0.1774    -2.8129    -0.1095 C.ar    
   6 C6             1.3745    -2.1486     0.1215 C.ar    
   7 C7             1.3977    -0.7704     0.1975 C.ar    
   8 O8             1.2723     2.0107     0.3420 O.2     
   9 O9            -0.9175     2.1234    -0.0103 O.3     
  10 O10            0.1600    -4.1675    -0.1887 O.3     
  11 C11            2.0300    -5.3436    -1.0861 C.ar    
  12 C12            1.3303    -4.8326    -0.0020 C.ar    
  13 C13            1.8440    -5.0104     1.2784 C.ar    
  14 C14            3.0417    -5.6953     1.4184 C.ar    
  15 C15            3.6807    -6.1753     0.2892 C.ar    
  16 N16            3.1659    -5.9887    -0.9105 N.ar    
  17 C17            4.9826    -6.9208     0.4318 C.3     
  18 F18            4.7850    -8.0570     1.2238 F       
  19 Cl19           3.7310    -5.9470     2.9917 Cl      
  20 C20           -0.8268     3.4780     0.0520 C.ar    
  21 C21           -0.3719     4.1952    -1.0451 C.ar    
  22 C22           -0.2811     5.5721    -0.9794 C.ar    
  23 C23           -0.6428     6.2355     0.1786 C.ar    
  24 C24           -1.0961     5.5230     1.2735 C.ar    
  25 C25           -1.1946     4.1465     1.2108 C.ar    
  26 F26            2.5635    -0.1239     0.4166 F       
  27 Cl27          -2.4980    -2.9321    -0.5481 Cl      
  28 C28            5.4823    -7.3436    -0.9510 C.3     
  29 C29            6.0207    -6.0122     1.0934 C.3     
  30 C30           -0.5424     7.7375     0.2477 C.3     
  31 H31           -1.9125    -0.1636    -0.2953 H       
  32 H32            2.2895    -2.7106     0.2373 H       
  33 H33            1.6375    -5.2149    -2.0840 H       
  34 H34            1.3232    -4.6242     2.1421 H       
  35 H35           -0.0886     3.6775    -1.9495 H       
  36 H36            0.0729     6.1308    -1.8331 H       
  37 H37           -1.3777     6.0435     2.1769 H       
  38 H38           -1.5529     3.5909     2.0647 H       
  39 H39            5.6363    -6.4584    -1.5681 H       
  40 H40            6.4240    -7.8828    -0.8478 H       
  41 H41            4.7428    -7.9909    -1.4224 H       
  42 H42            5.6647    -5.7109     2.0786 H       
  43 H43            6.9623    -6.5514     1.1966 H       
  44 H44            6.1746    -5.1269     0.4764 H       
  45 H45           -1.4820     8.1801    -0.0828 H       
  46 H46           -0.3390     8.0413     1.2745 H       
  47 H47            0.2667     8.0777    -0.3988 H       
@<TRIPOS>BOND
   1    1    2 1
   2    1    8 2
   3    1    9 1
   4    2    3 ar
   5    2    7 ar
   6    3    4 ar
   7    3   31 1
   8    4    5 ar
   9    4   27 1
  10    5    6 ar
  11    5   10 1
  12    6    7 ar
  13    6   32 1
  14    7   26 1
  15    9   20 1
  16   10   12 1
  17   11   12 ar
  18   11   16 ar
  19   11   33 1
  20   12   13 ar
  21   13   14 ar
  22   13   34 1
  23   14   15 ar
  24   14   19 1
  25   15   16 ar
  26   15   17 1
  27   17   18 1
  28   17   28 1
  29   17   29 1
  30   20   21 ar
  31   20   25 ar
  32   21   22 ar
  33   21   35 1
  34   22   23 ar
  35   22   36 1
  36   23   24 ar
  37   23   30 1
  38   24   25 ar
  39   24   37 1
  40   25   38 1
  41   28   39 1
  42   28   40 1
  43   28   41 1
  44   29   42 1
  45   29   43 1
  46   29   44 1
  47   30   45 1
  48   30   46 1
  49   30   47 1

#	End of record

