#	Name: ASD16900001
#	Creating user name:	WinNT
#	Creation time:	15. 06. 2019 21:31

#	Modifying user name:	WinNT
#	Modification time:	15. 06. 2019 21:31

#	Program:	/corina/corina34_cracker 3.40 0067  02.08.2006

@<TRIPOS>MOLECULE
ASD16900001
  24   25    0    0    0
SMALL
NO_CHARGES


@<TRIPOS>ATOM
   1 O1            -3.3417     3.7129     0.4350 O.2     
   2 N2            -0.0162     1.3436     0.0094 N.am    
   3 O3            -0.9810    -0.7197     0.0072 O.2     
   4 C4             0.0021    -0.0041     0.0020 C.2     
   5 O5             1.2736    -0.4339    -0.0124 O.3     
   6 C6             2.1055     0.6363    -0.0146 C.ar    
   7 C7             3.4856     0.7605    -0.0271 C.ar    
   8 C8             4.0646     2.0150    -0.0259 C.ar    
   9 C9             3.2728     3.1496    -0.0118 C.ar    
  10 C10            1.8958     3.0357     0.0007 C.ar    
  11 C11            1.3081     1.7808    -0.0009 C.ar    
  12 C12           -1.2092     2.1938     0.0200 C.3     
  13 C13           -1.6170     2.4824     1.4661 C.3     
  14 C14           -2.8442     3.3570     1.4770 C.2     
  15 O15           -3.3847     3.7405     2.6442 O.3     
  16 H16            4.1079    -0.1221    -0.0375 H       
  17 H17            5.1403     2.1104    -0.0357 H       
  18 H18            3.7323     4.1270    -0.0102 H       
  19 H19            1.2793     3.9223     0.0117 H       
  20 H20           -0.9913     3.1320    -0.4902 H       
  21 H21           -2.0243     1.6825    -0.4922 H       
  22 H22           -1.8350     1.5442     1.9763 H       
  23 H23           -0.8019     2.9937     1.9783 H       
  24 H24           -4.1714     4.3012     2.6006 H       
@<TRIPOS>BOND
   1    1   14 2
   2    2    4 am
   3    2   11 1
   4    2   12 1
   5    3    4 2
   6    4    5 1
   7    5    6 1
   8    6    7 ar
   9    6   11 ar
  10    7    8 ar
  11    7   16 1
  12    8    9 ar
  13    8   17 1
  14    9   10 ar
  15    9   18 1
  16   10   11 ar
  17   10   19 1
  18   12   13 1
  19   12   20 1
  20   12   21 1
  21   13   14 1
  22   13   22 1
  23   13   23 1
  24   14   15 1
  25   15   24 1

#	End of record

