#	Name: ASD14760002
#	Creating user name:	WinNT
#	Creation time:	15. 06. 2019 21:31

#	Modifying user name:	WinNT
#	Modification time:	15. 06. 2019 21:31

#	Program:	/corina/corina34_cracker 3.40 0067  02.08.2006

@<TRIPOS>MOLECULE
ASD14760002
  45   46    0    0    0
SMALL
NO_CHARGES


@<TRIPOS>ATOM
   1 O1            -0.1757     1.5154     0.0047 O.3     
   2 O2             1.8149     1.6355    -1.2074 O.3     
   3 O3            -1.7143    -1.7805    -0.4370 O.3     
   4 O4             1.1189    -0.0346     2.0303 O.3     
   5 O5             0.4335     3.9279     1.2950 O.3     
   6 O6             0.4597     5.5477    -1.0623 O.3     
   7 O7             0.4430     4.1103    -3.5352 O.3     
   8 O8            -0.3134    -2.3528     2.8999 O.3     
   9 O9            -1.8164    -3.7000     0.8863 O.3     
  10 O10           -2.9788    -0.2740    -2.5213 O.3     
  11 O11            1.8602     0.1921    -3.6924 O.3     
  12 C12           -0.2627     0.0897     0.0482 C.3     
  13 C13           -0.1613    -0.3852     1.5010 C.3     
  14 C14            1.1626     2.0163     0.0057 C.3     
  15 C15           -1.6054    -0.3590    -0.5346 C.3     
  16 C16            1.1360     3.5433     0.1115 C.3     
  17 C17            0.4247     4.1202    -1.1163 C.3     
  18 C18            1.1409     3.6375    -2.3814 C.3     
  19 C19           -0.3337    -1.9067     1.5424 C.3     
  20 C20            1.1673     2.1068    -2.3909 C.3     
  21 C21           -1.6736    -2.2783     0.9019 C.3     
  22 C22           -1.6892     0.0595    -2.0039 C.3     
  23 C23            1.9337     1.6174    -3.6213 C.3     
  24 H24            0.5509    -0.3428    -0.5340 H       
  25 H25           -0.9434     0.0880     2.0947 H       
  26 H26            1.7051     1.6022     0.8556 H       
  27 H27           -2.4177     0.1070     0.0232 H       
  28 H28            2.1568     3.9233     0.1542 H       
  29 H29           -0.6112     3.7812    -1.1304 H       
  30 H30            2.1614     4.0204    -2.3907 H       
  31 H31            0.4784    -2.3805     0.9911 H       
  32 H32            0.1465     1.7259    -2.4230 H       
  33 H33           -2.4869    -1.8374     1.4784 H       
  34 H34           -0.9222    -0.4636    -2.5750 H       
  35 H35           -1.5323     1.1351    -2.0848 H       
  36 H36            2.9769     1.9241    -3.5453 H       
  37 H37            1.4926     2.0492    -4.5197 H       
  38 H38            1.2524    -0.3057     2.9489 H       
  39 H39            0.8266     3.5925     2.1123 H       
  40 H40            0.0293     5.9225    -0.2817 H       
  41 H41            0.3835     5.0738    -3.5915 H       
  42 H42           -0.4177    -3.3088     3.0013 H       
  43 H43           -2.6442    -4.0079     0.4925 H       
  44 H44           -3.1032    -0.0366    -3.4504 H       
  45 H45            2.3254    -0.1885    -4.4500 H       
@<TRIPOS>BOND
   1    1   12 1
   2    1   14 1
   3    2   14 1
   4    2   20 1
   5    3   15 1
   6    3   21 1
   7    4   38 1
   8    4   13 1
   9    5   39 1
  10    5   16 1
  11    6   40 1
  12    6   17 1
  13    7   41 1
  14    7   18 1
  15    8   42 1
  16    8   19 1
  17    9   43 1
  18    9   21 1
  19   10   22 1
  20   10   44 1
  21   11   23 1
  22   11   45 1
  23   12   13 1
  24   12   24 1
  25   12   15 1
  26   13   19 1
  27   13   25 1
  28   14   16 1
  29   14   26 1
  30   15   22 1
  31   15   27 1
  32   16   17 1
  33   16   28 1
  34   17   18 1
  35   17   29 1
  36   18   20 1
  37   18   30 1
  38   19   21 1
  39   19   31 1
  40   20   23 1
  41   20   32 1
  42   21   33 1
  43   22   34 1
  44   22   35 1
  45   23   36 1
  46   23   37 1

#	End of record

