#	Name: ASD10610056
#	Creating user name:	WinNT
#	Creation time:	15. 06. 2019 21:27

#	Modifying user name:	WinNT
#	Modification time:	15. 06. 2019 21:27

#	Program:	/corina/corina34_cracker 3.40 0067  02.08.2006

@<TRIPOS>MOLECULE
ASD10610056
  62   67    0    0    0
SMALL
NO_CHARGES


@<TRIPOS>ATOM
   1 O1            -0.8135     1.7140    -1.3456 O.3     
   2 N2            -1.3939     0.8418    -1.9485 N.2     
   3 C3            -1.9066     1.2810    -3.0658 C.2     
   4 C4            -1.5747     2.6579    -3.1456 C.2     
   5 C5            -0.8634     2.8888    -2.0017 C.2     
   6 C6            -0.2692     4.1690    -1.5718 C.2     
   7 O7            -0.3917     5.1596    -2.2660 O.2     
   8 N8             0.4094     4.2404    -0.4095 N.am    
   9 C9             1.0939     5.4806    -0.0359 C.3     
  10 C10            0.2275     6.7138     0.2280 C.3     
  11 C11            0.9030     5.9896     1.3943 C.3     
  12 C12            2.4388     5.6999    -0.6793 C.2     
  13 N13            3.2588     4.6534    -0.9004 N.am    
  14 O14            2.7834     6.8182    -0.9982 O.2     
  15 C15            4.6068     4.8778    -1.4283 C.3     
  16 C16            5.5396     3.7158    -1.0263 C.3     
  17 C17            5.4187     2.7611    -2.2329 C.3     
  18 C18            5.0538     3.6476    -3.4047 C.ar    
  19 C19            5.1251     3.4059    -4.7644 C.ar    
  20 C20            4.7283     4.3856    -5.6712 C.ar    
  21 C21            4.2583     5.6111    -5.2019 C.ar    
  22 C22            4.1898     5.8442    -3.8427 C.ar    
  23 C23            4.5870     4.8646    -2.9423 C.ar    
  24 F24            3.7345     7.0315    -3.3865 F       
  25 C25            4.8057     4.1265    -7.1288 C.ar    
  26 C26            3.6954     4.3793    -7.9504 C.ar    
  27 C27            3.7808     4.1320    -9.3200 C.ar    
  28 C28            4.9548     3.6405    -9.8610 C.ar    
  29 C29            6.0487     3.3918    -9.0492 C.ar    
  30 C30            5.9809     3.6370    -7.6905 C.ar    
  31 O31            1.0957     5.5942    -5.9536 O.3     
  32 N32            2.2258     5.1800    -6.1037 N.2     
  33 C33            2.4398     4.9055    -7.3652 C.2     
  34 N34            1.3000     5.1926    -8.0348 N.2     
  35 C35            0.4598     5.6269    -7.1289 C.2     
  36 C36           -0.9581     6.0786    -7.3669 C.3     
  37 F37            2.7173     4.3719   -10.1179 F       
  38 Cl38           7.5157     2.7748    -9.7427 Cl      
  39 O39           -2.6169     0.5623    -3.9720 O.3     
  40 C40           -2.8306    -0.8201    -3.6799 C.3     
  41 H41           -1.8250     3.3594    -3.9276 H       
  42 H42            0.4446     3.4706     0.1796 H       
  43 H43            0.6305     7.6837    -0.0634 H       
  44 H44           -0.8518     6.6023     0.1237 H       
  45 H45            0.2682     5.4017     2.0572 H       
  46 H46            1.7504     6.4831     1.8702 H       
  47 H47            2.9564     3.7516    -0.7099 H       
  48 H48            5.0030     5.8248    -1.0621 H       
  49 H49            6.5656     4.0651    -0.9099 H       
  50 H50            5.1874     3.2340    -0.1142 H       
  51 H51            6.3703     2.2627    -2.4176 H       
  52 H52            4.6338     2.0257    -2.0561 H       
  53 H53            5.4899     2.4551    -5.1241 H       
  54 H54            3.9491     6.3758    -5.8991 H       
  55 H55            5.0188     3.4493   -10.9221 H       
  56 H56            6.8394     3.4450    -7.0639 H       
  57 H57           -1.4057     6.3841    -6.4212 H       
  58 H58           -0.9597     6.9211    -8.0585 H       
  59 H59           -1.5344     5.2575    -7.7932 H       
  60 H60           -1.8690    -1.3261    -3.5935 H       
  61 H61           -3.3756    -0.9128    -2.7405 H       
  62 H62           -3.4102    -1.2757    -4.4827 H       
@<TRIPOS>BOND
   1    1    2 1
   2    1    5 1
   3    2    3 2
   4    3    4 1
   5    3   39 1
   6    4    5 2
   7    4   41 1
   8    5    6 1
   9    6    7 2
  10    6    8 am
  11    8    9 1
  12    8   42 1
  13    9   10 1
  14    9   11 1
  15    9   12 1
  16   10   11 1
  17   10   43 1
  18   10   44 1
  19   11   45 1
  20   11   46 1
  21   12   13 am
  22   12   14 2
  23   13   15 1
  24   13   47 1
  25   15   16 1
  26   15   23 1
  27   15   48 1
  28   16   17 1
  29   16   49 1
  30   16   50 1
  31   17   18 1
  32   17   51 1
  33   17   52 1
  34   18   19 ar
  35   18   23 ar
  36   19   20 ar
  37   19   53 1
  38   20   21 ar
  39   20   25 1
  40   21   22 ar
  41   21   54 1
  42   22   23 ar
  43   22   24 1
  44   25   26 ar
  45   25   30 ar
  46   26   27 ar
  47   26   33 1
  48   27   28 ar
  49   27   37 1
  50   28   29 ar
  51   28   55 1
  52   29   30 ar
  53   29   38 1
  54   30   56 1
  55   31   32 1
  56   31   35 1
  57   32   33 2
  58   33   34 1
  59   34   35 2
  60   35   36 1
  61   36   57 1
  62   36   58 1
  63   36   59 1
  64   39   40 1
  65   40   60 1
  66   40   61 1
  67   40   62 1

#	End of record

