#	Name: ASD11920040
#	Creating user name:	WinNT
#	Creation time:	15. 06. 2019 21:29

#	Modifying user name:	WinNT
#	Modification time:	15. 06. 2019 21:29

#	Program:	/corina/corina34_cracker 3.40 0067  02.08.2006

@<TRIPOS>MOLECULE
ASD11920040
  41   44    0    0    0
SMALL
NO_CHARGES


@<TRIPOS>ATOM
   1 N1             0.0522     1.4254    -0.0799 N.pl3   
   2 C2            -0.0377     0.0610    -0.0115 C.2     
   3 N3             1.1619    -0.4579     0.0914 N.2     
   4 C4             3.4836     0.5422     0.1817 C.ar    
   5 C5             4.2417    -0.7549     0.2988 C.3     
   6 C6             4.1586     1.7295     0.1594 C.ar    
   7 C7             3.4735     2.9315     0.0515 C.ar    
   8 C8             2.0972     2.9464    -0.0346 C.ar    
   9 C9             1.3936     1.7502    -0.0140 C.ar    
  10 C10            2.0877     0.5323     0.0953 C.ar    
  11 C11           -1.0647     2.3650    -0.2059 C.3     
  12 C12           -1.2687     2.7110    -1.6584 C.ar    
  13 C13           -2.0410     1.8919    -2.4636 C.ar    
  14 C14           -2.2278     2.2108    -3.7981 C.ar    
  15 C15           -1.6429     3.3462    -4.3262 C.ar    
  16 C16           -0.8715     4.1648    -3.5231 C.ar    
  17 C17           -0.6884     3.8512    -2.1868 C.ar    
  18 C18           -1.2973    -0.7107    -0.0477 C.ar    
  19 C19           -1.4694    -1.7309    -0.9875 C.ar    
  20 C20           -2.6506    -2.4482    -1.0149 C.ar    
  21 C21           -3.6608    -2.1586    -0.1156 C.ar    
  22 C22           -3.4984    -1.1503     0.8171 C.ar    
  23 C23           -2.3207    -0.4280     0.8614 C.ar    
  24 F24           -0.4840    -2.0150    -1.8670 F       
  25 F25           -2.1615     0.5525     1.7771 F       
  26 F26           -2.6122     0.7815    -1.9479 F       
  27 F27            0.0607     4.6548    -1.4006 F       
  28 H28            4.3610    -1.0123     1.3513 H       
  29 H29            3.6890    -1.5458    -0.2082 H       
  30 H30            5.2234    -0.6449    -0.1619 H       
  31 H31            5.2365     1.7329     0.2267 H       
  32 H32            4.0219     3.8617     0.0353 H       
  33 H33            1.5692     3.8848    -0.1184 H       
  34 H34           -1.9713     1.9068     0.1893 H       
  35 H35           -0.8415     3.2721     0.3558 H       
  36 H36           -2.8304     1.5719    -4.4266 H       
  37 H37           -1.7885     3.5938    -5.3673 H       
  38 H38           -0.4149     5.0518    -3.9369 H       
  39 H39           -2.7853    -3.2366    -1.7406 H       
  40 H40           -4.5814    -2.7226    -0.1421 H       
  41 H41           -4.2921    -0.9297     1.5155 H       
@<TRIPOS>BOND
   1    1    2 1
   2    1    9 1
   3    1   11 1
   4    2    3 2
   5    2   18 1
   6    3   10 1
   7    4    5 1
   8    4    6 ar
   9    4   10 ar
  10    5   28 1
  11    5   29 1
  12    5   30 1
  13    6    7 ar
  14    6   31 1
  15    7    8 ar
  16    7   32 1
  17    8    9 ar
  18    8   33 1
  19    9   10 ar
  20   11   12 1
  21   11   34 1
  22   11   35 1
  23   12   13 ar
  24   12   17 ar
  25   13   14 ar
  26   13   26 1
  27   14   15 ar
  28   14   36 1
  29   15   16 ar
  30   15   37 1
  31   16   17 ar
  32   16   38 1
  33   17   27 1
  34   18   19 ar
  35   18   23 ar
  36   19   20 ar
  37   19   24 1
  38   20   21 ar
  39   20   39 1
  40   21   22 ar
  41   21   40 1
  42   22   23 ar
  43   22   41 1
  44   23   25 1

#	End of record

