#	Name: ASD10410252
#	Creating user name:	WinNT
#	Creation time:	15. 06. 2019 21:27

#	Modifying user name:	WinNT
#	Modification time:	15. 06. 2019 21:27

#	Program:	/corina/corina34_cracker 3.40 0067  02.08.2006

@<TRIPOS>MOLECULE
ASD10410252
  67   72    0    0    0
SMALL
NO_CHARGES


@<TRIPOS>ATOM
   1 C1            -0.0311     1.3887    -0.1232 C.ar    
   2 C2            -0.0094     0.0058     0.0021 C.ar    
   3 C3             1.2017    -0.6604     0.1351 C.ar    
   4 C4             2.3845     0.0520     0.1429 C.ar    
   5 C5             2.3629     1.4349     0.0172 C.ar    
   6 C6             1.1516     2.1012    -0.1159 C.ar    
   7 N7             3.5623     2.1576     0.0255 N.pl3   
   8 C8             3.6612     3.3528    -0.6860 C.2     
   9 N9             4.6931     4.1619    -0.6731 N.2     
  10 N10            2.7204     3.8538    -1.4952 N.2     
  11 C11            3.1355     4.9929    -2.0064 C.2     
  12 N12            4.3814     5.2383    -1.5194 N.pl3   
  13 C13            5.1867     6.3376    -1.8028 C.ar    
  14 N14            2.4325     5.7949    -2.8845 N.pl3   
  15 C15            5.8191     7.0413    -0.7557 C.ar    
  16 N16            5.3663     6.7223    -3.0513 N.ar    
  17 C17            6.1221     7.7612    -3.3783 C.ar    
  18 C18            6.7689     8.5060    -2.4399 C.ar    
  19 C19            6.6320     8.1562    -1.0830 C.ar    
  20 C20            7.2663     8.8738    -0.0591 C.ar    
  21 C21            7.0955     8.4865     1.2362 C.ar    
  22 C22            6.3009     7.3884     1.5576 C.ar    
  23 C23            5.6665     6.6718     0.5875 C.ar    
  24 N24           -1.2084    -0.7164    -0.0053 N.3     
  25 C25           -0.9563    -2.1570     0.1389 C.3     
  26 C26           -2.2917    -2.9016     0.2061 C.3     
  27 N27           -3.0658    -2.6248    -1.0120 N.3     
  28 C28           -3.3179    -1.1842    -1.1563 C.3     
  29 C29           -1.9824    -0.4395    -1.2234 C.3     
  30 C30           -4.3241    -3.3828    -1.0198 C.3     
  31 C31           -5.1570    -2.9761    -2.2371 C.3     
  32 C32           -4.0171    -4.8800    -1.0891 C.3     
  33 C33           -5.3277    -5.6695    -1.0972 C.3     
  34 C34           -6.1605    -5.2628    -2.3145 C.3     
  35 C35           -6.4675    -3.7655    -2.2452 C.3     
  36 H36           -0.9727     1.9065    -0.2308 H       
  37 H37            1.2185    -1.7359     0.2329 H       
  38 H38            3.3263    -0.4661     0.2471 H       
  39 H39            1.1348     3.1766    -0.2140 H       
  40 H40            4.3244     1.8268     0.5263 H       
  41 H41            1.5460     5.5322    -3.1778 H       
  42 H42            2.8253     6.6208    -3.2078 H       
  43 H43            6.2283     8.0245    -4.4203 H       
  44 H44            7.3797     9.3476    -2.7316 H       
  45 H45            7.8855     9.7266    -0.2951 H       
  46 H46            7.5839     9.0389     2.0253 H       
  47 H47            6.1827     7.1027     2.5924 H       
  48 H48            5.0532     5.8229     0.8517 H       
  49 H49           -0.3838    -2.5135    -0.7173 H       
  50 H50           -0.3927    -2.3377     1.0543 H       
  51 H51           -2.1071    -3.9731     0.2840 H       
  52 H52           -2.8526    -2.5646     1.0779 H       
  53 H53           -3.8814    -1.0035    -2.0716 H       
  54 H54           -3.8904    -0.8276    -0.3000 H       
  55 H55           -2.1670     0.6319    -1.3013 H       
  56 H56           -1.4216    -0.7766    -2.0952 H       
  57 H57           -4.8831    -3.1683    -0.1090 H       
  58 H58           -5.3757    -1.9094    -2.1877 H       
  59 H59           -4.5980    -3.1906    -3.1479 H       
  60 H60           -3.4581    -5.0946    -1.9999 H       
  61 H61           -3.4238    -5.1698    -0.2218 H       
  62 H62           -5.1090    -6.7362    -1.1465 H       
  63 H63           -5.8867    -5.4550    -0.1863 H       
  64 H64           -5.6015    -5.4773    -3.2253 H       
  65 H65           -7.0942    -5.8252    -2.3202 H       
  66 H66           -7.0266    -3.5510    -1.3344 H       
  67 H67           -7.0609    -3.4758    -3.1124 H       
@<TRIPOS>BOND
   1    1    2 ar
   2    1    6 ar
   3    1   36 1
   4    2    3 ar
   5    2   24 1
   6    3    4 ar
   7    3   37 1
   8    4    5 ar
   9    4   38 1
  10    5    6 ar
  11    5    7 1
  12    6   39 1
  13    7    8 1
  14    7   40 1
  15    8    9 2
  16    8   10 1
  17    9   12 1
  18   10   11 2
  19   11   12 1
  20   11   14 1
  21   12   13 1
  22   13   15 ar
  23   13   16 ar
  24   14   41 1
  25   14   42 1
  26   15   19 ar
  27   15   23 ar
  28   16   17 ar
  29   17   18 ar
  30   17   43 1
  31   18   19 ar
  32   18   44 1
  33   19   20 ar
  34   20   21 ar
  35   20   45 1
  36   21   22 ar
  37   21   46 1
  38   22   23 ar
  39   22   47 1
  40   23   48 1
  41   24   25 1
  42   24   29 1
  43   25   26 1
  44   25   49 1
  45   25   50 1
  46   26   27 1
  47   26   51 1
  48   26   52 1
  49   27   28 1
  50   27   30 1
  51   28   29 1
  52   28   53 1
  53   28   54 1
  54   29   55 1
  55   29   56 1
  56   30   31 1
  57   30   32 1
  58   30   57 1
  59   31   35 1
  60   31   58 1
  61   31   59 1
  62   32   33 1
  63   32   60 1
  64   32   61 1
  65   33   34 1
  66   33   62 1
  67   33   63 1
  68   34   35 1
  69   34   64 1
  70   34   65 1
  71   35   66 1
  72   35   67 1

#	End of record

