#	Name: ASD11000316
#	Creating user name:	WinNT
#	Creation time:	15. 06. 2019 21:29

#	Modifying user name:	WinNT
#	Modification time:	15. 06. 2019 21:29

#	Program:	/corina/corina34_cracker 3.40 0067  02.08.2006

@<TRIPOS>MOLECULE
ASD11000316
  48   51    0    0    0
SMALL
NO_CHARGES


@<TRIPOS>ATOM
   1 N1            -0.0148     1.3212    -0.0611 N.am    
   2 C2             0.0042    -0.0231    -0.0813 C.2     
   3 C3             1.2159    -0.7464    -0.1023 C.2     
   4 C4             2.4028    -0.0907    -0.1020 C.2     
   5 C5             2.3930     1.3732    -0.0801 C.ar    
   6 C6             3.5852     2.1050    -0.0797 C.ar    
   7 C7             3.5418     3.4702    -0.0600 C.ar    
   8 C8             2.3248     4.1382    -0.0403 C.ar    
   9 C9             1.1380     3.4378    -0.0403 C.ar    
  10 C10            1.1574     2.0469    -0.0601 C.ar    
  11 O11           -1.0515    -0.6322    -0.0811 O.2     
  12 C12            4.8263     4.2582    -0.0591 C.3     
  13 C13            5.2495     4.5454    -1.5011 C.3     
  14 C14            8.8159     6.7334    -1.4994 C.ar    
  15 N15            8.8693     5.4096    -1.5182 N.ar    
  16 C16            7.7606     4.6882    -1.5191 C.ar    
  17 C17            6.5340     5.3334    -1.5002 C.ar    
  18 C18            6.5145     6.7193    -1.4808 C.ar    
  19 N19            7.6599     7.3808    -1.4810 N.ar    
  20 N20            9.9964     7.4576    -1.4932 N.pl3   
  21 C21            9.9618     8.8540    -1.5925 C.ar    
  22 C22           10.9003     9.6221    -0.9156 C.ar    
  23 C23           10.8655    10.9997    -1.0146 C.ar    
  24 C24            9.8928    11.6156    -1.7905 C.ar    
  25 C25            8.9557    10.8487    -2.4658 C.ar    
  26 C26            8.9928     9.4709    -2.3722 C.ar    
  27 O27            9.8588    12.9718    -1.8878 O.3     
  28 C28            8.8310    13.5382    -2.7031 C.3     
  29 F29            8.9654    13.0705    -4.0147 F       
  30 F30            7.5793    13.1659    -2.2012 F       
  31 Cl31          12.0379    11.9606    -0.1684 Cl      
  32 H32           -0.8655     1.7872    -0.0511 H       
  33 H33            1.1978    -1.8262    -0.1183 H       
  34 H34            3.3348    -0.6363    -0.1173 H       
  35 H35            4.5359     1.5928    -0.0946 H       
  36 H36            2.3081     5.2179    -0.0245 H       
  37 H37            0.1965     3.9666    -0.0245 H       
  38 H38            4.6747     5.1994     0.4694 H       
  39 H39            5.6054     3.6824     0.4404 H       
  40 H40            5.4010     3.6042    -2.0295 H       
  41 H41            4.4703     5.1212    -2.0006 H       
  42 H42            7.8105     3.6094    -1.5348 H       
  43 H43            5.5754     7.2525    -1.4654 H       
  44 H44           10.8472     6.9975    -1.4200 H       
  45 H45           11.6566     9.1427    -0.3118 H       
  46 H46            8.1988    11.3286    -3.0686 H       
  47 H47            8.2654     8.8739    -2.9020 H       
  48 H48            8.9175    14.6247    -2.6942 H       
@<TRIPOS>BOND
   1    1    2 am
   2    1   10 1
   3    1   32 1
   4    2    3 1
   5    2   11 2
   6    3    4 2
   7    3   33 1
   8    4    5 1
   9    4   34 1
  10    5    6 ar
  11    5   10 ar
  12    6    7 ar
  13    6   35 1
  14    7    8 ar
  15    7   12 1
  16    8    9 ar
  17    8   36 1
  18    9   10 ar
  19    9   37 1
  20   12   13 1
  21   12   38 1
  22   12   39 1
  23   13   17 1
  24   13   40 1
  25   13   41 1
  26   14   15 ar
  27   14   19 ar
  28   14   20 1
  29   15   16 ar
  30   16   17 ar
  31   16   42 1
  32   17   18 ar
  33   18   19 ar
  34   18   43 1
  35   20   21 1
  36   20   44 1
  37   21   22 ar
  38   21   26 ar
  39   22   23 ar
  40   22   45 1
  41   23   24 ar
  42   23   31 1
  43   24   25 ar
  44   24   27 1
  45   25   26 ar
  46   25   46 1
  47   26   47 1
  48   27   28 1
  49   28   29 1
  50   28   30 1
  51   28   48 1

#	End of record

