#	Name: ASD15170003
#	Creating user name:	WinNT
#	Creation time:	15. 06. 2019 21:31

#	Modifying user name:	WinNT
#	Modification time:	15. 06. 2019 21:31

#	Program:	/corina/corina34_cracker 3.40 0067  02.08.2006

@<TRIPOS>MOLECULE
ASD15170003
  63   66    0    0    0
SMALL
NO_CHARGES


@<TRIPOS>ATOM
   1 C1            -1.4991     0.7811     1.0034 C.3     
   2 C2            -4.0543    -0.5910     1.4176 C.3     
   3 C3            -2.8419    -0.3974    -5.8281 C.ar    
   4 C4            -2.9889     1.0576    -8.1876 C.ar    
   5 C5            -1.7717     0.5081    -7.7741 C.ar    
   6 C6            -1.7029    -0.2136    -6.6029 C.ar    
   7 C7            -6.3395     1.9632    -6.1913 C.ar    
   8 C8            -0.7158    -3.7789    -3.0602 C.ar    
   9 C9            -0.5668    -4.4046    -1.8322 C.ar    
  10 C10           -1.3813    -4.0062    -0.7841 C.ar    
  11 C11           -2.3132    -3.0014    -0.9918 C.ar    
  12 N12           -2.4336    -2.4245    -2.1673 N.ar    
  13 C13           -1.6735    -2.7768    -3.1971 C.ar    
  14 C14           -3.2008    -2.5645     0.1450 C.3     
  15 C15           -3.0626    -1.0544     0.3486 C.3     
  16 C16           -1.6373    -0.7289     0.7998 C.3     
  17 C17           -2.4908     1.2445     2.0724 C.3     
  18 C18           -3.9161     0.9190     1.6212 C.3     
  19 C19           -1.8411    -2.0942    -4.5010 C.2     
  20 O20           -1.1445    -2.4093    -5.4457 O.2     
  21 N21           -2.7660    -1.1238    -4.6397 N.am    
  22 C22           -4.0621     0.1492    -6.2349 C.ar    
  23 C23           -4.1359     0.8742    -7.4103 C.ar    
  24 C24           -3.0623     1.8302    -9.4415 C.2     
  25 O25           -1.9558     2.0064   -10.1901 O.3     
  26 O26           -4.1205     2.3080    -9.7996 O.2     
  27 N27           -5.2081    -0.0372    -5.4538 N.pl3   
  28 C28           -6.3880     0.6392    -5.7723 C.ar    
  29 C29           -7.5071     2.6337    -6.5007 C.ar    
  30 C30           -8.7250     1.9888    -6.3993 C.ar    
  31 C31           -8.7792     0.6644    -5.9868 C.ar    
  32 C32           -7.6110    -0.0103    -5.6704 C.ar    
  33 O33           -9.9778     0.0316    -5.8881 O.3     
  34 C34          -11.1409     0.7881    -6.2303 C.3     
  35 F35          -11.0475     1.2109    -7.5606 F       
  36 F36          -12.2791    -0.0101    -6.0735 F       
  37 F37          -11.2348     1.9040    -5.3918 F       
  38 H38           -0.4837     1.0130     1.3248 H       
  39 H39           -1.7095     1.2950     0.0654 H       
  40 H40           -5.0697    -0.8229     1.0961 H       
  41 H41           -3.8438    -1.1049     2.3555 H       
  42 H42           -0.8847     0.6491    -8.3739 H       
  43 H43           -0.7615    -0.6374    -6.2858 H       
  44 H44           -5.3890     2.4698    -6.2707 H       
  45 H45           -0.0951    -4.0614    -3.8977 H       
  46 H46            0.1667    -5.1854    -1.6957 H       
  47 H47           -1.2906    -4.4739     0.1851 H       
  48 H48           -4.2374    -2.8061    -0.0899 H       
  49 H49           -2.9046    -3.0827     1.0571 H       
  50 H50           -3.2730    -0.5406    -0.5894 H       
  51 H51           -0.9308    -1.0591     0.0382 H       
  52 H52           -1.4269    -1.2428     1.7378 H       
  53 H53           -2.2804     0.7307     3.0103 H       
  54 H54           -2.3923     2.3203     2.2174 H       
  55 H55           -4.1265     1.4329     0.6832 H       
  56 H56           -4.6226     1.2492     2.3827 H       
  57 H57           -3.3788    -0.9305    -3.9131 H       
  58 H58           -5.0777     1.2977    -7.7268 H       
  59 H59           -2.0533     2.5200   -11.0036 H       
  60 H60           -5.1832    -0.6361    -4.6912 H       
  61 H61           -7.4680     3.6640    -6.8222 H       
  62 H62           -9.6360     2.5158    -6.6416 H       
  63 H63           -7.6513    -1.0407    -5.3493 H       
@<TRIPOS>BOND
   1    1   16 1
   2    1   38 1
   3    1   39 1
   4    1   17 1
   5    2   15 1
   6    2   40 1
   7    2   41 1
   8    2   18 1
   9    3   22 ar
  10    3    6 ar
  11    3   21 1
  12    4   24 1
  13    4   23 ar
  14    4    5 ar
  15    5   42 1
  16    5    6 ar
  17    6   43 1
  18    7   44 1
  19    7   28 ar
  20    7   29 ar
  21    8   13 ar
  22    8   45 1
  23    8    9 ar
  24    9   10 ar
  25    9   46 1
  26   10   11 ar
  27   10   47 1
  28   11   14 1
  29   11   12 ar
  30   12   13 ar
  31   13   19 1
  32   14   48 1
  33   14   49 1
  34   14   15 1
  35   15   50 1
  36   15   16 1
  37   16   51 1
  38   16   52 1
  39   17   18 1
  40   17   53 1
  41   17   54 1
  42   18   55 1
  43   18   56 1
  44   19   21 am
  45   19   20 2
  46   21   57 1
  47   22   23 ar
  48   22   27 1
  49   23   58 1
  50   24   25 1
  51   24   26 2
  52   25   59 1
  53   27   60 1
  54   27   28 1
  55   28   32 ar
  56   29   61 1
  57   29   30 ar
  58   30   62 1
  59   30   31 ar
  60   31   32 ar
  61   31   33 1
  62   32   63 1
  63   33   34 1
  64   34   35 1
  65   34   36 1
  66   34   37 1

#	End of record

