#	Name: ASD11000204
#	Creating user name:	WinNT
#	Creation time:	15. 06. 2019 21:28

#	Modifying user name:	WinNT
#	Modification time:	15. 06. 2019 21:28

#	Program:	/corina/corina34_cracker 3.40 0067  02.08.2006

@<TRIPOS>MOLECULE
ASD11000204
  48   51    0    0    0
SMALL
NO_CHARGES


@<TRIPOS>ATOM
   1 N1            -0.0172     1.3215    -0.0112 N.ar    
   2 C2             0.0016    -0.0034    -0.0060 C.ar    
   3 N3             1.1403    -0.6810    -0.0155 N.ar    
   4 C4             2.3025    -0.0498    -0.0305 C.ar    
   5 C5             2.3192     1.3363    -0.0364 C.ar    
   6 C6             1.1098     2.0136    -0.0261 C.ar    
   7 N7            -1.1973    -0.6965     0.0102 N.pl3   
   8 C8            -1.2008    -2.0923    -0.1029 C.ar    
   9 C9            -2.1492    -2.8423     0.5800 C.ar    
  10 C10           -0.2595    -2.7268    -0.9027 C.ar    
  11 C11           -0.2639    -4.1032    -1.0141 C.ar    
  12 C12           -1.2086    -4.8520    -0.3278 C.ar    
  13 C13           -2.1523    -4.2186     0.4675 C.ar    
  14 O14           -1.2126    -6.2073    -0.4384 O.3     
  15 C15            3.6238     2.0904    -0.0530 C.3     
  16 C16            4.0504     2.3397    -1.5010 C.3     
  17 C17            5.3550     3.0939    -1.5177 C.ar    
  18 C18            6.5537     2.3943    -1.5272 C.ar    
  19 C19            7.7587     3.0635    -1.5425 C.ar    
  20 C20            7.7757     4.4541    -1.5488 C.ar    
  21 C21            6.5577     5.1603    -1.5395 C.ar    
  22 C22            5.3471     4.4602    -1.5289 C.ar    
  23 N23            8.9663     5.1490    -1.5635 N.am    
  24 C24            8.9822     6.4935    -1.5692 C.2     
  25 C25            7.7898     7.2484    -1.5604 C.2     
  26 C26            6.5862     6.6241    -1.5463 C.2     
  27 O27           10.0534     7.0748    -1.5818 O.2     
  28 C28           -2.2134    -6.9153     0.2959 C.3     
  29 F29           -3.4815    -6.5001    -0.1247 F       
  30 F30           -2.0737    -8.2888     0.0698 F       
  31 F31           -2.0650    -6.6500     1.6615 F       
  32 H32            3.2273    -0.6075    -0.0378 H       
  33 H33            1.0881     3.0934    -0.0307 H       
  34 H34           -2.0347    -0.2151     0.0999 H       
  35 H35           -2.8840    -2.3493     1.1993 H       
  36 H36            0.4756    -2.1439    -1.4377 H       
  37 H37            0.4681    -4.5968    -1.6361 H       
  38 H38           -2.8875    -4.8023     1.0016 H       
  39 H39            3.4983     3.0449     0.4583 H       
  40 H40            4.3891     1.5038     0.4553 H       
  41 H41            4.1759     1.3853    -2.0123 H       
  42 H42            3.2851     2.9263    -2.0094 H       
  43 H43            6.5422     1.3144    -1.5223 H       
  44 H44            8.6861     2.5101    -1.5491 H       
  45 H45            4.4101     4.9972    -1.5217 H       
  46 H46            9.8045     4.6610    -1.5695 H       
  47 H47            7.8361     8.3274    -1.5649 H       
  48 H48            5.6688     7.1940    -1.5402 H       
@<TRIPOS>BOND
   1    1    2 ar
   2    1    6 ar
   3    2    3 ar
   4    2    7 1
   5    3    4 ar
   6    4    5 ar
   7    4   32 1
   8    5    6 ar
   9    5   15 1
  10    6   33 1
  11    7    8 1
  12    7   34 1
  13    8    9 ar
  14    8   10 ar
  15    9   13 ar
  16    9   35 1
  17   10   11 ar
  18   10   36 1
  19   11   12 ar
  20   11   37 1
  21   12   13 ar
  22   12   14 1
  23   13   38 1
  24   14   28 1
  25   15   16 1
  26   15   39 1
  27   15   40 1
  28   16   17 1
  29   16   41 1
  30   16   42 1
  31   17   18 ar
  32   17   22 ar
  33   18   19 ar
  34   18   43 1
  35   19   20 ar
  36   19   44 1
  37   20   21 ar
  38   20   23 1
  39   21   22 ar
  40   21   26 1
  41   22   45 1
  42   23   24 am
  43   23   46 1
  44   24   25 1
  45   24   27 2
  46   25   26 2
  47   25   47 1
  48   26   48 1
  49   28   29 1
  50   28   30 1
  51   28   31 1

#	End of record

