#	Name: ASD10410083
#	Creating user name:	WinNT
#	Creation time:	15. 06. 2019 21:26

#	Modifying user name:	WinNT
#	Modification time:	15. 06. 2019 21:26

#	Program:	/corina/corina34_cracker 3.40 0067  02.08.2006

@<TRIPOS>MOLECULE
ASD10410083
  58   62    0    0    0
SMALL
NO_CHARGES


@<TRIPOS>ATOM
   1 C1             0.9776    -0.4674     0.3457 C.ar    
   2 C2             0.1239    -0.0765    -0.6759 C.ar    
   3 C3             0.4124     1.0580    -1.4271 C.ar    
   4 C4             1.5493     1.7952    -1.1552 C.ar    
   5 C5             2.4029     1.4026    -0.1321 C.ar    
   6 C6             2.1141     0.2700     0.6171 C.ar    
   7 F7            -0.4181     1.4388    -2.4223 F       
   8 N8             3.5552     2.1490     0.1434 N.pl3   
   9 C9             3.5517     3.5306    -0.0425 C.2     
  10 N10            4.5935     4.3170     0.0835 N.2     
  11 N11            2.4858     4.2646    -0.3837 N.2     
  12 C12            2.8299     5.5310    -0.4759 C.2     
  13 N13            4.1572     5.6236    -0.1895 N.pl3   
  14 C14            4.9263     6.7795    -0.1702 C.ar    
  15 N15            1.9941     6.5792    -0.8071 N.pl3   
  16 N16           -1.0284    -0.8250    -0.9512 N.3     
  17 C17           -0.6844    -2.2059    -1.3177 C.3     
  18 C18           -1.9694    -3.0091    -1.5324 C.3     
  19 N19           -2.7721    -2.3720    -2.5857 N.3     
  20 C20           -3.1161    -0.9911    -2.2191 C.3     
  21 C21           -1.8311    -0.1879    -2.0045 C.3     
  22 C22           -3.9800    -3.1566    -2.8742 C.3     
  23 N23            4.4942     7.8741     0.4400 N.ar    
  24 C24            5.2168     8.9824     0.4665 C.ar    
  25 N25            6.3962     9.0788    -0.1002 N.ar    
  26 C26            6.9278     8.0298    -0.7448 C.ar    
  27 C27            6.1927     6.8183    -0.7954 C.ar    
  28 C28            8.1843     8.0984    -1.3600 C.ar    
  29 C29            8.6820     7.0005    -2.0044 C.ar    
  30 C30            7.9513     5.8046    -2.0581 C.ar    
  31 C31            6.7262     5.7076    -1.4624 C.ar    
  32 O32            9.9005     7.0688    -2.6010 O.3     
  33 O33            8.4708     4.7280    -2.7060 O.3     
  34 C34            7.6788     3.5387    -2.7262 C.3     
  35 H35            0.7512    -1.3457     0.9320 H       
  36 H36            1.7742     2.6760    -1.7383 H       
  37 H37            2.7779    -0.0346     1.4127 H       
  38 H38            4.3558     1.7047     0.4637 H       
  39 H39            1.0578     6.4115    -0.9972 H       
  40 H40            2.3433     7.4832    -0.8497 H       
  41 H41           -0.0995    -2.2030    -2.2375 H       
  42 H42           -0.1011    -2.6602    -0.5168 H       
  43 H43           -1.7168    -4.0260    -1.8326 H       
  44 H44           -2.5413    -3.0349    -0.6048 H       
  45 H45           -3.6994    -0.5368    -3.0200 H       
  46 H46           -3.7010    -0.9940    -1.2994 H       
  47 H47           -2.0837     0.8290    -1.7043 H       
  48 H48           -1.2591    -0.1621    -2.9320 H       
  49 H49           -4.5865    -3.2350    -1.9719 H       
  50 H50           -4.5556    -2.6627    -3.6571 H       
  51 H51           -3.6943    -4.1542    -3.2077 H       
  52 H52            4.8178     9.8463     0.9773 H       
  53 H53            8.7564     9.0138    -1.3258 H       
  54 H54            6.1705     4.7827    -1.5089 H       
  55 H55           10.6356     6.8215    -2.0234 H       
  56 H56            7.4969     3.2059    -1.7044 H       
  57 H57            6.7271     3.7442    -3.2163 H       
  58 H58            8.2083     2.7588    -3.2735 H       
@<TRIPOS>BOND
   1    1    2 ar
   2    1    6 ar
   3    1   35 1
   4    2    3 ar
   5    2   16 1
   6    3    4 ar
   7    3    7 1
   8    4    5 ar
   9    4   36 1
  10    5    6 ar
  11    5    8 1
  12    6   37 1
  13    8    9 1
  14    8   38 1
  15    9   10 2
  16    9   11 1
  17   10   13 1
  18   11   12 2
  19   12   13 1
  20   12   15 1
  21   13   14 1
  22   14   23 ar
  23   14   27 ar
  24   15   39 1
  25   15   40 1
  26   16   17 1
  27   16   21 1
  28   17   18 1
  29   17   41 1
  30   17   42 1
  31   18   19 1
  32   18   43 1
  33   18   44 1
  34   19   20 1
  35   19   22 1
  36   20   21 1
  37   20   45 1
  38   20   46 1
  39   21   47 1
  40   21   48 1
  41   22   49 1
  42   22   50 1
  43   22   51 1
  44   23   24 ar
  45   24   25 ar
  46   24   52 1
  47   25   26 ar
  48   26   27 ar
  49   26   28 ar
  50   27   31 ar
  51   28   29 ar
  52   28   53 1
  53   29   30 ar
  54   29   32 1
  55   30   31 ar
  56   30   33 1
  57   31   54 1
  58   32   55 1
  59   33   34 1
  60   34   56 1
  61   34   57 1
  62   34   58 1

#	End of record

