#	Name: ASD10610178
#	Creating user name:	WinNT
#	Creation time:	15. 06. 2019 21:28

#	Modifying user name:	WinNT
#	Modification time:	15. 06. 2019 21:28

#	Program:	/corina/corina34_cracker 3.40 0067  02.08.2006

@<TRIPOS>MOLECULE
ASD10610178
  77   83    0    0    0
SMALL
NO_CHARGES


@<TRIPOS>ATOM
   1 C1            -0.7564    -0.1992     1.2299 C.2     
   2 N2            -0.0300    -0.0786     0.1011 N.am    
   3 O3            -0.3250    -0.8458     2.1639 O.2     
   4 O4            -1.9577     0.4013     1.3247 O.3     
   5 O5             1.2015    -2.2260    -1.2777 O.3     
   6 C6             1.3936    -2.1615     0.1414 C.3     
   7 C7             1.3248    -0.6328     0.0392 C.3     
   8 C8             1.8243    -0.9388    -1.3782 C.3     
   9 C9             2.3145     0.0984     0.9092 C.2     
  10 N10            2.2203     1.4343     1.0607 N.am    
  11 O11            3.1957    -0.5152     1.4729 O.2     
  12 C12            3.2447     2.1598     1.8160 C.3     
  13 C13            2.9066     2.1143     3.3075 C.3     
  14 C14            3.3671     6.2295     0.5055 C.ar    
  15 C15            4.4943     5.6484     1.0840 C.ar    
  16 C16            4.4503     4.3330     1.5056 C.ar    
  17 C17            3.2880     3.5937     1.3543 C.ar    
  18 C18            2.1680     4.1670     0.7808 C.ar    
  19 C19            2.2015     5.4799     0.3560 C.ar    
  20 C20            3.4057     7.6420     0.0567 C.ar    
  21 C21            2.9724     7.9841    -1.2338 C.ar    
  22 C22            3.0130     9.3155    -1.6442 C.ar    
  23 C23            3.4786    10.2904    -0.7808 C.ar    
  24 C24            3.9061     9.9511     0.4919 C.ar    
  25 C25            3.8664     8.6360     0.9149 C.ar    
  26 N26            2.0389     7.1106    -3.3879 N.2     
  27 N27            1.6971     5.9586    -3.8534 N.pl3   
  28 N28            1.9020     5.0586    -2.9561 N.2     
  29 N29            2.3797     5.6220    -1.8988 N.2     
  30 C30            2.4746     6.9347    -2.1557 C.2     
  31 C31            1.1595     5.7119    -5.1936 C.3     
  32 F32            2.5983     9.6534    -2.8847 F       
  33 F33            5.5414     3.7674     2.0667 F       
  34 Cl34           4.4891    11.1856     1.5643 Cl      
  35 C35           -2.6847     0.2284     2.5697 C.3     
  36 C36           -4.0166     0.9773     2.4907 C.3     
  37 C37           -4.8381     0.7080     3.7276 C.ar    
  38 C38           -5.3531    -0.4540     4.2622 C.ar    
  39 C39           -6.0864    -0.4116     5.4346 C.ar    
  40 C40           -6.3049     0.7963     6.0728 C.ar    
  41 C41           -5.7939     1.9636     5.5449 C.ar    
  42 C42           -5.0526     1.9282     4.3623 C.ar    
  43 C43           -4.3981     3.0106     3.5864 C.ar    
  44 C44           -4.3285     4.3875     3.8072 C.ar    
  45 C45           -3.6467     5.1938     2.9201 C.ar    
  46 C46           -3.0298     4.6438     1.8106 C.ar    
  47 C47           -3.0950     3.2804     1.5852 C.ar    
  48 C48           -3.7746     2.4666     2.4670 C.ar    
  49 H49           -0.4041     0.3751    -0.6703 H       
  50 H50            0.5705    -2.5948     0.7096 H       
  51 H51            2.3674    -2.5303     0.4634 H       
  52 H52            2.9106    -0.9884    -1.4528 H       
  53 H53            1.3786    -0.3008    -2.1413 H       
  54 H54            1.4744     1.9154     0.6696 H       
  55 H55            4.2164     1.6950     1.6494 H       
  56 H56            3.6687     2.6541     3.8695 H       
  57 H57            1.9348     2.5791     3.4741 H       
  58 H58            2.8752     1.0772     3.6414 H       
  59 H59            5.4001     6.2246     1.2019 H       
  60 H60            1.2650     3.5860     0.6647 H       
  61 H61            1.3257     5.9256    -0.0920 H       
  62 H62            3.5092    11.3214    -1.1009 H       
  63 H63            4.1968     8.3791     1.9105 H       
  64 H64            1.9797     5.5119    -5.8830 H       
  65 H65            0.4914     4.8511    -5.1644 H       
  66 H66            0.6072     6.5891    -5.5307 H       
  67 H67           -2.8735    -0.8321     2.7360 H       
  68 H68           -2.0928     0.6258     3.3942 H       
  69 H69           -4.5666     0.6712     1.6009 H       
  70 H70           -5.1837    -1.3980     3.7656 H       
  71 H71           -6.4891    -1.3226     5.8521 H       
  72 H72           -6.8781     0.8254     6.9876 H       
  73 H73           -5.9672     2.9045     6.0461 H       
  74 H74           -4.8087     4.8209     4.6721 H       
  75 H75           -3.5938     6.2587     3.0923 H       
  76 H76           -2.4969     5.2798     1.1193 H       
  77 H77           -2.6131     2.8531     0.7183 H       
@<TRIPOS>BOND
   1    1    2 am
   2    1    3 2
   3    1    4 1
   4    2    7 1
   5    2   49 1
   6    4   35 1
   7    5    6 1
   8    5    8 1
   9    6    7 1
  10    6   50 1
  11    6   51 1
  12    7    8 1
  13    7    9 1
  14    8   52 1
  15    8   53 1
  16    9   10 am
  17    9   11 2
  18   10   12 1
  19   10   54 1
  20   12   13 1
  21   12   17 1
  22   12   55 1
  23   13   56 1
  24   13   57 1
  25   13   58 1
  26   14   15 ar
  27   14   19 ar
  28   14   20 1
  29   15   16 ar
  30   15   59 1
  31   16   17 ar
  32   16   33 1
  33   17   18 ar
  34   18   19 ar
  35   18   60 1
  36   19   61 1
  37   20   21 ar
  38   20   25 ar
  39   21   22 ar
  40   21   30 1
  41   22   23 ar
  42   22   32 1
  43   23   24 ar
  44   23   62 1
  45   24   25 ar
  46   24   34 1
  47   25   63 1
  48   26   27 1
  49   26   30 2
  50   27   28 1
  51   27   31 1
  52   28   29 2
  53   29   30 1
  54   31   64 1
  55   31   65 1
  56   31   66 1
  57   35   36 1
  58   35   67 1
  59   35   68 1
  60   36   37 1
  61   36   48 1
  62   36   69 1
  63   37   38 ar
  64   37   42 ar
  65   38   39 ar
  66   38   70 1
  67   39   40 ar
  68   39   71 1
  69   40   41 ar
  70   40   72 1
  71   41   42 ar
  72   41   73 1
  73   42   43 1
  74   43   44 ar
  75   43   48 ar
  76   44   45 ar
  77   44   74 1
  78   45   46 ar
  79   45   75 1
  80   46   47 ar
  81   46   76 1
  82   47   48 ar
  83   47   77 1

#	End of record

