#	Name: ASD10160479
#	Creating user name:	WinNT
#	Creation time:	15. 06. 2019 21:26

#	Modifying user name:	WinNT
#	Modification time:	15. 06. 2019 21:26

#	Program:	/corina/corina34_cracker 3.40 0067  02.08.2006

@<TRIPOS>MOLECULE
ASD10160479
  27   27    0    0    0
SMALL
NO_CHARGES


@<TRIPOS>ATOM
   1 C1            -0.0179     1.4710     0.0101 C.2     
   2 C2             0.0021    -0.0041     0.0020 C.ar    
   3 C3             1.2210    -0.6895    -0.0133 C.ar    
   4 C4             1.2333    -2.0693    -0.0203 C.ar    
   5 C5             0.0409    -2.7755    -0.0127 C.ar    
   6 C6            -1.1718    -2.1005     0.0020 C.ar    
   7 C7            -1.1966    -0.7218     0.0155 C.ar    
   8 O8             1.0259     2.0927     0.0035 O.2     
   9 O9            -1.1938     2.1287     0.0193 O.3     
  10 F10            0.0589    -4.1264    -0.0201 F       
  11 Cl11          -2.6603    -2.9938     0.0103 Cl      
  12 Cl12           2.7155     0.1936    -0.0240 Cl      
  13 C13           -1.1375     3.5796     0.0269 C.3     
  14 C14           -0.4030     4.0681    -1.2232 C.3     
  15 C15           -2.5591     4.1451     0.0367 C.3     
  16 C16           -0.3911     4.0545     1.2752 C.3     
  17 H17            2.1738    -2.5999    -0.0322 H       
  18 H18           -2.1408    -0.1978     0.0318 H       
  19 H19           -0.9347     3.7298    -2.1125 H       
  20 H20           -0.3607     5.1572    -1.2175 H       
  21 H21            0.6098     3.6652    -1.2302 H       
  22 H22           -3.0824     3.7972     0.9273 H       
  23 H23           -2.5169     5.2343     0.0424 H       
  24 H24           -3.0909     3.8068    -0.8526 H       
  25 H25            0.6217     3.6516     1.2682 H       
  26 H26           -0.3488     5.1436     1.2809 H       
  27 H27           -0.9144     3.7065     2.1658 H       
@<TRIPOS>BOND
   1    1    2 1
   2    1    8 2
   3    1    9 1
   4    2    3 ar
   5    2    7 ar
   6    3    4 ar
   7    3   12 1
   8    4    5 ar
   9    4   17 1
  10    5    6 ar
  11    5   10 1
  12    6    7 ar
  13    6   11 1
  14    7   18 1
  15    9   13 1
  16   13   14 1
  17   13   16 1
  18   13   15 1
  19   14   19 1
  20   14   20 1
  21   14   21 1
  22   15   22 1
  23   15   23 1
  24   15   24 1
  25   16   25 1
  26   16   26 1
  27   16   27 1

#	End of record

