#	Name: ASD10410250
#	Creating user name:	WinNT
#	Creation time:	15. 06. 2019 21:27

#	Modifying user name:	WinNT
#	Modification time:	15. 06. 2019 21:27

#	Program:	/corina/corina34_cracker 3.40 0067  02.08.2006

@<TRIPOS>MOLECULE
ASD10410250
  56   59    0    0    0
SMALL
NO_CHARGES


@<TRIPOS>ATOM
   1 C1            -0.0183     1.3924    -0.0818 C.ar    
   2 C2            -0.0057     0.0094     0.0247 C.ar    
   3 C3             1.2007    -0.6690     0.1164 C.ar    
   4 C4             2.3904     0.0320     0.1014 C.ar    
   5 C5             2.3788     1.4166    -0.0056 C.ar    
   6 C6             1.1705     2.0950    -0.0969 C.ar    
   7 O7            -1.1769    -0.6817     0.0395 O.3     
   8 N8             3.5842     2.1279    -0.0204 N.pl3   
   9 C9             3.6713     3.3388    -0.7082 C.2     
  10 N10            4.7094     4.1404    -0.7105 N.2     
  11 N11            2.7115     3.8667    -1.4764 N.2     
  12 C12            3.1230     5.0135    -1.9740 C.2     
  13 N13            4.3786     5.2368    -1.5232 N.pl3   
  14 C14            5.1886     6.3431    -1.8099 C.ar    
  15 N15            2.4005     5.8423    -2.8120 N.pl3   
  16 C16            6.0507     6.8435    -0.8431 C.ar    
  17 C17            5.1353     6.9382    -3.0635 C.ar    
  18 C18            6.8479     7.9345    -1.1289 C.ar    
  19 C19            6.7880     8.5287    -2.3761 C.ar    
  20 C20            5.9351     8.0289    -3.3431 C.ar    
  21 C21           -1.0897    -2.1036     0.1514 C.3     
  22 C22           -2.4976    -2.7025     0.1515 C.3     
  23 N23           -3.1358    -2.4533    -1.1480 N.3     
  24 C24           -3.0070    -1.0330    -1.5378 C.3     
  25 C25           -4.5680    -2.8013    -1.1087 C.3     
  26 C26           -5.3566    -1.5395    -1.5177 C.3     
  27 C27           -4.3099    -0.7159    -2.3134 C.3     
  28 S28            7.8060     9.9211    -2.7364 S.o2    
  29 N29            9.2297     9.3412    -3.3522 N.am    
  30 O30            7.1671    10.6221    -3.7945 O.2     
  31 O31            8.1234    10.5200    -1.4875 O.2     
  32 H32           -0.9579     1.9195    -0.1573 H       
  33 H33            1.2095    -1.7457     0.2000 H       
  34 H34            3.3296    -0.4964     0.1732 H       
  35 H35            1.1605     3.1717    -0.1805 H       
  36 H36            4.3590     1.7791     0.4475 H       
  37 H37            1.5028     5.5944    -3.0834 H       
  38 H38            2.7912     6.6717    -3.1286 H       
  39 H39            6.0974     6.3804     0.1315 H       
  40 H40            4.4694     6.5484    -3.8191 H       
  41 H41            7.5186     8.3242    -0.3773 H       
  42 H42            5.8908     8.4950    -4.3163 H       
  43 H43           -0.5260    -2.5006    -0.6929 H       
  44 H44           -0.5838    -2.3646     1.0810 H       
  45 H45           -2.4355    -3.7766     0.3258 H       
  46 H46           -3.0892    -2.2398     0.9415 H       
  47 H47           -2.9294    -0.4020    -0.6524 H       
  48 H48           -2.1386    -0.8934    -2.1816 H       
  49 H49           -4.7725    -3.6100    -1.8103 H       
  50 H50           -4.8487    -3.1031    -0.0996 H       
  51 H51           -6.2030    -1.8027    -2.1520 H       
  52 H52           -5.6898    -0.9908    -0.6367 H       
  53 H53           -4.5388     0.3490    -2.2735 H       
  54 H54           -4.2439    -1.0611    -3.3452 H       
  55 H55            9.3624     8.3853    -3.4495 H       
  56 H56            9.9309     9.9575    -3.6155 H       
@<TRIPOS>BOND
   1    1    2 ar
   2    1    6 ar
   3    1   32 1
   4    2    3 ar
   5    2    7 1
   6    3    4 ar
   7    3   33 1
   8    4    5 ar
   9    4   34 1
  10    5    6 ar
  11    5    8 1
  12    6   35 1
  13    7   21 1
  14    8    9 1
  15    8   36 1
  16    9   10 2
  17    9   11 1
  18   10   13 1
  19   11   12 2
  20   12   13 1
  21   12   15 1
  22   13   14 1
  23   14   16 ar
  24   14   17 ar
  25   15   37 1
  26   15   38 1
  27   16   18 ar
  28   16   39 1
  29   17   20 ar
  30   17   40 1
  31   18   19 ar
  32   18   41 1
  33   19   20 ar
  34   19   28 1
  35   20   42 1
  36   21   22 1
  37   21   43 1
  38   21   44 1
  39   22   23 1
  40   22   45 1
  41   22   46 1
  42   23   25 1
  43   23   24 1
  44   24   27 1
  45   24   47 1
  46   24   48 1
  47   25   26 1
  48   25   49 1
  49   25   50 1
  50   26   27 1
  51   26   51 1
  52   26   52 1
  53   27   53 1
  54   27   54 1
  55   28   29 am
  56   28   30 2
  57   28   31 2
  58   29   55 1
  59   29   56 1

#	End of record

