#	Name: ASD10410027
#	Creating user name:	WinNT
#	Creation time:	15. 06. 2019 21:26

#	Modifying user name:	WinNT
#	Modification time:	15. 06. 2019 21:26

#	Program:	/corina/corina34_cracker 3.40 0067  02.08.2006

@<TRIPOS>MOLECULE
ASD10410027
  65   68    0    0    0
SMALL
NO_CHARGES


@<TRIPOS>ATOM
   1 C1            -0.3393     1.3114     0.0658 C.3     
   2 C2            -0.3941    -0.1688    -0.2116 C.ar    
   3 C3             1.0683     1.7013     0.4366 C.ar    
   4 N4             1.9575     1.9732    -0.5041 N.ar    
   5 C5             1.4460     1.7851     1.7689 C.ar    
   6 C6             2.7512     2.1479     2.0658 C.ar    
   7 N7             3.5913     2.4015     1.0759 N.ar    
   8 C8             3.1968     2.3171    -0.1858 C.ar    
   9 Cl9            0.3097     1.4439     3.0362 Cl      
  10 N10            4.1038     2.5897    -1.1975 N.pl3   
  11 C11            5.3843     3.0538    -0.8820 C.ar    
  12 C12            6.4687     2.6966    -1.6732 C.ar    
  13 C13            7.7322     3.1572    -1.3590 C.ar    
  14 C14            7.9184     3.9732    -0.2582 C.ar    
  15 C15            6.8410     4.3307     0.5315 C.ar    
  16 C16            5.5741     3.8779     0.2199 C.ar    
  17 C17            9.2987     4.4735     0.0819 C.3     
  18 N18            9.5376     5.7526    -0.5998 N.3     
  19 C19           10.7696     6.3877    -0.1113 C.3     
  20 C20           11.0244     7.6744    -0.8999 C.3     
  21 N21            9.8740     8.5759    -0.7465 N.3     
  22 C22            8.6421     7.9408    -1.2350 C.3     
  23 C23            8.3872     6.6541    -0.4464 C.3     
  24 C24           10.1129     9.8550    -1.4282 C.3     
  25 C25           -0.0654    -0.6557    -1.4775 C.ar    
  26 C26           -0.7638    -1.0462     0.7870 C.ar    
  27 C27           -0.8141    -2.4054     0.5341 C.ar    
  28 C28           -0.4945    -2.8942    -0.7204 C.ar    
  29 C29           -0.1187    -2.0283    -1.7262 C.ar    
  30 C30            0.3370     0.2782    -2.5507 C.2     
  31 O31           -0.3467     1.2527    -2.7964 O.2     
  32 N32            1.4620     0.0490    -3.2566 N.am    
  33 C33            1.8014     0.9085    -4.3934 C.3     
  34 C34            2.3456    -1.0597    -2.8872 C.3     
  35 H35           -0.6455     1.8596    -0.8252 H       
  36 H36           -1.0118     1.5518     0.8893 H       
  37 H37            3.0776     2.2228     3.0926 H       
  38 H38            3.8502     2.4585    -2.1246 H       
  39 H39            6.3239     2.0591    -2.5328 H       
  40 H40            8.5758     2.8795    -1.9735 H       
  41 H41            6.9899     4.9681     1.3906 H       
  42 H42            4.7330     4.1575     0.8371 H       
  43 H43            9.3783     4.6157     1.1596 H       
  44 H44           10.0401     3.7440    -0.2441 H       
  45 H45           10.6612     6.6252     0.9470 H       
  46 H46           11.6088     5.7056    -0.2472 H       
  47 H47           11.9219     8.1622    -0.5197 H       
  48 H48           11.1598     7.4338    -1.9544 H       
  49 H49            7.8028     8.6229    -1.0991 H       
  50 H50            8.7504     7.7033    -2.2933 H       
  51 H51            7.4897     6.1663    -0.8266 H       
  52 H52            8.2518     6.8947     0.6081 H       
  53 H53           10.2769     9.6753    -2.4907 H       
  54 H54            9.2462    10.5031    -1.2988 H       
  55 H55           10.9930    10.3356    -1.0009 H       
  56 H56           -1.0141    -0.6712     1.7684 H       
  57 H57           -1.1038    -3.0880     1.3193 H       
  58 H58           -0.5351    -3.9565    -0.9112 H       
  59 H59            0.1305    -2.4111    -2.7049 H       
  60 H60            2.4068     1.7463    -4.0474 H       
  61 H61            2.3637     0.3332    -5.1288 H       
  62 H62            0.8861     1.2856    -4.8497 H       
  63 H63            2.0890    -1.9404    -3.4758 H       
  64 H64            3.3807    -0.7803    -3.0836 H       
  65 H65            2.2244    -1.2831    -1.8272 H       
@<TRIPOS>BOND
   1    1    2 1
   2    1    3 1
   3    1   35 1
   4    1   36 1
   5    2   25 ar
   6    2   26 ar
   7    3    4 ar
   8    3    5 ar
   9    4    8 ar
  10    5    6 ar
  11    5    9 1
  12    6    7 ar
  13    6   37 1
  14    7    8 ar
  15    8   10 1
  16   10   11 1
  17   10   38 1
  18   11   12 ar
  19   11   16 ar
  20   12   13 ar
  21   12   39 1
  22   13   14 ar
  23   13   40 1
  24   14   15 ar
  25   14   17 1
  26   15   16 ar
  27   15   41 1
  28   16   42 1
  29   17   18 1
  30   17   43 1
  31   17   44 1
  32   18   19 1
  33   18   23 1
  34   19   20 1
  35   19   45 1
  36   19   46 1
  37   20   21 1
  38   20   47 1
  39   20   48 1
  40   21   22 1
  41   21   24 1
  42   22   23 1
  43   22   49 1
  44   22   50 1
  45   23   51 1
  46   23   52 1
  47   24   53 1
  48   24   54 1
  49   24   55 1
  50   25   30 1
  51   25   29 ar
  52   26   27 ar
  53   26   56 1
  54   27   28 ar
  55   27   57 1
  56   28   29 ar
  57   28   58 1
  58   29   59 1
  59   30   31 2
  60   30   32 am
  61   32   33 1
  62   32   34 1
  63   33   60 1
  64   33   61 1
  65   33   62 1
  66   34   63 1
  67   34   64 1
  68   34   65 1

#	End of record

