#	Name: ASD13410006
#	Creating user name:	WinNT
#	Creation time:	15. 06. 2019 21:30

#	Modifying user name:	WinNT
#	Modification time:	15. 06. 2019 21:30

#	Program:	/corina/corina34_cracker 3.40 0067  02.08.2006

@<TRIPOS>MOLECULE
ASD13410006
  43   45    0    0    0
SMALL
NO_CHARGES


@<TRIPOS>ATOM
   1 C1            -0.0230     1.3639    -0.1328 C.ar    
   2 C2             0.0754     0.1214    -0.7323 C.ar    
   3 C3             1.2820    -0.5520    -0.7354 C.ar    
   4 C4             2.3972     0.0214    -0.1354 C.ar    
   5 C5             2.2942     1.2690     0.4648 C.ar    
   6 C6             1.0845     1.9365     0.4646 C.ar    
   7 N7            -1.3156     2.0851    -0.1362 N.pl3   
   8 O8            -2.2911     1.5842    -0.6665 O.2     
   9 O9            -1.4039     3.1794     0.3913 O.2     
  10 N10            3.6206    -0.6574    -0.1361 N.am    
  11 C11            4.7749     0.0340    -0.2129 C.2     
  12 C12            6.0658    -0.6685    -0.0823 C.ar    
  13 O13            4.7525     1.2368    -0.3899 O.2     
  14 C14            6.0960    -2.0502     0.1211 C.ar    
  15 C15            7.3060    -2.7009     0.2419 C.ar    
  16 C16            8.4931    -1.9893     0.1628 C.ar    
  17 C17            8.4761    -0.6232    -0.0376 C.ar    
  18 C18            7.2684     0.0457    -0.1674 C.ar    
  19 O19            7.2510     1.3875    -0.3705 O.3     
  20 C20            7.0384     2.1668     0.7082 C.2     
  21 C21            6.8938     3.6278     0.5467 C.ar    
  22 O22            6.9658     1.6677     1.8133 O.2     
  23 C23            6.6734     4.4383     1.6623 C.ar    
  24 C24            6.5397     5.8021     1.5043 C.ar    
  25 C25            6.6230     6.3673     0.2441 C.ar    
  26 C26            6.8412     5.5701    -0.8656 C.ar    
  27 C27            6.9825     4.2055    -0.7215 C.ar    
  28 N28            6.4776     7.8314     0.0823 N.pl3   
  29 O29            6.2851     8.5357     1.0571 O.2     
  30 O30            6.5504     8.3318    -1.0258 O.2     
  31 Cl31           7.3427    -4.4180     0.4947 Cl      
  32 Cl32           1.4049    -2.1120    -1.4869 Cl      
  33 H33           -0.7917    -0.3231    -1.1981 H       
  34 H34            3.1586     1.7171     0.9320 H       
  35 H35            1.0041     2.9070     0.9315 H       
  36 H36            3.6379    -1.6257    -0.0812 H       
  37 H37            5.1733    -2.6079     0.1840 H       
  38 H38            9.4365    -2.5062     0.2587 H       
  39 H39            9.4050    -0.0755    -0.0975 H       
  40 H40            6.6075     3.9984     2.6464 H       
  41 H41            6.3693     6.4302     2.3663 H       
  42 H42            6.9052     6.0177    -1.8464 H       
  43 H43            7.1572     3.5849    -1.5879 H       
@<TRIPOS>BOND
   1    1    2 ar
   2    1    6 ar
   3    1    7 1
   4    2    3 ar
   5    2   33 1
   6    3    4 ar
   7    3   32 1
   8    4    5 ar
   9    4   10 1
  10    5    6 ar
  11    5   34 1
  12    6   35 1
  13    7    8 2
  14    7    9 2
  15   10   11 am
  16   10   36 1
  17   11   12 1
  18   11   13 2
  19   12   14 ar
  20   12   18 ar
  21   14   15 ar
  22   14   37 1
  23   15   16 ar
  24   15   31 1
  25   16   17 ar
  26   16   38 1
  27   17   18 ar
  28   17   39 1
  29   18   19 1
  30   19   20 1
  31   20   21 1
  32   20   22 2
  33   21   23 ar
  34   21   27 ar
  35   23   24 ar
  36   23   40 1
  37   24   25 ar
  38   24   41 1
  39   25   26 ar
  40   25   28 1
  41   26   27 ar
  42   26   42 1
  43   27   43 1
  44   28   29 2
  45   28   30 2

#	End of record

