#	Name: ASD14670001
#	Creating user name:	WinNT
#	Creation time:	15. 06. 2019 21:31

#	Modifying user name:	WinNT
#	Modification time:	15. 06. 2019 21:31

#	Program:	/corina/corina34_cracker 3.40 0067  02.08.2006

@<TRIPOS>MOLECULE
ASD14670001
  38   40    0    0    0
SMALL
NO_CHARGES


@<TRIPOS>ATOM
   1 C1             0.4548     1.0303     0.4416 C.ar    
   2 C2             0.6699    -0.3195     0.6303 C.ar    
   3 C3             1.9682    -0.8030     0.7149 C.ar    
   4 C4             3.0346     0.0718     0.5987 C.ar    
   5 C5             2.8143     1.4284     0.3978 C.ar    
   6 C6             1.5267     1.9073     0.3355 C.ar    
   7 C7             1.2214     3.3741     0.1815 C.3     
   8 C8             4.0269     2.3103     0.2277 C.3     
   9 C9             2.0174     3.9715    -0.9821 C.3     
  10 C10            3.7448     3.7357     0.6999 C.3     
  11 N11            3.2618     4.5224    -0.4422 N.3     
  12 C12            4.2905     4.6209    -1.4862 C.3     
  13 C13            5.1681     1.7409     1.0305 C.ar    
  14 C14            6.3384     1.3651     0.3980 C.ar    
  15 C15            7.3852     0.8428     1.1344 C.ar    
  16 C16            7.2619     0.6968     2.5034 C.ar    
  17 C17            6.0920     1.0734     3.1362 C.ar    
  18 C18            5.0468     1.5998     2.4003 C.ar    
  19 O19            2.1914    -2.1293     0.9114 O.3     
  20 Br20          -0.7967    -1.5045     0.7735 Br      
  21 H21           -0.5548     1.4072     0.3714 H       
  22 H22            4.0453    -0.3031     0.6650 H       
  23 H23            0.1558     3.5011    -0.0095 H       
  24 H24            1.4854     3.8946     1.1021 H       
  25 H25            4.3081     2.3319    -0.8252 H       
  26 H26            2.2444     3.1937    -1.7111 H       
  27 H27            1.4385     4.7642    -1.4560 H       
  28 H28            2.9839     3.7187     1.4801 H       
  29 H29            4.6609     4.1802     1.0888 H       
  30 H30            3.9882     5.3628    -2.2253 H       
  31 H31            5.2371     4.9208    -1.0365 H       
  32 H32            4.4096     3.6522    -1.9715 H       
  33 H33            6.4347     1.4792    -0.6717 H       
  34 H34            8.2992     0.5485     0.6401 H       
  35 H35            8.0795     0.2880     3.0787 H       
  36 H36            5.9955     0.9590     4.2057 H       
  37 H37            4.1341     1.8975     2.8951 H       
  38 H38            2.2653    -2.6410     0.0942 H       
@<TRIPOS>BOND
   1    1    2 ar
   2    1    6 ar
   3    1   21 1
   4    2    3 ar
   5    2   20 1
   6    3    4 ar
   7    3   19 1
   8    4    5 ar
   9    4   22 1
  10    5    6 ar
  11    5    8 1
  12    6    7 1
  13    7    9 1
  14    7   23 1
  15    7   24 1
  16    8   10 1
  17    8   13 1
  18    8   25 1
  19    9   11 1
  20    9   26 1
  21    9   27 1
  22   10   11 1
  23   10   28 1
  24   10   29 1
  25   11   12 1
  26   12   30 1
  27   12   31 1
  28   12   32 1
  29   13   14 ar
  30   13   18 ar
  31   14   15 ar
  32   14   33 1
  33   15   16 ar
  34   15   34 1
  35   16   17 ar
  36   16   35 1
  37   17   18 ar
  38   17   36 1
  39   18   37 1
  40   19   38 1

#	End of record

