#	Name: ASD13040005
#	Creating user name:	WinNT
#	Creation time:	15. 06. 2019 21:30

#	Modifying user name:	WinNT
#	Modification time:	15. 06. 2019 21:30

#	Program:	/corina/corina34_cracker 3.40 0067  02.08.2006

@<TRIPOS>MOLECULE
ASD13040005
  72   77    0    0    0
SMALL
NO_CHARGES


@<TRIPOS>ATOM
   1 C1            -0.0187     1.5258     0.0104 C.3     
   2 C2            -0.7640     7.4881    -1.9525 C.ar    
   3 C3            -1.4068     8.0798    -3.0390 C.ar    
   4 C4            -2.0436     5.9010    -3.7626 C.ar    
   5 C5            -1.3817     5.3716    -2.6441 C.ar    
   6 C6            -0.6720     3.5591    -1.2862 C.3     
   7 C7            -0.7587     2.0326    -1.2291 C.3     
   8 C8            -4.1142     5.3328    -8.1063 C.3     
   9 C9            -0.7348     2.0192     1.2692 C.3     
  10 O10            0.1973    10.3695     3.6507 O.2     
  11 C11           -0.1455     9.2149     3.5534 C.2     
  12 O12           -0.2416     8.4485     4.6511 O.3     
  13 C13           -0.4651     8.6354     2.1994 C.3     
  14 C14           -0.3399     9.5620     0.9884 C.3     
  15 C15           -1.0725     9.1645    -0.3110 C.3     
  16 C16            0.6963     8.4452     1.2218 C.3     
  17 C17            0.5032     7.4661     0.0439 C.3     
  18 N18           -0.1123     8.2869    -1.0287 N.3     
  19 N19           -0.7718     6.1730    -1.7875 N.ar    
  20 C20           -2.0517     7.2912    -3.9526 C.ar    
  21 O21           -1.3632     4.0325    -2.4439 O.3     
  22 C22            0.0021    -0.0041     0.0020 C.3     
  23 C23           -2.7236     5.0119    -4.7189 C.2     
  24 O24           -2.7145     3.8084    -4.5427 O.2     
  25 N25           -3.3561     5.5314    -5.7896 N.am    
  26 C26           -4.0328     4.6467    -6.7412 C.3     
  27 C27           -5.4453     4.3418    -6.2386 C.3     
  28 C28           -6.2327     5.6471    -6.1071 C.3     
  29 C29           -6.1519     3.4178    -7.2324 C.3     
  30 C30           -6.2334     4.1039    -8.5975 C.3     
  31 O31           -6.8934     3.2409    -9.5258 O.3     
  32 C32           -4.8209     4.4088    -9.1002 C.3     
  33 C33           -7.0208     5.4092    -8.4661 C.3     
  34 C34           -6.3141     6.3332    -7.4722 C.3     
  35 C35           -4.9016     6.6381    -7.9749 C.3     
  36 H36            1.0039     1.9031     0.0027 H       
  37 H37           -1.3962     9.1531    -3.1586 H       
  38 H38           -1.1289     3.9826    -0.3918 H       
  39 H39            0.3738     3.8619    -1.3382 H       
  40 H40           -0.3018     1.6091    -2.1235 H       
  41 H41           -1.8045     1.7297    -1.1771 H       
  42 H42           -3.1079     5.5500    -8.4644 H       
  43 H43           -0.2076     1.6581     2.1523 H       
  44 H44           -0.7496     3.1091     1.2752 H       
  45 H45           -1.7574     1.6419     1.2770 H       
  46 H46           -0.0264     8.8645     5.4971 H       
  47 H47           -1.2624     7.8923     2.1831 H       
  48 H48           -0.1194    10.6185     1.1409 H       
  49 H49           -1.9871     8.6183    -0.0799 H       
  50 H50           -1.2991    10.0494    -0.9057 H       
  51 H51            1.7133     8.6649     1.5466 H       
  52 H52            1.4647     7.0711    -0.2841 H       
  53 H53           -0.1643     6.6538     0.3315 H       
  54 H54           -2.5524     7.7289    -4.8035 H       
  55 H55            0.5123    -0.3556    -0.8948 H       
  56 H56            0.5293    -0.3651     0.8851 H       
  57 H57           -1.0205    -0.3814     0.0098 H       
  58 H58           -3.3634     6.4912    -5.9301 H       
  59 H59           -3.4718     3.7168    -6.8348 H       
  60 H60           -5.3873     3.8530    -5.2660 H       
  61 H61           -7.2390     5.4298    -5.7490 H       
  62 H62           -5.7293     6.3053    -5.3991 H       
  63 H63           -5.5910     2.4879    -7.3261 H       
  64 H64           -7.1583     3.2006    -6.8743 H       
  65 H65           -6.9807     3.6122   -10.4144 H       
  66 H66           -4.8789     4.8976   -10.0727 H       
  67 H67           -4.2599     3.4789    -9.1938 H       
  68 H68           -7.0788     5.8980    -9.4386 H       
  69 H69           -8.0271     5.1920    -8.1080 H       
  70 H70           -6.8751     7.2631    -7.3786 H       
  71 H71           -4.3982     7.2963    -7.2669 H       
  72 H72           -4.9596     7.1269    -8.9474 H       
@<TRIPOS>BOND
   1    1   22 1
   2    1   36 1
   3    1    7 1
   4    1    9 1
   5    2   18 1
   6    2    3 ar
   7    2   19 ar
   8    3   37 1
   9    3   20 ar
  10    4    5 ar
  11    4   20 ar
  12    4   23 1
  13    5   19 ar
  14    5   21 1
  15    6   38 1
  16    6   39 1
  17    6    7 1
  18    6   21 1
  19    7   40 1
  20    7   41 1
  21    8   35 1
  22    8   26 1
  23    8   42 1
  24    8   32 1
  25    9   43 1
  26    9   44 1
  27    9   45 1
  28   10   11 2
  29   11   12 1
  30   11   13 1
  31   12   46 1
  32   13   47 1
  33   13   14 1
  34   13   16 1
  35   14   15 1
  36   14   48 1
  37   14   16 1
  38   15   49 1
  39   15   50 1
  40   15   18 1
  41   16   51 1
  42   16   17 1
  43   17   18 1
  44   17   52 1
  45   17   53 1
  46   20   54 1
  47   22   55 1
  48   22   56 1
  49   22   57 1
  50   23   24 2
  51   23   25 am
  52   25   58 1
  53   25   26 1
  54   26   59 1
  55   26   27 1
  56   27   28 1
  57   27   60 1
  58   27   29 1
  59   28   61 1
  60   28   62 1
  61   28   34 1
  62   29   63 1
  63   29   64 1
  64   29   30 1
  65   30   33 1
  66   30   31 1
  67   30   32 1
  68   31   65 1
  69   32   66 1
  70   32   67 1
  71   33   34 1
  72   33   68 1
  73   33   69 1
  74   34   70 1
  75   34   35 1
  76   35   71 1
  77   35   72 1

#	End of record

