#	Name: ASD13010041
#	Creating user name:	WinNT
#	Creation time:	15. 06. 2019 21:30

#	Modifying user name:	WinNT
#	Modification time:	15. 06. 2019 21:30

#	Program:	/corina/corina34_cracker 3.40 0067  02.08.2006

@<TRIPOS>MOLECULE
ASD13010041
  39   42    0    0    0
SMALL
NO_CHARGES


@<TRIPOS>ATOM
   1 C1             0.0052     1.3971    -0.4002 C.ar    
   2 C2             0.0318     0.0293    -0.5552 C.ar    
   3 C3             1.2323    -0.6668    -0.4965 C.ar    
   4 C4             2.4088    -0.0072    -0.2835 C.ar    
   5 C5             1.1923     2.0903    -0.1825 C.ar    
   6 N6             1.4975     3.4164     0.0061 N.pl3   
   7 C7             2.4072     1.3810    -0.1233 C.ar    
   8 C8             3.4532     2.3774     0.1130 C.2     
   9 N9             2.8788     3.5483     0.1814 N.2     
  10 C10            0.5762     4.4649     0.0198 C.ar    
  11 O11            4.7828     2.1286     0.2394 O.3     
  12 C12            5.6116     3.1838     0.4571 C.ar    
  13 C13            6.1692     3.8634    -0.6173 C.ar    
  14 C14            5.8975     3.5875     1.7542 C.ar    
  15 C15            6.7404     4.6614     1.9724 C.ar    
  16 C16            7.2985     5.3330     0.9004 C.ar    
  17 C17            7.0114     4.9366    -0.3927 C.ar    
  18 C18           -1.2545     6.5492     0.0478 C.ar    
  19 C19           -1.4789     5.4094     0.8258 C.ar    
  20 C20           -0.5675     4.3751     0.8100 C.ar    
  21 C21            0.8050     5.6016    -0.7522 C.ar    
  22 C22           -0.1031     6.6389    -0.7403 C.ar    
  23 C23           -2.2277     7.6568     0.0622 C.2     
  24 O24           -3.2260     7.5795     0.7508 O.2     
  25 O25           -2.0102     8.7548    -0.6881 O.3     
  26 Cl26           5.8098     3.3660    -2.2412 Cl      
  27 Cl27           5.1968     2.7452     3.1007 Cl      
  28 F28            1.9180     5.6877    -1.5131 F       
  29 F29           -0.7840     3.2733     1.5612 F       
  30 H30           -0.9325     1.9304    -0.4517 H       
  31 H31           -0.8900    -0.5077    -0.7237 H       
  32 H32            1.2353    -1.7397    -0.6202 H       
  33 H33            3.3375    -0.5566    -0.2387 H       
  34 H34            6.9629     4.9762     2.9813 H       
  35 H35            7.9564     6.1719     1.0734 H       
  36 H36            7.4458     5.4655    -1.2281 H       
  37 H37           -2.3673     5.3377     1.4357 H       
  38 H38            0.0726     7.5180    -1.3424 H       
  39 H39           -2.6763     9.4545    -0.6458 H       
@<TRIPOS>BOND
   1    1    2 ar
   2    1    5 ar
   3    1   30 1
   4    2    3 ar
   5    2   31 1
   6    3    4 ar
   7    3   32 1
   8    4    7 ar
   9    4   33 1
  10    5    7 ar
  11    5    6 1
  12    6    9 1
  13    6   10 1
  14    7    8 1
  15    8    9 2
  16    8   11 1
  17   10   21 ar
  18   10   20 ar
  19   11   12 1
  20   12   14 ar
  21   12   13 ar
  22   13   17 ar
  23   13   26 1
  24   14   15 ar
  25   14   27 1
  26   15   16 ar
  27   15   34 1
  28   16   17 ar
  29   16   35 1
  30   17   36 1
  31   18   19 ar
  32   18   22 ar
  33   18   23 1
  34   19   20 ar
  35   19   37 1
  36   20   29 1
  37   21   22 ar
  38   21   28 1
  39   22   38 1
  40   23   24 2
  41   23   25 1
  42   25   39 1

#	End of record

