#	Name: ASD10420142
#	Creating user name:	WinNT
#	Creation time:	15. 06. 2019 21:27

#	Modifying user name:	WinNT
#	Modification time:	15. 06. 2019 21:27

#	Program:	/corina/corina34_cracker 3.40 0067  02.08.2006

@<TRIPOS>MOLECULE
ASD10420142
  27   28    0    0    0
SMALL
NO_CHARGES


@<TRIPOS>ATOM
   1 C1            -0.0161     1.3386     0.0094 C.2     
   2 C2             0.0021    -0.0041     0.0020 C.2     
   3 C3             3.6296     3.5101    -0.0124 C.ar    
   4 C4             2.4239     4.1891     0.0019 C.ar    
   5 C5             3.6523     2.1265    -0.0205 C.ar    
   6 C6             1.2350     3.4901     0.0090 C.ar    
   7 C7             2.4715     1.4140    -0.0135 C.ar    
   8 C8            -1.2472    -2.1557     0.0024 C.ar    
   9 C9            -2.4847    -0.0778     0.0258 C.ar    
  10 C10           -2.4343    -2.8572     0.0104 C.ar    
  11 C11           -3.6669    -0.7876     0.0338 C.ar    
  12 C12           -3.6457    -2.1768     0.0256 C.ar    
  13 C13            1.2500     2.0928     0.0014 C.ar    
  14 C14           -1.2638    -0.7581     0.0101 C.ar    
  15 O15           -4.8131    -2.8722     0.0330 O.3     
  16 Br16          -2.4135    -4.7481     0.0001 Br      
  17 Br17          -5.3196     0.1313     0.0551 Br      
  18 H18           -0.9587     1.8658     0.0167 H       
  19 H19            0.9446    -0.5313    -0.0098 H       
  20 H20            4.5574     4.0628    -0.0221 H       
  21 H21            2.4139     5.2690     0.0082 H       
  22 H22            4.5971     1.6034    -0.0319 H       
  23 H23            0.2948     4.0213     0.0208 H       
  24 H24            2.4907     0.3342    -0.0198 H       
  25 H25           -0.3060    -2.6854    -0.0053 H       
  26 H26           -2.5022     1.0020     0.0314 H       
  27 H27           -5.1426    -3.0782     0.9185 H       
@<TRIPOS>BOND
   1    1    2 2
   2    1   13 1
   3    1   18 1
   4    2   14 1
   5    2   19 1
   6    3    4 ar
   7    3    5 ar
   8    3   20 1
   9    4    6 ar
  10    4   21 1
  11    5    7 ar
  12    5   22 1
  13    6   13 ar
  14    6   23 1
  15    7   13 ar
  16    7   24 1
  17    8   10 ar
  18    8   14 ar
  19    8   25 1
  20    9   11 ar
  21    9   14 ar
  22    9   26 1
  23   10   12 ar
  24   10   16 1
  25   11   12 ar
  26   11   17 1
  27   12   15 1
  28   15   27 1

#	End of record

