#	Name: ASD13490079
#	Creating user name:	WinNT
#	Creation time:	15. 06. 2019 21:30

#	Modifying user name:	WinNT
#	Modification time:	15. 06. 2019 21:30

#	Program:	/corina/corina34_cracker 3.40 0067  02.08.2006

@<TRIPOS>MOLECULE
ASD13490079
  54   57    0    0    0
SMALL
NO_CHARGES


@<TRIPOS>ATOM
   1 C1             0.1745     1.3892    -0.6298 C.ar    
   2 C2             0.1847     0.0124    -0.6906 C.ar    
   3 C3             1.1803    -0.7069    -0.0426 C.ar    
   4 C4             2.1742    -0.0385     0.6725 C.ar    
   5 C5             2.1690     1.3417     0.7364 C.ar    
   6 C6             1.1669     2.0644     0.0842 C.ar    
   7 N7             1.1863    -2.1053    -0.1067 N.pl3   
   8 C8             0.1277    -2.9378     0.1515 C.2     
   9 C9             0.5692    -4.1971    -0.0280 C.2     
  10 N10            1.8607    -4.1414    -0.3859 N.2     
  11 C11            2.2405    -2.8941    -0.4423 C.2     
  12 C12           -0.2468    -5.4524     0.1436 C.3     
  13 O13            3.1474    -0.7449     1.3068 O.3     
  14 C14            4.1329     0.0046     2.0202 C.3     
  15 C15            1.1571     3.5396     0.1495 C.2     
  16 O16            2.1940     4.1468     0.3348 O.2     
  17 N17           -0.0012     4.2130     0.0037 N.am    
  18 C18           -1.3280     3.6433    -0.2968 C.3     
  19 C19           -2.3777     4.6257     0.2552 C.3     
  20 C20           -1.5594     5.7940     0.8519 C.3     
  21 C21           -0.2034     5.6757     0.1189 C.3     
  22 O22           -2.1840     7.0471     0.5663 O.3     
  23 C23           -2.0453     8.0311     1.4933 C.ar    
  24 C24           -2.7412     9.2230     1.3510 C.ar    
  25 C25           -1.2121     7.8435     2.5863 C.ar    
  26 C26           -1.0727     8.8455     3.5273 C.ar    
  27 C27           -1.7628    10.0343     3.3803 C.ar    
  28 C28           -2.5985    10.2216     2.2945 C.ar    
  29 C29           -3.6517     9.4281     0.1677 C.3     
  30 F30           -4.2370    10.6965     0.2439 F       
  31 F31           -2.9102     9.3269    -1.0143 F       
  32 F32           -4.6531     8.4512     0.1751 F       
  33 H33           -0.5986     1.9463    -1.1381 H       
  34 H34           -0.5835    -0.5082    -1.2431 H       
  35 H35            2.9376     1.8607     1.2899 H       
  36 H36           -0.8688    -2.6405     0.4431 H       
  37 H37            3.2280    -2.5471    -0.7088 H       
  38 H38           -0.7195    -5.7109    -0.8039 H       
  39 H39            0.4034    -6.2681     0.4597 H       
  40 H40           -1.0146    -5.2862     0.8993 H       
  41 H41            4.8479    -0.6787     2.4782 H       
  42 H42            4.6548     0.6677     1.3302 H       
  43 H43            3.6478     0.5967     2.7961 H       
  44 H44           -1.4505     3.5361    -1.3746 H       
  45 H45           -1.4347     2.6739     0.1899 H       
  46 H46           -3.0198     4.9851    -0.5490 H       
  47 H47           -2.9741     4.1460     1.0312 H       
  48 H48           -1.4270     5.6635     1.9259 H       
  49 H49            0.5929     6.1287     0.7095 H       
  50 H50           -0.2607     6.1350    -0.8679 H       
  51 H51           -0.6730     6.9148     2.7018 H       
  52 H52           -0.4244     8.6997     4.3787 H       
  53 H53           -1.6526    10.8163     4.1169 H       
  54 H54           -3.1397    11.1497     2.1840 H       
@<TRIPOS>BOND
   1    1    2 ar
   2    1    6 ar
   3    1   33 1
   4    2    3 ar
   5    2   34 1
   6    3    4 ar
   7    3    7 1
   8    4    5 ar
   9    4   13 1
  10    5    6 ar
  11    5   35 1
  12    6   15 1
  13    7    8 1
  14    7   11 1
  15    8    9 2
  16    8   36 1
  17    9   10 1
  18    9   12 1
  19   10   11 2
  20   11   37 1
  21   12   38 1
  22   12   39 1
  23   12   40 1
  24   13   14 1
  25   14   41 1
  26   14   42 1
  27   14   43 1
  28   15   16 2
  29   15   17 am
  30   17   18 1
  31   17   21 1
  32   18   19 1
  33   18   44 1
  34   18   45 1
  35   19   20 1
  36   19   46 1
  37   19   47 1
  38   20   21 1
  39   20   22 1
  40   20   48 1
  41   21   49 1
  42   21   50 1
  43   22   23 1
  44   23   25 ar
  45   23   24 ar
  46   24   28 ar
  47   24   29 1
  48   25   26 ar
  49   25   51 1
  50   26   27 ar
  51   26   52 1
  52   27   28 ar
  53   27   53 1
  54   28   54 1
  55   29   30 1
  56   29   31 1
  57   29   32 1

#	End of record

