#	Name: ASD10420007
#	Creating user name:	WinNT
#	Creation time:	15. 06. 2019 21:27

#	Modifying user name:	WinNT
#	Modification time:	15. 06. 2019 21:27

#	Program:	/corina/corina34_cracker 3.40 0067  02.08.2006

@<TRIPOS>MOLECULE
ASD10420007
  82   87    0    0    0
SMALL
NO_CHARGES


@<TRIPOS>ATOM
   1 N1            -0.1671     0.2517     0.6520 N.pl3   
   2 C2             0.4980    -0.6346    -0.1517 C.2     
   3 C3             0.3127    -0.2363    -1.4879 C.2     
   4 C4            -0.4797     0.9108    -1.4718 C.2     
   5 C5            -0.7644     1.2049    -0.1478 C.2     
   6 C6            -0.1489     0.0938     2.0075 C.2     
   7 C7             0.5219    -0.9328     2.5744 C.2     
   8 C8             1.2120    -1.8549     1.7739 C.2     
   9 C9             1.1997    -1.7084     0.4183 C.2     
  10 C10           -1.5451     2.2958     0.3079 C.2     
  11 N11           -0.9581     3.4789     0.5767 N.am    
  12 C12            0.5039     3.6277     0.5142 C.3     
  13 C13            0.9843     4.2674     1.8211 C.3     
  14 N14            0.2425     5.5138     2.0542 N.3     
  15 C15           -1.1926     5.2547     2.2305 C.3     
  16 C16           -1.7628     4.6569     0.9343 C.3     
  17 O17           -2.7469     2.1645     0.4568 O.2     
  18 C18           -0.9386     1.6926    -2.6756 C.3     
  19 C19           -2.2718     1.1648    -3.1391 C.ar    
  20 C20           -3.4218     1.8968    -2.9109 C.ar    
  21 C21           -2.3435    -0.0486    -3.7973 C.ar    
  22 C22           -3.5661    -0.5341    -4.2231 C.ar    
  23 C23           -4.7177     0.1935    -3.9914 C.ar    
  24 C24           -4.6465     1.4117    -3.3367 C.ar    
  25 F25           -5.7718     2.1237    -3.1093 F       
  26 C26           -3.3426     3.2223    -2.1983 C.3     
  27 C27            0.8578    -0.9102    -2.6887 C.ar    
  28 C28            0.4382    -2.1987    -3.0199 C.ar    
  29 C29            0.9495    -2.8210    -4.1402 C.ar    
  30 C30            1.8767    -2.1699    -4.9342 C.ar    
  31 C31            2.2972    -0.8921    -4.6107 C.ar    
  32 C32            1.7887    -0.2568    -3.4965 C.ar    
  33 C33           -1.9134     6.5669     2.5456 C.3     
  34 C34           -1.4377     7.0948     3.8745 C.2     
  35 N35           -1.9384     8.2481     4.3599 N.am    
  36 O36           -0.6042     6.4817     4.5073 O.2     
  37 C37           -1.4759     8.7612     5.6518 C.3     
  38 C38           -2.1967    10.0735     5.9669 C.3     
  39 C39           -1.8084    10.5470     7.3710 C.3     
  40 C40           -1.7860    11.1411     4.9482 C.3     
  41 C41           -2.4502    12.4701     5.3176 C.3     
  42 O42           -2.0719    12.8372     6.6458 O.3     
  43 C43           -2.4717    11.8989     7.6468 C.3     
  44 H44           -0.6763     0.7978     2.6341 H       
  45 H45            0.5271    -1.0438     3.6486 H       
  46 H46            1.7488    -2.6748     2.2278 H       
  47 H47            1.7267    -2.4105    -0.2107 H       
  48 H48            0.9668     2.6482     0.3941 H       
  49 H49            0.7712     4.2677    -0.3267 H       
  50 H50            0.8093     3.5798     2.6486 H       
  51 H51            2.0497     4.4863     1.7488 H       
  52 H52            0.6190     6.0163     2.8440 H       
  53 H53           -1.3374     4.5533     3.0522 H       
  54 H54           -1.7127     5.3979     0.1364 H       
  55 H55           -2.7982     4.3563     1.0942 H       
  56 H56           -1.0371     2.7450    -2.4095 H       
  57 H57           -0.2076     1.5875    -3.4773 H       
  58 H58           -1.4439    -0.6176    -3.9794 H       
  59 H59           -3.6209    -1.4823    -4.7373 H       
  60 H60           -5.6725    -0.1857    -4.3247 H       
  61 H61           -3.1294     4.0107    -2.9201 H       
  62 H62           -4.2933     3.4277    -1.7062 H       
  63 H63           -2.5479     3.1873    -1.4531 H       
  64 H64           -0.2851    -2.7082    -2.4005 H       
  65 H65            0.6254    -3.8185    -4.3977 H       
  66 H66            2.2743    -2.6613    -5.8099 H       
  67 H67            3.0215    -0.3891    -5.2343 H       
  68 H68            2.1174     0.7409    -3.2453 H       
  69 H69           -1.6963     7.2970     1.7659 H       
  70 H70           -2.9881     6.3900     2.5886 H       
  71 H71           -2.6050     8.7384     3.8538 H       
  72 H72           -1.6930     8.0311     6.4315 H       
  73 H73           -0.4013     8.9382     5.6088 H       
  74 H74           -3.2745     9.9180     5.9197 H       
  75 H75           -2.1466     9.8183     8.1077 H       
  76 H76           -0.7253    10.6533     7.4330 H       
  77 H77           -0.7025    11.2594     4.9613 H       
  78 H78           -2.1082    10.8373     3.9522 H       
  79 H79           -2.1277    13.2437     4.6208 H       
  80 H80           -3.5336    12.3620     5.2649 H       
  81 H81           -3.5554    11.7834     7.6246 H       
  82 H82           -2.1646    12.2611     8.6279 H       
@<TRIPOS>BOND
   1    1    2 1
   2    1    6 1
   3    1    5 1
   4    2    3 2
   5    2    9 1
   6    3    4 1
   7    3   27 1
   8    4    5 2
   9    4   18 1
  10    5   10 1
  11    6    7 2
  12    6   44 1
  13    7    8 1
  14    7   45 1
  15    8    9 2
  16    8   46 1
  17    9   47 1
  18   10   11 am
  19   10   17 2
  20   11   12 1
  21   11   16 1
  22   12   13 1
  23   12   48 1
  24   12   49 1
  25   13   14 1
  26   13   50 1
  27   13   51 1
  28   14   15 1
  29   14   52 1
  30   15   16 1
  31   15   33 1
  32   15   53 1
  33   16   54 1
  34   16   55 1
  35   18   19 1
  36   18   56 1
  37   18   57 1
  38   19   20 ar
  39   19   21 ar
  40   20   26 1
  41   20   24 ar
  42   21   22 ar
  43   21   58 1
  44   22   23 ar
  45   22   59 1
  46   23   24 ar
  47   23   60 1
  48   24   25 1
  49   26   61 1
  50   26   62 1
  51   26   63 1
  52   27   28 ar
  53   27   32 ar
  54   28   29 ar
  55   28   64 1
  56   29   30 ar
  57   29   65 1
  58   30   31 ar
  59   30   66 1
  60   31   32 ar
  61   31   67 1
  62   32   68 1
  63   33   34 1
  64   33   69 1
  65   33   70 1
  66   34   35 am
  67   34   36 2
  68   35   37 1
  69   35   71 1
  70   37   38 1
  71   37   72 1
  72   37   73 1
  73   38   39 1
  74   38   40 1
  75   38   74 1
  76   39   43 1
  77   39   75 1
  78   39   76 1
  79   40   41 1
  80   40   77 1
  81   40   78 1
  82   41   42 1
  83   41   79 1
  84   41   80 1
  85   42   43 1
  86   43   81 1
  87   43   82 1

#	End of record

