#	Name: ASD13680025
#	Creating user name:	WinNT
#	Creation time:	15. 06. 2019 21:30

#	Modifying user name:	WinNT
#	Modification time:	15. 06. 2019 21:30

#	Program:	/corina/corina34_cracker 3.40 0067  02.08.2006

@<TRIPOS>MOLECULE
ASD13680025
  51   54    0    0    0
SMALL
NO_CHARGES


@<TRIPOS>ATOM
   1 C1             0.1256     1.1881    -0.1222 C.3     
   2 C2            -0.0489    -0.3158    -0.1648 C.2     
   3 C3             0.5843    -1.1860     0.6273 C.2     
   4 C4             1.5995    -0.8045     1.6909 C.3     
   5 C5             2.0815     1.6194     1.3562 C.3     
   6 C6             1.6117     1.5420    -0.0936 C.3     
   7 C7             1.3179     0.6044     2.2040 C.3     
   8 C8             0.1963    -2.5619     0.3583 C.2     
   9 C9            -0.7190    -2.6814    -0.6485 C.2     
  10 S10           -1.1242    -1.1528    -1.2767 S.3     
  11 N11           -1.2455    -3.8820    -1.0963 N.am    
  12 C12            0.7346    -3.7082     1.0960 C.2     
  13 O13            0.1755    -4.1005     2.1034 O.2     
  14 N14            1.8488    -4.3279     0.6589 N.am    
  15 C15           -2.1458    -3.8907    -2.0992 C.2     
  16 C16           -2.7058    -5.1680    -2.5756 C.ar    
  17 C17           -2.2192    -6.3791    -2.0761 C.ar    
  18 C18           -2.7469    -7.5695    -2.5255 C.ar    
  19 C19           -3.7593    -7.5738    -3.4723 C.ar    
  20 C20           -4.2506    -6.3868    -3.9753 C.ar    
  21 C21           -3.7354    -5.1756    -3.5297 C.ar    
  22 O22           -2.4959    -2.8447    -2.6111 O.2     
  23 C23            2.4232    -5.3453     1.4176 C.ar    
  24 C24            3.5063    -6.0552     0.9107 C.ar    
  25 C25            4.0674    -7.0627     1.6749 C.ar    
  26 C26            3.5239    -7.3269     2.9250 C.ar    
  27 C27            2.4479    -6.5823     3.3654 C.ar    
  28 N28            1.9366    -5.6238     2.6166 N.ar    
  29 N29           -4.2322    -3.9793    -4.0303 N.pl3   
  30 H30           -0.3347     1.6307    -1.0055 H       
  31 H31           -0.3574     1.5830     0.7716 H       
  32 H32            1.5373    -1.5100     2.5194 H       
  33 H33            2.6015    -0.8398     1.2632 H       
  34 H34            3.1484     1.4012     1.4033 H       
  35 H35            1.9009     2.6225     1.7424 H       
  36 H36            2.1790     0.7742    -0.6198 H       
  37 H37            1.7657     2.5060    -0.5783 H       
  38 H38            0.2491     0.8078     2.1386 H       
  39 H39            1.6395     0.6836     3.2425 H       
  40 H40           -0.9661    -4.7164    -0.6880 H       
  41 H41            2.2507    -4.0655    -0.1841 H       
  42 H42           -1.4300    -6.3818    -1.3388 H       
  43 H43           -2.3696    -8.5044    -2.1383 H       
  44 H44           -4.1659    -8.5124    -3.8187 H       
  45 H45           -5.0395    -6.3988    -4.7128 H       
  46 H46            3.9037    -5.8234    -0.0663 H       
  47 H47            4.9089    -7.6311     1.3073 H       
  48 H48            3.9384    -8.1070     3.5463 H       
  49 H49            2.0219    -6.7842     4.3371 H       
  50 H50           -3.8163    -3.1392    -3.7808 H       
  51 H51           -4.9951    -3.9837    -4.6293 H       
@<TRIPOS>BOND
   1    1    2 1
   2    1    6 1
   3    1   30 1
   4    1   31 1
   5    2   10 1
   6    2    3 2
   7    3    4 1
   8    3    8 1
   9    4    7 1
  10    4   32 1
  11    4   33 1
  12    5    6 1
  13    5    7 1
  14    5   34 1
  15    5   35 1
  16    6   36 1
  17    6   37 1
  18    7   38 1
  19    7   39 1
  20    8    9 2
  21    8   12 1
  22    9   10 1
  23    9   11 1
  24   11   15 am
  25   11   40 1
  26   12   13 2
  27   12   14 am
  28   14   23 1
  29   14   41 1
  30   15   16 1
  31   15   22 2
  32   16   17 ar
  33   16   21 ar
  34   17   18 ar
  35   17   42 1
  36   18   19 ar
  37   18   43 1
  38   19   20 ar
  39   19   44 1
  40   20   21 ar
  41   20   45 1
  42   21   29 1
  43   23   24 ar
  44   23   28 ar
  45   24   25 ar
  46   24   46 1
  47   25   26 ar
  48   25   47 1
  49   26   27 ar
  50   26   48 1
  51   27   28 ar
  52   27   49 1
  53   29   50 1
  54   29   51 1

#	End of record

