#	Name: ASD10950025
#	Creating user name:	WinNT
#	Creation time:	15. 06. 2019 21:28

#	Modifying user name:	WinNT
#	Modification time:	15. 06. 2019 21:28

#	Program:	/corina/corina34_cracker 3.40 0067  02.08.2006

@<TRIPOS>MOLECULE
ASD10950025
  49   52    0    0    0
SMALL
NO_CHARGES


@<TRIPOS>ATOM
   1 C1            -0.3810     0.8123     0.3482 C.3     
   2 C2            -0.3488    -0.6469    -0.0271 C.2     
   3 O3            -0.3829    -1.4970     0.8385 O.2     
   4 C4            -0.2788    -1.0260    -1.3886 C.2     
   5 C5            -0.1320    -2.2846    -1.8715 C.2     
   6 O6            -0.0268    -3.4044    -1.1219 O.3     
   7 C7            -0.1060    -2.2361    -3.3501 C.2     
   8 O8             0.0142    -3.2017    -4.0773 O.2     
   9 N9            -0.2351    -0.9645    -3.7698 N.am    
  10 C10           -0.3598    -0.1072    -2.5853 C.3     
  11 C11           -1.6821     0.6154    -2.6059 C.ar    
  12 C12           -1.7231     1.9867    -2.4361 C.ar    
  13 C13           -2.9360     2.6495    -2.4549 C.ar    
  14 C14           -4.1079     1.9412    -2.6440 C.ar    
  15 C15           -4.0669     0.5700    -2.8148 C.ar    
  16 C16           -2.8536    -0.0923    -2.8002 C.ar    
  17 N17           -5.4068     2.6508    -2.6632 N.pl3   
  18 O18           -5.4430     3.8589    -2.5124 O.2     
  19 O19           -6.4393     2.0267    -2.8299 O.2     
  20 C20           -0.2538    -0.5153    -5.1641 C.3     
  21 C21           -1.6942    -0.5141    -5.6802 C.3     
  22 C22           -1.7134    -0.0520    -7.1145 C.2     
  23 C23           -1.9338     1.1994    -7.5474 C.2     
  24 N24           -1.8738     1.2376    -8.9139 N.pl3   
  25 C25           -1.6066    -0.0202    -9.4060 C.ar    
  26 C26           -1.4890    -0.8821    -8.3005 C.ar    
  27 C27           -1.2156    -2.2369    -8.4993 C.ar    
  28 C28           -1.0635    -2.7189    -9.7686 C.ar    
  29 C29           -1.1781    -1.8724   -10.8630 C.ar    
  30 C30           -1.4441    -0.5320   -10.6895 C.ar    
  31 H31            0.6346     1.1623     0.5333 H       
  32 H32           -0.8206     1.3874    -0.4667 H       
  33 H33           -0.9801     0.9425     1.2493 H       
  34 H34            0.0723    -4.2157    -1.6386 H       
  35 H35            0.4596     0.6108    -2.5545 H       
  36 H36           -0.8075     2.5401    -2.2883 H       
  37 H37           -2.9681     3.7208    -2.3215 H       
  38 H38           -4.9825     0.0165    -2.9621 H       
  39 H39           -2.8215    -1.1635    -2.9336 H       
  40 H40            0.1553     0.4931    -5.2266 H       
  41 H41            0.3492    -1.1903    -5.7715 H       
  42 H42           -2.1033    -1.5225    -5.6178 H       
  43 H43           -2.2972     0.1609    -5.0729 H       
  44 H44           -2.1299     2.0499    -6.9114 H       
  45 H45           -2.0009     2.0324    -9.4552 H       
  46 H46           -1.1244    -2.9012    -7.6528 H       
  47 H47           -0.8520    -3.7669    -9.9219 H       
  48 H48           -1.0549    -2.2682   -11.8602 H       
  49 H49           -1.5315     0.1185   -11.5472 H       
@<TRIPOS>BOND
   1    1    2 1
   2    1   31 1
   3    1   32 1
   4    1   33 1
   5    2    3 2
   6    2    4 1
   7    4    5 2
   8    4   10 1
   9    5    6 1
  10    5    7 1
  11    6   34 1
  12    7    8 2
  13    7    9 am
  14    9   10 1
  15    9   20 1
  16   10   11 1
  17   10   35 1
  18   11   12 ar
  19   11   16 ar
  20   12   13 ar
  21   12   36 1
  22   13   14 ar
  23   13   37 1
  24   14   15 ar
  25   14   17 1
  26   15   16 ar
  27   15   38 1
  28   16   39 1
  29   17   18 2
  30   17   19 2
  31   20   21 1
  32   20   40 1
  33   20   41 1
  34   21   22 1
  35   21   42 1
  36   21   43 1
  37   22   23 2
  38   22   26 1
  39   23   24 1
  40   23   44 1
  41   24   25 1
  42   24   45 1
  43   25   26 ar
  44   25   30 ar
  45   26   27 ar
  46   27   28 ar
  47   27   46 1
  48   28   29 ar
  49   28   47 1
  50   29   30 ar
  51   29   48 1
  52   30   49 1

#	End of record

