#	Name: ASD11360003
#	Creating user name:	WinNT
#	Creation time:	15. 06. 2019 21:29

#	Modifying user name:	WinNT
#	Modification time:	15. 06. 2019 21:29

#	Program:	/corina/corina34_cracker 3.40 0067  02.08.2006

@<TRIPOS>MOLECULE
ASD11360003
  53   57    0    0    0
SMALL
NO_CHARGES


@<TRIPOS>ATOM
   1 C1             0.9274     2.4120    -0.3334 C.3     
   2 C2             2.1648     2.2301    -1.2212 C.3     
   3 N3             3.3240     1.9558    -0.3605 N.am    
   4 C4             3.6509     2.9064     0.7116 C.3     
   5 C5             2.4136     3.0883     1.5994 C.3     
   6 N6             1.2543     3.3626     0.7387 N.am    
   7 C7            -0.2120     2.9524    -1.1584 C.ar    
   8 C8            -1.4933     2.9696    -0.6397 C.ar    
   9 C9            -2.5387     3.4651    -1.3959 C.ar    
  10 C10           -2.3027     3.9440    -2.6723 C.ar    
  11 C11           -1.0202     3.9265    -3.1909 C.ar    
  12 C12            0.0254     3.4359    -2.4316 C.ar    
  13 C13            0.5046     4.4663     0.9290 C.2     
  14 O14           -0.4316     4.7000     0.1897 O.2     
  15 C15            0.8208     5.3926     2.0365 C.ar    
  16 C16            4.0737     0.8521    -0.5508 C.2     
  17 C17            5.2823     0.6399     0.2507 C.2     
  18 O18            3.7470     0.0314    -1.3883 O.2     
  19 C19            6.2646     1.5980     0.5546 C.2     
  20 N20            7.1874     1.0349     1.2899 N.2     
  21 N21            6.8614    -0.3097     1.5047 N.pl3   
  22 Cl22          -3.6154     4.5660    -3.6229 Cl      
  23 C23            1.3151     4.8976     3.2446 C.ar    
  24 C24            0.6319     6.7665     1.8766 C.ar    
  25 C25            0.9287     7.6257     2.9137 C.ar    
  26 C26            1.4137     7.1282     4.1116 C.ar    
  27 C27            1.6082     5.7669     4.2744 C.ar    
  28 Br28           1.8188     8.3133     5.5283 Br      
  29 C29            5.6791    -0.5618     0.8695 C.2     
  30 C30            7.4918    -1.3019     2.1938 C.2     
  31 C31            6.9624    -2.5453     2.2531 C.2     
  32 C32            5.7530    -2.8309     1.6036 C.2     
  33 C33            5.1075    -1.8397     0.9234 C.2     
  34 Br34           7.8577    -3.9046     3.2157 Br      
  35 H35            0.6450     1.4532     0.1014 H       
  36 H36            2.0074     1.3926    -1.9009 H       
  37 H37            2.3414     3.1408    -1.7936 H       
  38 H38            4.4751     2.5155     1.3083 H       
  39 H39            3.9334     3.8652     0.2768 H       
  40 H40            2.2369     2.1776     2.1717 H       
  41 H41            2.5709     3.9257     2.2790 H       
  42 H42           -1.6775     2.5955     0.3566 H       
  43 H43           -3.5397     3.4782    -0.9906 H       
  44 H44           -0.8353     4.3002    -4.1872 H       
  45 H45            1.0273     3.4263    -2.8347 H       
  46 H46            6.2584     2.6292     0.2334 H       
  47 H47            1.4672     3.8360     3.3728 H       
  48 H48            0.2544     7.1558     0.9426 H       
  49 H49            0.7830     8.6888     2.7913 H       
  50 H50            1.9906     5.3851     5.2095 H       
  51 H51            8.4241    -1.0935     2.6976 H       
  52 H52            5.3306    -3.8238     1.6503 H       
  53 H53            4.1739    -2.0418     0.4196 H       
@<TRIPOS>BOND
   1    1    2 1
   2    1    6 1
   3    1    7 1
   4    1   35 1
   5    2    3 1
   6    2   36 1
   7    2   37 1
   8    3    4 1
   9    3   16 am
  10    4    5 1
  11    4   38 1
  12    4   39 1
  13    5    6 1
  14    5   40 1
  15    5   41 1
  16    6   13 am
  17    7    8 ar
  18    7   12 ar
  19    8    9 ar
  20    8   42 1
  21    9   10 ar
  22    9   43 1
  23   10   11 ar
  24   10   22 1
  25   11   12 ar
  26   11   44 1
  27   12   45 1
  28   13   14 2
  29   13   15 1
  30   15   24 ar
  31   15   23 ar
  32   16   17 1
  33   16   18 2
  34   17   19 1
  35   17   29 2
  36   19   20 2
  37   19   46 1
  38   20   21 1
  39   21   30 1
  40   21   29 1
  41   23   27 ar
  42   23   47 1
  43   24   25 ar
  44   24   48 1
  45   25   26 ar
  46   25   49 1
  47   26   27 ar
  48   26   28 1
  49   27   50 1
  50   29   33 1
  51   30   31 2
  52   30   51 1
  53   31   32 1
  54   31   34 1
  55   32   33 2
  56   32   52 1
  57   33   53 1

#	End of record

