#	Name: ASD14170013
#	Creating user name:	WinNT
#	Creation time:	15. 06. 2019 21:30

#	Modifying user name:	WinNT
#	Modification time:	15. 06. 2019 21:30

#	Program:	/corina/corina34_cracker 3.40 0067  02.08.2006

@<TRIPOS>MOLECULE
ASD14170013
  41   43    0    0    0
SMALL
NO_CHARGES


@<TRIPOS>ATOM
   1 C1             0.3619     1.8747     0.0278 C.2     
   2 C2             0.3884     0.4896    -0.2244 C.2     
   3 C3             1.5546    -0.0064     0.3292 C.2     
   4 N4             2.2058     1.0357     0.8925 N.pl3   
   5 N5             1.4422     2.1911     0.6902 N.2     
   6 N6             1.9787    -1.3320     0.3103 N.am    
   7 C7            -0.7235     2.8291    -0.3989 C.3     
   8 F8            -1.6973     2.9059     0.6026 F       
   9 F9            -0.1722     4.0972    -0.6115 F       
  10 F10           -1.3085     2.3703    -1.5840 F       
  11 C11            3.1615    -1.6531    -0.2504 C.2     
  12 N12            3.5968    -2.9283    -0.2216 N.am    
  13 O13            3.8359    -0.7924    -0.7822 O.2     
  14 C14            4.8700    -3.2449    -0.7115 C.ar    
  15 C15            6.6455    -2.8649    -2.2780 C.ar    
  16 C16            7.3863    -3.8704    -1.6798 C.ar    
  17 C17            6.8675    -4.5671    -0.6014 C.ar    
  18 C18            5.6120    -4.2565    -0.1168 C.ar    
  19 C19            5.3897    -2.5513    -1.7963 C.ar    
  20 F20            8.6144    -4.1760    -2.1527 F       
  21 C21            3.4900     0.9675     1.5942 C.3     
  22 C22           -0.6433    -0.2924    -0.9489 C.ar    
  23 C23           -1.8401    -0.7854    -2.9724 C.ar    
  24 C24           -2.5715    -1.7538    -2.2994 C.ar    
  25 C25           -2.3440    -1.9881    -0.9541 C.ar    
  26 C26           -1.3844    -1.2625    -0.2770 C.ar    
  27 C27           -0.8779    -0.0548    -2.3021 C.ar    
  28 F28           -3.5120    -2.4662    -2.9576 F       
  29 F29           -2.0652    -0.5607    -4.2854 F       
  30 H30            1.4230    -2.0246     0.7006 H       
  31 H31            3.0282    -3.6269     0.1385 H       
  32 H32            7.0519    -2.3227    -3.1189 H       
  33 H33            7.4467    -5.3512    -0.1365 H       
  34 H34            5.2079    -4.8000     0.7245 H       
  35 H35            4.8121    -1.7673    -2.2633 H       
  36 H36            4.3026     1.0787     0.8764 H       
  37 H37            3.5442     1.7686     2.3314 H       
  38 H38            3.5785     0.0044     2.0970 H       
  39 H39           -2.9155    -2.7427    -0.4342 H       
  40 H40           -1.2080    -1.4467     0.7724 H       
  41 H41           -0.3088     0.6991    -2.8256 H       
@<TRIPOS>BOND
   1    1    2 1
   2    1    5 2
   3    1    7 1
   4    2    3 2
   5    2   22 1
   6    3    4 1
   7    3    6 1
   8    4    5 1
   9    4   21 1
  10    6   11 am
  11    6   30 1
  12    7    8 1
  13    7    9 1
  14    7   10 1
  15   11   12 am
  16   11   13 2
  17   12   14 1
  18   12   31 1
  19   14   19 ar
  20   14   18 ar
  21   15   16 ar
  22   15   19 ar
  23   15   32 1
  24   16   17 ar
  25   16   20 1
  26   17   18 ar
  27   17   33 1
  28   18   34 1
  29   19   35 1
  30   21   36 1
  31   21   37 1
  32   21   38 1
  33   22   27 ar
  34   22   26 ar
  35   23   24 ar
  36   23   27 ar
  37   23   29 1
  38   24   25 ar
  39   24   28 1
  40   25   26 ar
  41   25   39 1
  42   26   40 1
  43   27   41 1

#	End of record

