#	Name: ASD10870008
#	Creating user name:	WinNT
#	Creation time:	15. 06. 2019 21:28

#	Modifying user name:	WinNT
#	Modification time:	15. 06. 2019 21:28

#	Program:	/corina/corina34_cracker 3.40 0067  02.08.2006

@<TRIPOS>MOLECULE
ASD10870008
  56   58    0    0    0
SMALL
NO_CHARGES


@<TRIPOS>ATOM
   1 C1             0.1971     1.9642    -0.7164 C.ar    
   2 C2             0.0664     0.5881    -0.6251 C.ar    
   3 C3             1.1808    -0.2104    -0.4627 C.ar    
   4 C4             2.4430     0.3632    -0.3897 C.ar    
   5 C5             2.5790     1.7569    -0.4823 C.ar    
   6 C6             1.4422     2.5515    -0.6464 C.ar    
   7 C7             3.9140     2.3788    -0.4057 C.2     
   8 N8             4.0525     3.7043    -0.6062 N.am    
   9 O9             4.8899     1.6955    -0.1617 O.2     
  10 N10            3.5679    -0.4400    -0.2250 N.am    
  11 C11            3.4965    -1.5528     0.5319 C.2     
  12 C12            4.7103    -2.3516     0.7853 C.ar    
  13 O13            2.4314    -1.8984     1.0059 O.2     
  14 C14            4.6406    -3.5095     1.5719 C.ar    
  15 C15            5.7883    -4.2532     1.8032 C.ar    
  16 C16            6.9931    -3.8534     1.2605 C.ar    
  17 C17            7.0663    -2.7091     0.4828 C.ar    
  18 C18            5.9352    -1.9614     0.2379 C.ar    
  19 C19            5.3027     4.3094    -0.4428 C.ar    
  20 C20            6.4583     3.6261    -0.7980 C.ar    
  21 C21            5.3909     5.5974     0.0699 C.ar    
  22 C22            6.6268     6.1920     0.2301 C.ar    
  23 C23            7.7762     5.5066    -0.1193 C.ar    
  24 C24            7.6915     4.2266    -0.6352 C.ar    
  25 O25            3.4561    -3.9009     2.1049 O.3     
  26 C26            3.4337    -5.1590     2.7822 C.3     
  27 S27            9.1584     3.3603    -1.0850 S.o     
  28 O28            9.5151     3.9575    -2.3241 O.2     
  29 O29           10.1960     3.9214    -0.1233 O.3     
  30 C30           11.5022     3.3658    -0.2885 C.3     
  31 F31           11.9585     3.6250    -1.5853 F       
  32 F32           12.3759     3.9452     0.6379 F       
  33 F33           11.4508     1.9835    -0.0797 F       
  34 C34            3.6693    -4.9374     4.2776 C.3     
  35 C35            2.0727    -5.8262     2.5738 C.3     
  36 H36           -0.6806     2.5797    -0.8475 H       
  37 H37           -0.9133     0.1373    -0.6809 H       
  38 H38            1.0706    -1.2825    -0.3920 H       
  39 H39            1.5385     3.6247    -0.7184 H       
  40 H40            3.2850     4.2386    -0.8639 H       
  41 H41            4.4033    -0.1988    -0.6551 H       
  42 H42            5.7395    -5.1460     2.4090 H       
  43 H43            7.8840    -4.4359     1.4436 H       
  44 H44            8.0136    -2.4040     0.0631 H       
  45 H45            5.9961    -1.0726    -0.3726 H       
  46 H46            6.3928     2.6261    -1.2007 H       
  47 H47            4.4937     6.1333     0.3426 H       
  48 H48            6.6961     7.1935     0.6283 H       
  49 H49            8.7416     5.9739     0.0070 H       
  50 H50            4.2182    -5.8012     2.3820 H       
  51 H51            3.6522    -5.8970     4.7943 H       
  52 H52            4.6389    -4.4621     4.4261 H       
  53 H53            2.8848    -4.2952     4.6778 H       
  54 H54            1.9048    -5.9841     1.5084 H       
  55 H55            2.0555    -6.7858     3.0904 H       
  56 H56            1.2881    -5.1840     2.9740 H       
@<TRIPOS>BOND
   1    1    2 ar
   2    1    6 ar
   3    1   36 1
   4    2    3 ar
   5    2   37 1
   6    3    4 ar
   7    3   38 1
   8    4    5 ar
   9    4   10 1
  10    5    6 ar
  11    5    7 1
  12    6   39 1
  13    7    8 am
  14    7    9 2
  15    8   19 1
  16    8   40 1
  17   10   11 am
  18   10   41 1
  19   11   12 1
  20   11   13 2
  21   12   14 ar
  22   12   18 ar
  23   14   15 ar
  24   14   25 1
  25   15   16 ar
  26   15   42 1
  27   16   17 ar
  28   16   43 1
  29   17   18 ar
  30   17   44 1
  31   18   45 1
  32   19   21 ar
  33   19   20 ar
  34   20   24 ar
  35   20   46 1
  36   21   22 ar
  37   21   47 1
  38   22   23 ar
  39   22   48 1
  40   23   24 ar
  41   23   49 1
  42   24   27 1
  43   25   26 1
  44   26   34 1
  45   26   35 1
  46   26   50 1
  47   27   28 2
  48   27   29 1
  49   29   30 1
  50   30   31 1
  51   30   32 1
  52   30   33 1
  53   34   51 1
  54   34   52 1
  55   34   53 1
  56   35   54 1
  57   35   55 1
  58   35   56 1

#	End of record

