#	Name: ASD10160431
#	Creating user name:	WinNT
#	Creation time:	15. 06. 2019 21:25

#	Modifying user name:	WinNT
#	Modification time:	15. 06. 2019 21:25

#	Program:	/corina/corina34_cracker 3.40 0067  02.08.2006

@<TRIPOS>MOLECULE
ASD10160431
  48   50    0    0    0
SMALL
NO_CHARGES


@<TRIPOS>ATOM
   1 C1             0.2231     1.4266     0.1309 C.2     
   2 C2             0.2065    -0.0439     0.0486 C.ar    
   3 C3             1.3944    -0.7696     0.2031 C.ar    
   4 C4             1.3733    -2.1475     0.1256 C.ar    
   5 C5             0.1771    -2.8136    -0.1055 C.ar    
   6 C6            -1.0064    -2.0958    -0.2602 C.ar    
   7 C7            -0.9967    -0.7206    -0.1783 C.ar    
   8 O8             1.2687     2.0122     0.3331 O.2     
   9 O9            -0.9205     2.1231    -0.0236 O.3     
  10 O10            0.1612    -4.1686    -0.1814 O.3     
  11 C11            2.0303    -5.3423    -1.0789 C.ar    
  12 C12            1.3333    -4.8322     0.0047 C.ar    
  13 C13            1.8483    -5.0072     1.2863 C.ar    
  14 C14            3.0444    -5.6885     1.4284 C.ar    
  15 C15            3.6869    -6.1716     0.2963 C.ar    
  16 N16            3.1683    -5.9873    -0.9060 N.ar    
  17 O17            4.8608    -6.8412     0.4252 O.3     
  18 C18            5.4735    -7.3138    -0.7762 C.3     
  19 C19            6.9926    -7.3421    -0.5969 C.3     
  20 C20            4.9699    -8.7253    -1.0845 C.3     
  21 F21           -2.1670    -2.7496    -0.4857 F       
  22 F22            2.5587    -0.1221     0.4271 F       
  23 C23           -0.8307     3.4779     0.0367 C.ar    
  24 C24           -0.3728     4.1935    -1.0602 C.ar    
  25 C25           -0.2825     5.5705    -0.9963 C.ar    
  26 C26           -0.6474     6.2355     0.1597 C.ar    
  27 C27           -1.1040     5.5247     1.2542 C.ar    
  28 C28           -1.2021     4.1481     1.1933 C.ar    
  29 C29           -0.5469     7.7377     0.2269 C.3     
  30 H30            2.2886    -2.7083     0.2446 H       
  31 H31           -1.9159    -0.1654    -0.2936 H       
  32 H32            1.6352    -5.2147    -2.0759 H       
  33 H33            1.3268    -4.6201     2.1492 H       
  34 H34            3.4730    -5.8422     2.4078 H       
  35 H35            5.2172    -6.6485    -1.6007 H       
  36 H36            7.2489    -8.0074     0.2276 H       
  37 H37            7.4600    -7.7025    -1.5133 H       
  38 H38            7.3514    -6.3365    -0.3773 H       
  39 H39            5.2261    -9.3906    -0.2600 H       
  40 H40            3.8876    -8.7051    -1.2122 H       
  41 H41            5.4372    -9.0857    -2.0009 H       
  42 H42           -0.0870     3.6744    -1.9631 H       
  43 H43            0.0739     6.1280    -1.8499 H       
  44 H44           -1.3885     6.0465     2.1560 H       
  45 H45           -1.5630     3.5937     2.0470 H       
  46 H46           -1.4855     8.1800    -0.1069 H       
  47 H47           -0.3465     8.0428     1.2540 H       
  48 H48            0.2641     8.0768    -0.4176 H       
@<TRIPOS>BOND
   1    1    2 1
   2    1    8 2
   3    1    9 1
   4    2    3 ar
   5    2    7 ar
   6    3    4 ar
   7    3   22 1
   8    4    5 ar
   9    4   30 1
  10    5    6 ar
  11    5   10 1
  12    6    7 ar
  13    6   21 1
  14    7   31 1
  15    9   23 1
  16   10   12 1
  17   11   12 ar
  18   11   16 ar
  19   11   32 1
  20   12   13 ar
  21   13   14 ar
  22   13   33 1
  23   14   15 ar
  24   14   34 1
  25   15   16 ar
  26   15   17 1
  27   17   18 1
  28   18   19 1
  29   18   20 1
  30   18   35 1
  31   19   36 1
  32   19   37 1
  33   19   38 1
  34   20   39 1
  35   20   40 1
  36   20   41 1
  37   23   24 ar
  38   23   28 ar
  39   24   25 ar
  40   24   42 1
  41   25   26 ar
  42   25   43 1
  43   26   27 ar
  44   26   29 1
  45   27   28 ar
  46   27   44 1
  47   28   45 1
  48   29   46 1
  49   29   47 1
  50   29   48 1

#	End of record

