#	Name: ASD10030002
#	Creating user name:	WinNT
#	Creation time:	15. 06. 2019 21:24

#	Modifying user name:	WinNT
#	Modification time:	15. 06. 2019 21:24

#	Program:	/corina/corina34_cracker 3.40 0067  02.08.2006

@<TRIPOS>MOLECULE
ASD10030002
  21   21    0    0    0
SMALL
NO_CHARGES


@<TRIPOS>ATOM
   1 C1            -0.0172     1.4136     0.0098 C.2     
   2 C2             0.0021    -0.0041     0.0020 C.2     
   3 C3             1.1811    -0.6636    -0.0128 C.2     
   4 O4             1.0280     2.0361     0.0032 O.2     
   5 O5            -1.1947     2.0723     0.0190 O.3     
   6 C6             1.2010    -2.1330    -0.0209 C.ar    
   7 C7             2.4218    -2.8186    -0.0362 C.ar    
   8 C8             2.4340    -4.1989    -0.0433 C.ar    
   9 C9             1.2325    -4.9075    -0.0351 C.ar    
  10 C10            0.0216    -4.2287    -0.0199 C.ar    
  11 C11            0.0000    -2.8511    -0.0074 C.ar    
  12 O12            1.2474    -6.2656    -0.0425 O.3     
  13 O13            3.6178    -4.8682    -0.0586 O.3     
  14 H14           -0.9258    -0.5567     0.0079 H       
  15 H15            2.1089    -0.1109    -0.0187 H       
  16 H16           -1.1067     3.0352     0.0238 H       
  17 H17            3.3514    -2.2689    -0.0429 H       
  18 H18           -0.9059    -4.7819    -0.0140 H       
  19 H19           -0.9434    -2.3257     0.0086 H       
  20 H20            1.2605    -6.6636     0.8387 H       
  21 H21            3.9691    -5.0661     0.8203 H       
@<TRIPOS>BOND
   1    1    2 1
   2    1    4 2
   3    1    5 1
   4    2    3 2
   5    2   14 1
   6    3    6 1
   7    3   15 1
   8    5   16 1
   9    6    7 ar
  10    6   11 ar
  11    7    8 ar
  12    7   17 1
  13    8    9 ar
  14    8   13 1
  15    9   10 ar
  16    9   12 1
  17   10   11 ar
  18   10   18 1
  19   11   19 1
  20   12   20 1
  21   13   21 1

#	End of record

