#	Name: ASD13030001
#	Creating user name:	WinNT
#	Creation time:	15. 06. 2019 21:30

#	Modifying user name:	WinNT
#	Modification time:	15. 06. 2019 21:30

#	Program:	/corina/corina34_cracker 3.40 0067  02.08.2006

@<TRIPOS>MOLECULE
ASD13030001
  58   60    0    0    0
SMALL
NO_CHARGES


@<TRIPOS>ATOM
   1 P1            -0.0198     1.6058     0.0109 P.3     
   2 O2             1.4907     2.1630    -0.0006 O.3     
   3 O3            -0.7356     2.0960    -1.1881 O.2     
   4 O4             0.0021    -0.0041     0.0020 O.3     
   5 P5            -7.5082    11.0033     8.1805 P.3     
   6 O6            -8.6850    10.3349     8.7795 O.2     
   7 O7            -7.9615    12.4023     7.5253 O.3     
   8 O8            -6.4074    11.2773     9.3229 O.3     
   9 P9            -7.4973     9.1881     5.8373 P.3     
  10 O10           -7.8269    10.1545     4.5925 O.3     
  11 O11           -8.7420     8.5307     6.2946 O.2     
  12 O12           -6.8757    10.0572     7.0416 O.3     
  13 O13           -6.4353     8.0676     5.3803 O.3     
  14 P14           -6.5334     6.7323     4.4862 P.3     
  15 O15           -6.5093     7.1282     2.9259 O.3     
  16 O16           -7.7948     6.0228     4.7958 O.2     
  17 O17           -5.2832     5.7728     4.8158 O.3     
  18 C18           -5.1392     4.4639     4.2608 C.3     
  19 C19           -3.8467     3.8298     4.7786 C.3     
  20 O20           -3.9491     3.5967     6.1933 O.3     
  21 C21           -3.6271     2.4619     4.1037 C.3     
  22 O22           -2.3964     2.4544     3.3774 O.3     
  23 C23           -3.5659     1.4619     5.2839 C.3     
  24 O24           -2.5421     0.4873     5.0739 O.3     
  25 C25           -3.2124     2.3876     6.4758 C.3     
  26 N26           -3.6583     1.7950     7.7392 N.pl3   
  27 C27           -4.8739     1.9782     8.3320 C.2     
  28 N28           -4.9291     1.3029     9.4426 N.2     
  29 C29           -3.7571     0.6483     9.6285 C.2     
  30 C30           -3.2587    -0.2137    10.6333 C.2     
  31 O31           -3.9426    -0.5094    11.5983 O.2     
  32 N32           -2.0058    -0.7015    10.4968 N.am    
  33 C33           -1.2500    -0.3643     9.4138 C.2     
  34 N34            0.0188    -0.8748     9.3018 N.pl3   
  35 N35           -1.7014     0.4355     8.4736 N.2     
  36 C36           -2.9343     0.9517     8.5377 C.2     
  37 P37           -2.3161     2.1918     1.7910 P.3     
  38 O38           -3.0547     3.3907     1.0105 O.3     
  39 O39           -2.9815     0.9096     1.4688 O.2     
  40 O40           -0.7733     2.1250     1.3355 O.3     
  41 H41            2.0052     1.8889    -0.7720 H       
  42 H42            0.4564    -0.3954     0.7607 H       
  43 H43           -7.2393    12.8959     7.1130 H       
  44 H44           -6.7201    11.8417    10.0431 H       
  45 H45           -7.0555    10.6193     4.2404 H       
  46 H46           -5.7095     7.5973     2.6514 H       
  47 H47           -5.9893     3.8486     4.5558 H       
  48 H48           -5.1002     4.5324     3.1737 H       
  49 H49           -3.0025     4.4875     4.5715 H       
  50 H50           -4.4617     2.2234     3.4444 H       
  51 H51           -4.5322     0.9815     5.4371 H       
  52 H52           -2.4647    -0.1616     5.7867 H       
  53 H53           -2.1412     2.5880     6.5016 H       
  54 H54           -5.6705     2.5920     7.9382 H       
  55 H55            0.3658    -1.4666     9.9876 H       
  56 H56            0.5687    -0.6439     8.5368 H       
  57 H57           -2.6706     4.2627     1.1751 H       
  58 H58           -1.6425    -1.2944    11.1731 H       
@<TRIPOS>BOND
   1    1    4 1
   2    1    2 1
   3    1    3 2
   4    1   40 1
   5    2   41 1
   6    4   42 1
   7    5   12 1
   8    5    7 1
   9    5    8 1
  10    5    6 2
  11    7   43 1
  12    8   44 1
  13    9   10 1
  14    9   11 2
  15    9   12 1
  16    9   13 1
  17   10   45 1
  18   13   14 1
  19   14   17 1
  20   14   16 2
  21   14   15 1
  22   15   46 1
  23   17   18 1
  24   18   19 1
  25   18   47 1
  26   18   48 1
  27   19   20 1
  28   19   21 1
  29   19   49 1
  30   20   25 1
  31   21   23 1
  32   21   22 1
  33   21   50 1
  34   22   37 1
  35   23   24 1
  36   23   51 1
  37   23   25 1
  38   24   52 1
  39   25   26 1
  40   25   53 1
  41   26   36 1
  42   26   27 1
  43   27   28 2
  44   27   54 1
  45   28   29 1
  46   29   36 2
  47   29   30 1
  48   30   32 am
  49   30   31 2
  50   32   33 1
  51   32   58 1
  52   33   34 1
  53   33   35 2
  54   34   55 1
  55   34   56 1
  56   35   36 1
  57   37   40 1
  58   37   38 1
  59   37   39 2
  60   38   57 1

#	End of record

