#	Name: ASD17350001
#	Creating user name:	WinNT
#	Creation time:	15. 06. 2019 21:31

#	Modifying user name:	WinNT
#	Modification time:	15. 06. 2019 21:31

#	Program:	/corina/corina34_cracker 3.40 0067  02.08.2006

@<TRIPOS>MOLECULE
ASD17350001
  20   19    0    0    0
SMALL
NO_CHARGES


@<TRIPOS>ATOM
   1 C1            -0.0176     1.4478     0.0100 C.3     
   2 C2            -3.9314    -6.1725     0.0064 C.3     
   3 O3            -3.9511    -4.7207     0.0144 O.3     
   4 C4            -2.7635    -4.0951     0.0065 C.2     
   5 O5            -1.7414    -4.7393    -0.0068 O.2     
   6 C6            -2.7051    -2.5893     0.0140 C.3     
   7 C7            -1.2439    -2.1355     0.0025 C.3     
   8 C8            -1.1855    -0.6297     0.0100 C.2     
   9 O9            -2.2076     0.0145     0.0232 O.2     
  10 O10            0.0021    -0.0041     0.0020 O.3     
  11 H11            1.0050     1.8251     0.0023 H       
  12 H12           -0.5448     1.8089    -0.8731 H       
  13 H13           -0.5278     1.7993     0.9068 H       
  14 H14           -4.9540    -6.5498     0.0142 H       
  15 H15           -3.4212    -6.5241    -0.8903 H       
  16 H16           -3.4042    -6.5336     0.8895 H       
  17 H17           -3.2129    -2.2015    -0.8691 H       
  18 H18           -3.1959    -2.2111     0.9107 H       
  19 H19           -0.7361    -2.5233     0.8856 H       
  20 H20           -0.7531    -2.5137    -0.8943 H       
@<TRIPOS>BOND
   1    1   10 1
   2    1   11 1
   3    1   12 1
   4    1   13 1
   5    2   14 1
   6    2   15 1
   7    2   16 1
   8    2    3 1
   9    3    4 1
  10    4    5 2
  11    4    6 1
  12    6   17 1
  13    6   18 1
  14    6    7 1
  15    7   19 1
  16    7   20 1
  17    7    8 1
  18    8    9 2
  19    8   10 1

#	End of record

