#	Name: ASD10800025
#	Creating user name:	WinNT
#	Creation time:	15. 06. 2019 21:28

#	Modifying user name:	WinNT
#	Modification time:	15. 06. 2019 21:28

#	Program:	/corina/corina34_cracker 3.40 0067  02.08.2006

@<TRIPOS>MOLECULE
ASD10800025
  57   61    0    0    0
SMALL
NO_CHARGES


@<TRIPOS>ATOM
   1 C1             0.1405     1.6812    -0.0721 C.3     
   2 C2             0.0055     0.1725    -0.3481 C.3     
   3 N3             0.6583    -0.5734     0.7350 N.3     
   4 C4             0.1032    -0.2428     2.0533 C.3     
   5 C5             0.2366     1.2729     2.2893 C.3     
   6 C6             1.6682     1.6780     1.8651 C.3     
   7 C7             1.6065     1.9402     0.3490 C.3     
   8 C8            -0.6627     1.9620     1.2271 C.3     
   9 C9             0.6034    -1.9428     0.5004 C.ar    
  10 C10            1.1683    -2.8333     1.4133 C.ar    
  11 C11            1.0870    -4.1879     1.1331 C.ar    
  12 C12            0.4490    -4.5749    -0.0375 C.ar    
  13 N13           -0.0570    -3.6643    -0.8447 N.ar    
  14 N14            0.0095    -2.4083    -0.5886 N.ar    
  15 C15            0.3355    -6.0368    -0.3856 C.3     
  16 O16           -0.7670     3.3656     1.4741 O.3     
  17 C17           -1.8091     3.7815     2.2425 C.ar    
  18 C18           -2.0432     5.1417     2.4234 C.ar    
  19 C19           -3.1059     5.5603     3.2071 C.ar    
  20 C20           -3.9316     4.6276     3.8077 C.ar    
  21 C21           -3.6989     3.2771     3.6284 C.ar    
  22 C22           -2.6434     2.8526     2.8423 C.ar    
  23 C23           -5.0873     5.0849     4.6599 C.3     
  24 O24           -1.2300     6.0576     1.8324 O.3     
  25 C25           -1.5303     7.4357     2.0621 C.3     
  26 C26           -0.5149     8.3091     1.3224 C.3     
  27 C27           -0.7347     9.8230     1.3471 C.3     
  28 C28            0.3976     9.2009     2.1667 C.3     
  29 H29           -0.1715     2.2939    -0.9178 H       
  30 H30           -1.0497    -0.0971    -0.3920 H       
  31 H31            0.4845    -0.0687    -1.2971 H       
  32 H32           -0.9489    -0.5258     2.0873 H       
  33 H33            0.6521    -0.7816     2.8256 H       
  34 H34            0.0007     1.5623     3.3133 H       
  35 H35            1.9729     2.5832     2.3902 H       
  36 H36            2.3657     0.8677     2.0775 H       
  37 H37            2.2740     1.2577    -0.1771 H       
  38 H38            1.8811     2.9732     0.1356 H       
  39 H39           -1.6483     1.4982     1.1870 H       
  40 H40            1.6542    -2.4782     2.3100 H       
  41 H41            1.5078    -4.9209     1.8054 H       
  42 H42           -0.5861    -6.4398     0.0345 H       
  43 H43            0.3216    -6.1522    -1.4694 H       
  44 H44            1.1887    -6.5757     0.0263 H       
  45 H45           -3.2895     6.6150     3.3493 H       
  46 H46           -4.3458     2.5518     4.0995 H       
  47 H47           -2.4669     1.7967     2.6996 H       
  48 H48           -5.9745     5.2005     4.0373 H       
  49 H49           -5.2819     4.3443     5.4357 H       
  50 H50           -4.8414     6.0404     5.1232 H       
  51 H51           -2.5332     7.6549     1.6958 H       
  52 H52           -1.4797     7.6454     3.1305 H       
  53 H53           -0.0958     7.8761     0.4141 H       
  54 H54           -0.4597    10.3861     0.4552 H       
  55 H55           -1.6026    10.1968     1.8903 H       
  56 H56            0.2746     9.1654     3.2492 H       
  57 H57            1.4175     9.3547     1.8141 H       
@<TRIPOS>BOND
   1    1    2 1
   2    1    7 1
   3    1    8 1
   4    1   29 1
   5    2    3 1
   6    2   30 1
   7    2   31 1
   8    3    4 1
   9    3    9 1
  10    4    5 1
  11    4   32 1
  12    4   33 1
  13    5    6 1
  14    5    8 1
  15    5   34 1
  16    6    7 1
  17    6   35 1
  18    6   36 1
  19    7   37 1
  20    7   38 1
  21    8   16 1
  22    8   39 1
  23    9   10 ar
  24    9   14 ar
  25   10   11 ar
  26   10   40 1
  27   11   12 ar
  28   11   41 1
  29   12   13 ar
  30   12   15 1
  31   13   14 ar
  32   15   42 1
  33   15   43 1
  34   15   44 1
  35   16   17 1
  36   17   18 ar
  37   17   22 ar
  38   18   19 ar
  39   18   24 1
  40   19   20 ar
  41   19   45 1
  42   20   21 ar
  43   20   23 1
  44   21   22 ar
  45   21   46 1
  46   22   47 1
  47   23   48 1
  48   23   49 1
  49   23   50 1
  50   24   25 1
  51   25   26 1
  52   25   51 1
  53   25   52 1
  54   26   27 1
  55   26   28 1
  56   26   53 1
  57   27   28 1
  58   27   54 1
  59   27   55 1
  60   28   56 1
  61   28   57 1

#	End of record

