#	Name: ASD10220043
#	Creating user name:	WinNT
#	Creation time:	15. 06. 2019 21:26

#	Modifying user name:	WinNT
#	Modification time:	15. 06. 2019 21:26

#	Program:	/corina/corina34_cracker 3.40 0067  02.08.2006

@<TRIPOS>MOLECULE
ASD10220043
  24   26    0    0    0
SMALL
NO_CHARGES


@<TRIPOS>ATOM
   1 C1             0.0894     2.0877     0.8321 C.2     
   2 C2             0.3207     0.6926     0.7946 C.2     
   3 C3            -0.6844    -0.1834     0.5720 C.2     
   4 C4            -2.0624     0.2549     0.3575 C.2     
   5 C5            -2.3709     1.6062     0.3793 C.2     
   6 C6            -1.3088     2.5948     0.6249 C.2     
   7 O7            -3.2020    -0.4227     0.1222 O.3     
   8 C8            -4.2412     0.4041    -0.0119 C.2     
   9 C9            -3.8137     1.6965     0.1342 C.2     
  10 O10           -1.5533     3.7826     0.6492 O.2     
  11 O11            1.0045     2.8612     1.0334 O.2     
  12 C12           -4.6317     2.9210     0.0601 C.2     
  13 O13           -5.3615     3.2221     0.9862 O.2     
  14 C14           -4.5655     3.7789    -1.1335 C.2     
  15 Br15           2.0750     0.0388     1.0611 Br      
  16 Br16          -0.2956    -2.0337     0.5364 Br      
  17 C17           -3.8560     3.4581    -2.2509 C.2     
  18 S18           -4.0043     4.6775    -3.4327 S.3     
  19 C19           -5.0458     5.6494    -2.4077 C.2     
  20 C20           -5.2511     5.0455    -1.2435 C.2     
  21 H21           -5.2597     0.1011    -0.2053 H       
  22 H22           -3.2777     2.5541    -2.3717 H       
  23 H23           -5.4653     6.6045    -2.6871 H       
  24 H24           -5.8621     5.4620    -0.4564 H       
@<TRIPOS>BOND
   1    1    2 1
   2    1   11 2
   3    1    6 1
   4    2    3 2
   5    2   15 1
   6    3    4 1
   7    3   16 1
   8    4    5 2
   9    4    7 1
  10    5    6 1
  11    5    9 1
  12    6   10 2
  13    7    8 1
  14    8    9 2
  15    8   21 1
  16    9   12 1
  17   12   13 2
  18   12   14 1
  19   14   17 2
  20   14   20 1
  21   17   18 1
  22   17   22 1
  23   18   19 1
  24   19   20 2
  25   19   23 1
  26   20   24 1

#	End of record

