#	Name: ASD10160095
#	Creating user name:	WinNT
#	Creation time:	15. 06. 2019 21:25

#	Modifying user name:	WinNT
#	Modification time:	15. 06. 2019 21:25

#	Program:	/corina/corina34_cracker 3.40 0067  02.08.2006

@<TRIPOS>MOLECULE
ASD10160095
  36   37    0    0    0
SMALL
NO_CHARGES


@<TRIPOS>ATOM
   1 C1             0.3711     1.1013     1.9607 C.2     
   2 C2             0.2885    -0.2769     1.4387 C.ar    
   3 C3             1.3726    -0.8325     0.7534 C.ar    
   4 C4             1.2916    -2.1194     0.2682 C.ar    
   5 C5             0.1325    -2.8650     0.4599 C.ar    
   6 C6            -0.9468    -2.3152     1.1409 C.ar    
   7 C7            -0.8712    -1.0311     1.6335 C.ar    
   8 O8             1.3830     1.7546     1.7948 O.2     
   9 N9            -0.6772     1.6374     2.6165 N.am    
  10 S10           -0.5846     3.1836     3.2021 S.o2    
  11 O11           -1.8368     3.3921     3.8407 O.2     
  12 O12            0.6281     3.2059     3.9425 O.2     
  13 C13           -0.4450     4.2212     1.7207 C.3     
  14 O14            0.0558    -4.1322    -0.0197 O.3     
  15 C15           -1.3964    -5.5714     1.2035 C.ar    
  16 C16           -1.1307    -4.7866     0.0928 C.ar    
  17 C17           -2.0939    -4.6760    -0.9063 C.ar    
  18 C18           -3.2879    -5.3595    -0.7495 C.ar    
  19 C19           -3.4833    -6.1277     0.3920 C.ar    
  20 N20           -2.5455    -6.2093     1.3203 N.ar    
  21 O21           -4.6505    -6.8016     0.5559 O.3     
  22 C22           -4.7916    -7.5738     1.7500 C.3     
  23 Cl23          -4.5251    -5.2578    -1.9630 Cl      
  24 Cl24           2.6367    -2.8111    -0.5837 Cl      
  25 H25            2.2722    -0.2539     0.6042 H       
  26 H26           -1.8448    -2.8970     1.2877 H       
  27 H27           -1.7091    -0.6064     2.1665 H       
  28 H28           -1.4860     1.1176     2.7454 H       
  29 H29           -1.3232     4.0763     1.0916 H       
  30 H30           -0.3780     5.2684     2.0156 H       
  31 H31            0.4502     3.9423     1.1648 H       
  32 H32           -0.6523    -5.6657     1.9806 H       
  33 H33           -1.9143    -4.0711    -1.7828 H       
  34 H34           -4.0085    -8.3310     1.7877 H       
  35 H35           -4.7067    -6.9198     2.6178 H       
  36 H36           -5.7673    -8.0597     1.7553 H       
@<TRIPOS>BOND
   1    1    2 1
   2    1    8 2
   3    1    9 am
   4    2    3 ar
   5    2    7 ar
   6    3    4 ar
   7    3   25 1
   8    4    5 ar
   9    4   24 1
  10    5    6 ar
  11    5   14 1
  12    6    7 ar
  13    6   26 1
  14    7   27 1
  15    9   10 am
  16    9   28 1
  17   10   11 2
  18   10   12 2
  19   10   13 1
  20   13   29 1
  21   13   30 1
  22   13   31 1
  23   14   16 1
  24   15   16 ar
  25   15   20 ar
  26   15   32 1
  27   16   17 ar
  28   17   18 ar
  29   17   33 1
  30   18   19 ar
  31   18   23 1
  32   19   20 ar
  33   19   21 1
  34   21   22 1
  35   22   34 1
  36   22   35 1
  37   22   36 1

#	End of record

