#	Name: ASD10410282
#	Creating user name:	WinNT
#	Creation time:	15. 06. 2019 21:27

#	Modifying user name:	WinNT
#	Modification time:	15. 06. 2019 21:27

#	Program:	/corina/corina34_cracker 3.40 0067  02.08.2006

@<TRIPOS>MOLECULE
ASD10410282
  80   87    0    0    0
SMALL
NO_CHARGES


@<TRIPOS>ATOM
   1 C1             1.0039    -0.6318    -0.2393 C.ar    
   2 C2            -0.0700     0.1292     0.2097 C.ar    
   3 N3             0.0841     1.4108     0.5020 N.ar    
   4 C4             1.2514     2.0141     0.3813 C.ar    
   5 C5             2.3669     1.3182    -0.0603 C.ar    
   6 C6             2.2430    -0.0333    -0.3782 C.ar    
   7 N7             3.6026     1.9658    -0.1862 N.pl3   
   8 C8             4.7860     1.2552     0.0141 C.2     
   9 N9             5.9969     1.7294    -0.1559 N.2     
  10 N10            4.8688    -0.0185     0.4162 N.2     
  11 C11            6.1326    -0.3745     0.5024 C.2     
  12 N12            6.8906     0.6910     0.1520 N.pl3   
  13 N13            6.6031    -1.6159     0.8861 N.pl3   
  14 C14            8.2848     0.7464     0.1059 C.ar    
  15 C15            8.9325     1.8982    -0.2693 C.ar    
  16 N16            9.0233    -0.3161     0.4305 N.ar    
  17 N17           10.3069    -0.3065     0.4016 N.ar    
  18 C18           11.0130     0.7695     0.0433 C.ar    
  19 C19           10.3250     1.9116    -0.3024 C.ar    
  20 N20           -1.3221    -0.4640     0.3529 N.3     
  21 C21           -2.3129     0.5076     0.8364 C.3     
  22 C22           -3.6880    -0.1610     0.9043 C.3     
  23 N23           -3.6194    -1.3270     1.7961 N.3     
  24 C24           -2.6286    -2.2986     1.3126 C.3     
  25 C25           -1.2535    -1.6301     1.2447 C.3     
  26 C26           -4.9399    -1.9526     1.9472 C.3     
  27 C27           -4.7897    -3.2926     2.6703 C.3     
  28 C28           10.9077     3.2332    -0.7369 C.3     
  29 C29           10.3881     4.3067     0.2351 C.3     
  30 C30            8.8601     4.2937     0.2775 C.3     
  31 C31            8.3053     3.2107    -0.6685 C.3     
  32 C32            8.8016     3.5456    -2.0858 C.3     
  33 C33           10.3292     3.5570    -2.1253 C.3     
  34 C34           12.4957     0.7370     0.0241 C.ar    
  35 C35           -4.7143     0.8362     1.4459 C.3     
  36 C36           -6.0703    -4.0488     3.0297 C.3     
  37 C37           -5.1728    -4.5578     1.9000 C.3     
  38 C38           13.2255     1.8003     0.5526 C.ar    
  39 C39           14.6050     1.7644     0.5325 C.ar    
  40 C40           15.2634     0.6761    -0.0113 C.ar    
  41 C41           14.5441    -0.3820    -0.5372 C.ar    
  42 C42           13.1644    -0.3595    -0.5172 C.ar    
  43 H43            0.8729    -1.6782    -0.4724 H       
  44 H44            1.3392     3.0616     0.6289 H       
  45 H45            3.0948    -0.6001    -0.7241 H       
  46 H46            3.6353     2.9084    -0.4128 H       
  47 H47            5.9785    -2.3196     1.1220 H       
  48 H48            7.5579    -1.7836     0.9195 H       
  49 H49           -2.0277     0.8543     1.8297 H       
  50 H50           -2.3542     1.3556     0.1529 H       
  51 H51           -3.9853    -0.4834    -0.0936 H       
  52 H52           -2.5873    -3.1467     1.9962 H       
  53 H53           -2.9138    -2.6453     0.3194 H       
  54 H54           -0.5224    -2.3405     0.8589 H       
  55 H55           -0.9562    -1.3077     2.2426 H       
  56 H56           -5.5883    -1.2968     2.5283 H       
  57 H57           -5.3784    -2.1180     0.9631 H       
  58 H58           -3.9532    -3.3603     3.3658 H       
  59 H59           11.9972     3.2012    -0.7448 H       
  60 H60           10.7781     4.1081     1.2334 H       
  61 H61           10.7312     5.2875    -0.0942 H       
  62 H62            8.5295     4.0884     1.2957 H       
  63 H63            8.4827     5.2686    -0.0311 H       
  64 H64            7.2177     3.1604    -0.6170 H       
  65 H65            8.4284     2.7969    -2.7846 H       
  66 H66            8.4247     4.5260    -2.3773 H       
  67 H67           10.6733     4.5429    -2.4381 H       
  68 H68           10.6760     2.8132    -2.8426 H       
  69 H69           -4.7635     1.7018     0.7853 H       
  70 H70           -5.6934     0.3598     1.4941 H       
  71 H71           -4.4169     1.1575     2.4442 H       
  72 H72           -6.0761    -4.6143     3.9615 H       
  73 H73           -7.0198    -3.5917     2.7511 H       
  74 H74           -5.5318    -4.4356     0.8781 H       
  75 H75           -4.5882    -5.4582     2.0886 H       
  76 H76           12.7125     2.6507     0.9768 H       
  77 H77           15.1716     2.5878     0.9417 H       
  78 H78           16.3430     0.6526    -0.0255 H       
  79 H79           15.0634    -1.2291    -0.9605 H       
  80 H80           12.6038    -1.1863    -0.9278 H       
@<TRIPOS>BOND
   1    1    2 ar
   2    1    6 ar
   3    1   43 1
   4    2    3 ar
   5    2   20 1
   6    3    4 ar
   7    4    5 ar
   8    4   44 1
   9    5    6 ar
  10    5    7 1
  11    6   45 1
  12    7    8 1
  13    7   46 1
  14    8    9 2
  15    8   10 1
  16    9   12 1
  17   10   11 2
  18   11   12 1
  19   11   13 1
  20   12   14 1
  21   13   47 1
  22   13   48 1
  23   14   15 ar
  24   14   16 ar
  25   15   19 ar
  26   15   31 1
  27   16   17 ar
  28   17   18 ar
  29   18   19 ar
  30   18   34 1
  31   19   28 1
  32   20   21 1
  33   20   25 1
  34   21   22 1
  35   21   49 1
  36   21   50 1
  37   22   23 1
  38   22   35 1
  39   22   51 1
  40   23   24 1
  41   23   26 1
  42   24   25 1
  43   24   52 1
  44   24   53 1
  45   25   54 1
  46   25   55 1
  47   26   27 1
  48   26   56 1
  49   26   57 1
  50   27   36 1
  51   27   37 1
  52   27   58 1
  53   28   29 1
  54   28   33 1
  55   28   59 1
  56   29   30 1
  57   29   60 1
  58   29   61 1
  59   30   31 1
  60   30   62 1
  61   30   63 1
  62   31   32 1
  63   31   64 1
  64   32   33 1
  65   32   65 1
  66   32   66 1
  67   33   67 1
  68   33   68 1
  69   34   38 ar
  70   34   42 ar
  71   35   69 1
  72   35   70 1
  73   35   71 1
  74   36   37 1
  75   36   72 1
  76   36   73 1
  77   37   74 1
  78   37   75 1
  79   38   39 ar
  80   38   76 1
  81   39   40 ar
  82   39   77 1
  83   40   41 ar
  84   40   78 1
  85   41   42 ar
  86   41   79 1
  87   42   80 1

#	End of record

