#	Name: ASD13010061
#	Creating user name:	WinNT
#	Creation time:	15. 06. 2019 21:30

#	Modifying user name:	WinNT
#	Modification time:	15. 06. 2019 21:30

#	Program:	/corina/corina34_cracker 3.40 0067  02.08.2006

@<TRIPOS>MOLECULE
ASD13010061
  50   53    0    0    0
SMALL
NO_CHARGES


@<TRIPOS>ATOM
   1 F1             1.7272     1.2516    -0.9937 F       
   2 C2             0.4733     0.8226    -0.7312 C.ar    
   3 C3             0.2233    -0.5382    -0.5337 C.ar    
   4 C4             1.0692    -1.7401    -0.5414 C.2     
   5 C5             2.5240    -1.7801    -0.7849 C.2     
   6 C6             2.9717    -1.3224    -1.9310 C.2     
   7 C7             4.4240    -1.2929    -2.3091 C.3     
   8 C8             5.2241    -2.2279    -1.3997 C.3     
   9 C9             4.8742    -3.6821    -1.7220 C.3     
  10 C10            6.6987    -2.0026    -1.6137 C.2     
  11 O11            7.3957    -1.6487    -0.6923 O.2     
  12 O12            7.2379    -2.1951    -2.8277 O.3     
  13 C13            4.8577    -1.9205     0.0575 C.3     
  14 C14            3.4061    -2.3363     0.2946 C.3     
  15 N15            0.2968    -2.7706    -0.2923 N.2     
  16 N16           -1.0237    -2.3458    -0.1151 N.am    
  17 C17           -1.0833    -0.9765    -0.2607 C.ar    
  18 C18           -2.1178    -0.0492    -0.1899 C.ar    
  19 C19           -1.8564     1.2886    -0.3871 C.ar    
  20 C20           -0.5656     1.7255    -0.6511 C.ar    
  21 C21           -2.0723    -3.1485     0.1545 C.2     
  22 O22           -3.1644    -2.6659     0.3813 O.2     
  23 C23           -1.8943    -4.6138     0.1742 C.ar    
  24 C24           -1.6048    -5.2697     1.3732 C.ar    
  25 C25           -1.4731    -4.4827     2.6516 C.3     
  26 F26           -0.4397    -3.5490     2.5202 F       
  27 F27           -2.6742    -3.8151     2.9141 F       
  28 F28           -1.1833    -5.3536     3.7075 F       
  29 C29           -1.4403    -6.6385     1.3845 C.ar    
  30 C30           -1.5612    -7.3639     0.2116 C.ar    
  31 C31           -1.8475    -6.7227    -0.9797 C.ar    
  32 C32           -2.0203    -5.3525    -1.0057 C.ar    
  33 Cl33          -2.3863    -4.5494    -2.5006 Cl      
  34 H34            2.2531    -0.9453    -2.6436 H       
  35 H35            4.5343    -1.6144    -3.3447 H       
  36 H36            4.8036    -0.2764    -2.2060 H       
  37 H37            5.1193    -3.8926    -2.7630 H       
  38 H38            5.4455    -4.3457    -1.0729 H       
  39 H39            3.8085    -3.8439    -1.5597 H       
  40 H40            8.1879    -2.0380    -2.9161 H       
  41 H41            5.5135    -2.4788     0.7255 H       
  42 H42            4.9671    -0.8524     0.2451 H       
  43 H43            3.0739    -1.9601     1.2622 H       
  44 H44            3.3403    -3.4243     0.2902 H       
  45 H45           -3.1251    -0.3780     0.0192 H       
  46 H46           -2.6626     2.0051    -0.3312 H       
  47 H47           -0.3756     2.7776    -0.8036 H       
  48 H48           -1.2161    -7.1463     2.3109 H       
  49 H49           -1.4308    -8.4359     0.2269 H       
  50 H50           -1.9401    -7.2949    -1.8910 H       
@<TRIPOS>BOND
   1    1    2 1
   2    2    3 ar
   3    2   20 ar
   4    3    4 1
   5    3   17 ar
   6    4    5 1
   7    4   15 2
   8    5    6 2
   9    5   14 1
  10    6    7 1
  11    6   34 1
  12    7    8 1
  13    7   35 1
  14    7   36 1
  15    8    9 1
  16    8   10 1
  17    8   13 1
  18    9   37 1
  19    9   38 1
  20    9   39 1
  21   10   11 2
  22   10   12 1
  23   12   40 1
  24   13   41 1
  25   13   42 1
  26   13   14 1
  27   14   43 1
  28   14   44 1
  29   15   16 1
  30   16   17 1
  31   16   21 am
  32   17   18 ar
  33   18   45 1
  34   18   19 ar
  35   19   20 ar
  36   19   46 1
  37   20   47 1
  38   21   23 1
  39   21   22 2
  40   23   32 ar
  41   23   24 ar
  42   24   25 1
  43   24   29 ar
  44   25   28 1
  45   25   26 1
  46   25   27 1
  47   29   48 1
  48   29   30 ar
  49   30   49 1
  50   30   31 ar
  51   31   50 1
  52   31   32 ar
  53   32   33 1

#	End of record

