#	Name: ASD11000313
#	Creating user name:	WinNT
#	Creation time:	15. 06. 2019 21:29

#	Modifying user name:	WinNT
#	Modification time:	15. 06. 2019 21:29

#	Program:	/corina/corina34_cracker 3.40 0067  02.08.2006

@<TRIPOS>MOLECULE
ASD11000313
  57   61    0    0    0
SMALL
NO_CHARGES


@<TRIPOS>ATOM
   1 C1            -0.0162     1.3209     0.0168 C.ar    
   2 N2             0.0012    -0.0047     0.0220 N.ar    
   3 C3             1.1428    -0.6682     0.0149 C.ar    
   4 C4             2.3459     0.0503     0.0017 C.ar    
   5 C5             2.2822     1.4501    -0.0034 C.ar    
   6 N6             1.0994     2.0371     0.0044 N.ar    
   7 N7            -1.2352     1.9766     0.0186 N.pl3   
   8 C8             3.6437    -0.6478    -0.0060 C.2     
   9 C9             4.7856     0.0581    -0.0186 C.2     
  10 N10            9.8336    -2.3606    -0.0480 N.pl3   
  11 N11           10.6317    -1.2123    -0.0599 N.2     
  12 C12            9.8832    -0.1467    -0.0595 C.2     
  13 C13            8.4893    -0.5814    -0.0467 C.ar    
  14 C14            7.2652     0.0921    -0.0395 C.ar    
  15 C15            6.0837    -0.6401    -0.0264 C.ar    
  16 C16            6.1244    -2.0435    -0.0202 C.ar    
  17 C17            7.3159    -2.7039    -0.0268 C.ar    
  18 C18            8.5140    -1.9901    -0.0399 C.ar    
  19 C19           10.3288    -3.7394    -0.0504 C.3     
  20 C20           10.8376    -4.0967    -1.4495 C.3     
  21 C21           11.4086    -5.5179    -1.4291 C.3     
  22 C22           12.5132    -5.5974    -0.3709 C.3     
  23 C23           11.9398    -5.1821     0.9864 C.3     
  24 O24           11.3978    -3.8634     0.8898 O.3     
  25 C25           -1.2797     3.3714     0.1321 C.ar    
  26 C26           -2.2605     4.0920    -0.5371 C.ar    
  27 C27           -2.3038     5.4682    -0.4241 C.ar    
  28 C28           -1.3671     6.1303     0.3581 C.ar    
  29 C29           -0.3877     5.4110     1.0258 C.ar    
  30 C30           -0.3468     4.0343     0.9182 C.ar    
  31 O31           -1.4100     7.4852     0.4692 O.3     
  32 C32           -0.4155     8.1006     1.2904 C.3     
  33 F33           -0.5226     7.6128     2.5972 F       
  34 F34            0.8550     7.8049     0.7849 F       
  35 Cl35          -3.5291     6.3697    -1.2606 Cl      
  36 H36            1.1493    -1.7482     0.0195 H       
  37 H37            3.1869     2.0400    -0.0135 H       
  38 H38           -2.0586     1.4698    -0.0587 H       
  39 H39            3.6762    -1.7273    -0.0016 H       
  40 H40            4.7531     1.1376    -0.0231 H       
  41 H41           10.2311     0.8757    -0.0673 H       
  42 H42            7.2372     1.1717    -0.0433 H       
  43 H43            5.2020    -2.6050    -0.0097 H       
  44 H44            7.3327    -3.7837    -0.0215 H       
  45 H45            9.5207    -4.4164     0.2263 H       
  46 H46           10.0134    -4.0454    -2.1609 H       
  47 H47           11.6180    -3.3948    -1.7435 H       
  48 H48           10.6167    -6.2255    -1.1834 H       
  49 H49           11.8234    -5.7583    -2.4080 H       
  50 H50           12.8874    -6.6194    -0.3110 H       
  51 H51           13.3275    -4.9258    -0.6432 H       
  52 H52           11.1528    -5.8782     1.2769 H       
  53 H53           12.7318    -5.1957     1.7352 H       
  54 H54           -2.9888     3.5767    -1.1458 H       
  55 H55            0.3408     5.9268     1.6338 H       
  56 H56            0.4134     3.4741     1.4423 H       
  57 H57           -0.5634     9.1806     1.2925 H       
@<TRIPOS>BOND
   1    1    2 ar
   2    1    6 ar
   3    1    7 1
   4    2    3 ar
   5    3    4 ar
   6    3   36 1
   7    4    5 ar
   8    4    8 1
   9    5    6 ar
  10    5   37 1
  11    7   25 1
  12    7   38 1
  13    8    9 2
  14    8   39 1
  15    9   15 1
  16    9   40 1
  17   10   11 1
  18   10   18 1
  19   10   19 1
  20   11   12 2
  21   12   13 1
  22   12   41 1
  23   13   14 ar
  24   13   18 ar
  25   14   15 ar
  26   14   42 1
  27   15   16 ar
  28   16   17 ar
  29   16   43 1
  30   17   18 ar
  31   17   44 1
  32   19   20 1
  33   19   24 1
  34   19   45 1
  35   20   21 1
  36   20   46 1
  37   20   47 1
  38   21   22 1
  39   21   48 1
  40   21   49 1
  41   22   23 1
  42   22   50 1
  43   22   51 1
  44   23   24 1
  45   23   52 1
  46   23   53 1
  47   25   26 ar
  48   25   30 ar
  49   26   27 ar
  50   26   54 1
  51   27   28 ar
  52   27   35 1
  53   28   29 ar
  54   28   31 1
  55   29   30 ar
  56   29   55 1
  57   30   56 1
  58   31   32 1
  59   32   33 1
  60   32   34 1
  61   32   57 1

#	End of record

