#	Name: ASD10410219
#	Creating user name:	WinNT
#	Creation time:	15. 06. 2019 21:27

#	Modifying user name:	WinNT
#	Modification time:	15. 06. 2019 21:27

#	Program:	/corina/corina34_cracker 3.40 0067  02.08.2006

@<TRIPOS>MOLECULE
ASD10410219
  50   53    0    0    0
SMALL
NO_CHARGES


@<TRIPOS>ATOM
   1 C1            -0.0183     1.3924    -0.0812 C.ar    
   2 C2            -0.0057     0.0094     0.0247 C.ar    
   3 C3             1.2007    -0.6691     0.1155 C.ar    
   4 C4             2.3904     0.0319     0.1005 C.ar    
   5 C5             2.3788     1.4166    -0.0056 C.ar    
   6 C6             1.1705     2.0951    -0.0964 C.ar    
   7 O7            -1.1769    -0.6816     0.0400 O.3     
   8 N8             3.5843     2.1280    -0.0204 N.pl3   
   9 C9             3.6712     3.3387    -0.7076 C.2     
  10 N10            4.7092     4.1402    -0.7098 N.2     
  11 N11            2.7109     3.8668    -1.4756 N.2     
  12 C12            3.1220     5.0134    -1.9732 C.2     
  13 N13            4.3787     5.2367    -1.5222 N.pl3   
  14 C14            5.1863     6.3396    -1.8081 C.ar    
  15 N15            2.3998     5.8418    -2.8109 N.pl3   
  16 N16            4.9883     7.0261    -2.9224 N.ar    
  17 C17            6.1867     6.7094    -0.9173 C.ar    
  18 C18            5.7281     8.0735    -3.2304 C.ar    
  19 C19            6.7437     8.4941    -2.3937 C.ar    
  20 C20            6.9801     7.8046    -1.2127 C.ar    
  21 C21           -1.0897    -2.1036     0.1513 C.3     
  22 C22           -2.4976    -2.7024     0.1521 C.3     
  23 N23           -3.1366    -2.4527    -1.1469 N.3     
  24 C24           -3.0080    -1.0323    -1.5363 C.3     
  25 C25           -4.5688    -2.8008    -1.1069 C.3     
  26 C26           -5.3575    -1.5387    -1.5150 C.3     
  27 C27           -4.3114    -0.7149    -2.3110 C.3     
  28 H28           -0.9579     1.9196    -0.1564 H       
  29 H29            1.2096    -1.7458     0.1983 H       
  30 H30            3.3297    -0.4965     0.1715 H       
  31 H31            1.1605     3.1718    -0.1792 H       
  32 H32            4.3592     1.7790     0.4472 H       
  33 H33            1.5021     5.5938    -3.0823 H       
  34 H34            2.7904     6.6713    -3.1276 H       
  35 H35            6.3428     6.1502    -0.0066 H       
  36 H36            5.5377     8.6092    -4.1486 H       
  37 H37            7.3446     9.3529    -2.6538 H       
  38 H38            7.7679     8.1130    -0.5414 H       
  39 H39           -0.5266    -2.5003    -0.6934 H       
  40 H40           -0.5832    -2.3649     1.0805 H       
  41 H41           -2.4355    -3.7767     0.3259 H       
  42 H42           -3.0887    -2.2400     0.9426 H       
  43 H43           -2.9298    -0.4016    -0.6508 H       
  44 H44           -2.1400    -0.8925    -2.1806 H       
  45 H45           -4.7737    -3.6092    -1.8087 H       
  46 H46           -4.8489    -3.1029    -0.0977 H       
  47 H47           -6.2043    -1.8017    -2.1489 H       
  48 H48           -5.6902    -0.9904    -0.6336 H       
  49 H49           -4.5401     0.3500    -2.2706 H       
  50 H50           -4.2460    -1.0598    -3.3430 H       
@<TRIPOS>BOND
   1    1    2 ar
   2    1    6 ar
   3    1   28 1
   4    2    3 ar
   5    2    7 1
   6    3    4 ar
   7    3   29 1
   8    4    5 ar
   9    4   30 1
  10    5    6 ar
  11    5    8 1
  12    6   31 1
  13    7   21 1
  14    8    9 1
  15    8   32 1
  16    9   10 2
  17    9   11 1
  18   10   13 1
  19   11   12 2
  20   12   13 1
  21   12   15 1
  22   13   14 1
  23   14   16 ar
  24   14   17 ar
  25   15   33 1
  26   15   34 1
  27   16   18 ar
  28   17   20 ar
  29   17   35 1
  30   18   19 ar
  31   18   36 1
  32   19   20 ar
  33   19   37 1
  34   20   38 1
  35   21   22 1
  36   21   39 1
  37   21   40 1
  38   22   23 1
  39   22   41 1
  40   22   42 1
  41   23   25 1
  42   23   24 1
  43   24   27 1
  44   24   43 1
  45   24   44 1
  46   25   26 1
  47   25   45 1
  48   25   46 1
  49   26   27 1
  50   26   47 1
  51   26   48 1
  52   27   49 1
  53   27   50 1

#	End of record

