#	Name: ASD11670002
#	Creating user name:	WinNT
#	Creation time:	15. 06. 2019 21:29

#	Modifying user name:	WinNT
#	Modification time:	15. 06. 2019 21:29

#	Program:	/corina/corina34_cracker 3.40 0067  02.08.2006

@<TRIPOS>MOLECULE
ASD11670002
  20   20    0    0    0
SMALL
NO_CHARGES


@<TRIPOS>ATOM
   1 O1            -0.0163     1.3537     0.0095 O.3     
   2 O2             0.0792    -4.8682     1.0205 O.2     
   3 C3             0.0601    -4.2523    -0.0267 C.2     
   4 C4             0.0396    -2.7777    -0.0147 C.ar    
   5 C5             0.0423    -2.0870     1.2007 C.ar    
   6 C6             0.0230    -0.7060     1.2064 C.ar    
   7 O7             0.0260    -0.0308     2.3870 O.3     
   8 C8             0.0021    -0.0041     0.0020 C.ar    
   9 C9            -0.0005    -0.6902    -1.2051 C.ar    
  10 C10            0.0235    -2.0676    -1.2183 C.ar    
  11 O11            0.0575    -4.9165    -1.1991 O.3     
  12 C12            0.0784    -6.3670    -1.1350 C.3     
  13 H13            0.8616     1.7590     0.0033 H       
  14 H14            0.0585    -2.6320     2.1330 H       
  15 H15            0.9101     0.1768     2.7192 H       
  16 H16           -0.0171    -0.1427    -2.1359 H       
  17 H17            0.0259    -2.5987    -2.1587 H       
  18 H18            0.0739    -6.7754    -2.1456 H       
  19 H19            0.9783    -6.6947    -0.6146 H       
  20 H20           -0.8014    -6.7196    -0.5967 H       
@<TRIPOS>BOND
   1    1    8 1
   2    1   13 1
   3    2    3 2
   4    3    4 1
   5    3   11 1
   6    4    5 ar
   7    4   10 ar
   8    5    6 ar
   9    5   14 1
  10    6    7 1
  11    6    8 ar
  12    7   15 1
  13    8    9 ar
  14    9   10 ar
  15    9   16 1
  16   10   17 1
  17   11   12 1
  18   12   18 1
  19   12   19 1
  20   12   20 1

#	End of record

