#	Name: ASD10210003
#	Creating user name:	WinNT
#	Creation time:	15. 06. 2019 21:26

#	Modifying user name:	WinNT
#	Modification time:	15. 06. 2019 21:26

#	Program:	/corina/corina34_cracker 3.40 0067  02.08.2006

@<TRIPOS>MOLECULE
ASD10210003
  53   56    0    0    0
SMALL
NO_CHARGES


@<TRIPOS>ATOM
   1 C1             0.0129     2.7712     1.0771 C.3     
   2 C2            -0.2476     1.2853     1.1734 C.2     
   3 C3             0.3797     0.4436     0.1315 C.2     
   4 C4             1.6930     0.7177    -0.0981 C.2     
   5 C5             2.3221     1.7884     0.7196 C.3     
   6 C6             1.4906     3.0479     0.8056 C.3     
   7 C7             2.3557    -0.0670    -1.1953 C.3     
   8 C8             3.8765     0.1181    -1.1499 C.3     
   9 C9             4.1471     1.6242    -0.9968 C.3     
  10 C10            3.7856     2.0524     0.4131 C.3     
  11 C11            2.3934     1.2356     2.1473 C.3     
  12 O12           -0.9343     0.8112     2.0529 O.2     
  13 C13            5.5461     2.0105    -1.3955 C.3     
  14 C14            6.3300     2.6673    -0.2677 C.3     
  15 C15            5.5762     3.8678     0.2602 C.3     
  16 C16            4.1658     3.4922     0.7040 C.3     
  17 C17            6.5226     0.9197    -1.8394 C.3     
  18 C18            7.8640     1.6705    -1.8500 C.3     
  19 C19            7.6693     2.9283    -0.9895 C.3     
  20 C20            6.6662     1.6963     0.8728 C.3     
  21 C21            7.6221     4.1588    -1.8449 C.2     
  22 C22            8.9004     4.8571    -2.2317 C.3     
  23 O23            6.5598     4.5904    -2.2239 O.2     
  24 H24           -0.5871     3.1904     0.2671 H       
  25 H25           -0.2784     3.2486     2.0156 H       
  26 H26           -0.1582    -0.3265    -0.4074 H       
  27 H27            1.5794     3.6003    -0.1353 H       
  28 H28            1.8799     3.6809     1.6097 H       
  29 H29            2.1168    -1.1215    -1.0702 H       
  30 H30            1.9789     0.2815    -2.1559 H       
  31 H31            4.2880    -0.4185    -0.2993 H       
  32 H32            4.3163    -0.2423    -2.0761 H       
  33 H33            3.4453     2.1379    -1.6843 H       
  34 H34            4.2992     1.3973     1.1204 H       
  35 H35            2.9951     0.3267     2.1554 H       
  36 H36            2.8487     1.9785     2.8023 H       
  37 H37            1.3873     1.0084     2.4997 H       
  38 H38            5.4577     2.7344    -2.2417 H       
  39 H39            6.1204     4.2952     1.1167 H       
  40 H40            5.4998     4.6521    -0.5034 H       
  41 H41            3.4566     4.1614     0.1926 H       
  42 H42            4.0687     3.6870     1.7798 H       
  43 H43            6.5392     0.0722    -1.1623 H       
  44 H44            6.2766     0.5780    -2.8522 H       
  45 H45            8.6478     1.0452    -1.4227 H       
  46 H46            8.1256     1.9526    -2.8695 H       
  47 H47            8.4676     3.0045    -0.2504 H       
  48 H48            7.4062     0.9738     0.5285 H       
  49 H49            7.0690     2.2542     1.7181 H       
  50 H50            5.7622     1.1714     1.1815 H       
  51 H51            9.7491     4.3265    -1.8003 H       
  52 H52            8.9934     4.8693    -3.3177 H       
  53 H53            8.8831     5.8805    -1.8570 H       
@<TRIPOS>BOND
   1    1    2 1
   2    1    6 1
   3    1   24 1
   4    1   25 1
   5    2    3 1
   6    2   12 2
   7    3    4 2
   8    3   26 1
   9    4    5 1
  10    4    7 1
  11    5    6 1
  12    5   11 1
  13    5   10 1
  14    6   27 1
  15    6   28 1
  16    7    8 1
  17    7   29 1
  18    7   30 1
  19    8    9 1
  20    8   31 1
  21    8   32 1
  22    9   10 1
  23    9   13 1
  24    9   33 1
  25   10   16 1
  26   10   34 1
  27   11   35 1
  28   11   36 1
  29   11   37 1
  30   13   14 1
  31   13   17 1
  32   13   38 1
  33   14   15 1
  34   14   20 1
  35   14   19 1
  36   15   16 1
  37   15   39 1
  38   15   40 1
  39   16   41 1
  40   16   42 1
  41   17   18 1
  42   17   43 1
  43   17   44 1
  44   18   19 1
  45   18   45 1
  46   18   46 1
  47   19   21 1
  48   19   47 1
  49   20   48 1
  50   20   49 1
  51   20   50 1
  52   21   22 1
  53   21   23 2
  54   22   51 1
  55   22   52 1
  56   22   53 1

#	End of record

