#	Name: ASD13490030
#	Creating user name:	WinNT
#	Creation time:	15. 06. 2019 21:30

#	Modifying user name:	WinNT
#	Modification time:	15. 06. 2019 21:30

#	Program:	/corina/corina34_cracker 3.40 0067  02.08.2006

@<TRIPOS>MOLECULE
ASD13490030
  53   57    0    0    0
SMALL
NO_CHARGES


@<TRIPOS>ATOM
   1 C1             0.0432     1.2239    -0.0054 C.ar    
   2 C2             0.0107     0.2026     0.9411 C.ar    
   3 C3             1.1689    -0.1540     1.6159 C.ar    
   4 C4             2.3543     0.5030     1.3506 C.ar    
   5 C5             2.3896     1.5225     0.4073 C.ar    
   6 C6             1.2327     1.8817    -0.2710 C.ar    
   7 N7            -1.1948    -0.4659     1.2125 N.pl3   
   8 C8            -2.3865     0.1091     1.4913 C.2     
   9 N9            -3.2696    -0.8325     1.6863 N.2     
  10 C10           -2.6812    -2.0289     1.5409 C.2     
  11 C11           -1.3847    -1.8227     1.2385 C.2     
  12 C12           -3.3541    -3.3696     1.6850 C.3     
  13 O13           -1.0898     1.5707    -0.6717 O.3     
  14 C14           -0.9824     2.6269    -1.6282 C.3     
  15 N15            3.5914     2.1873     0.1409 N.pl3   
  16 C16            4.7926     1.4951     0.1901 C.ar    
  17 C17            5.8989    -0.5165     0.4307 C.ar    
  18 N18            4.7737     0.1847     0.3762 N.ar    
  19 N19            5.9289     2.1634     0.0440 N.ar    
  20 C20            7.1071     0.1429     0.2894 C.ar    
  21 C21            7.0906     1.5257     0.0867 C.ar    
  22 O22            8.2781    -0.5419     0.3459 O.3     
  23 N23            8.2884     2.2148    -0.0707 N.pl3   
  24 C24            9.5331     1.5180     0.2970 C.3     
  25 C25            9.4346     0.0775    -0.2246 C.3     
  26 C26            8.3104     3.5231    -0.5615 C.ar    
  27 C27            8.7002     4.5694     0.2647 C.ar    
  28 C28            8.7217     5.8636    -0.2234 C.ar    
  29 C29            8.3550     6.1164    -1.5345 C.ar    
  30 C30            7.9660     5.0748    -2.3600 C.ar    
  31 C31            7.9481     3.7784    -1.8778 C.ar    
  32 F32            7.6083     5.3244    -3.6387 F       
  33 F33            9.1003     6.8817     0.5800 F       
  34 H34            1.1436    -0.9459     2.3498 H       
  35 H35            3.2550     0.2243     1.8773 H       
  36 H36            1.2602     2.6737    -1.0047 H       
  37 H37           -2.5761     1.1710     1.5442 H       
  38 H38           -0.6380    -2.5810     1.0541 H       
  39 H39           -3.7467    -3.6848     0.7182 H       
  40 H40           -2.6303    -4.1032     2.0399 H       
  41 H41           -4.1721    -3.2905     2.4010 H       
  42 H42           -0.6460     3.5359    -1.1296 H       
  43 H43           -0.2636     2.3477    -2.3985 H       
  44 H44           -1.9558     2.8026    -2.0862 H       
  45 H45            3.5847     3.1322    -0.0783 H       
  46 H46            5.8721    -1.5854     0.5832 H       
  47 H47           10.3860     2.0191    -0.1608 H       
  48 H48            9.6461     1.5113     1.3812 H       
  49 H49           10.3267    -0.4777     0.0652 H       
  50 H50            9.3451     0.0877    -1.3108 H       
  51 H51            8.9859     4.3726     1.2874 H       
  52 H52            8.3720     7.1275    -1.9138 H       
  53 H53            7.6486     2.9658    -2.5231 H       
@<TRIPOS>BOND
   1    1    2 ar
   2    1    6 ar
   3    1   13 1
   4    2    3 ar
   5    2    7 1
   6    3    4 ar
   7    3   34 1
   8    4    5 ar
   9    4   35 1
  10    5    6 ar
  11    5   15 1
  12    6   36 1
  13    7    8 1
  14    7   11 1
  15    8    9 2
  16    8   37 1
  17    9   10 1
  18   10   11 2
  19   10   12 1
  20   11   38 1
  21   12   39 1
  22   12   40 1
  23   12   41 1
  24   13   14 1
  25   14   42 1
  26   14   43 1
  27   14   44 1
  28   15   16 1
  29   15   45 1
  30   16   19 ar
  31   16   18 ar
  32   17   18 ar
  33   17   20 ar
  34   17   46 1
  35   19   21 ar
  36   20   21 ar
  37   20   22 1
  38   21   23 1
  39   22   25 1
  40   23   24 1
  41   23   26 1
  42   24   25 1
  43   24   47 1
  44   24   48 1
  45   25   49 1
  46   25   50 1
  47   26   27 ar
  48   26   31 ar
  49   27   28 ar
  50   27   51 1
  51   28   29 ar
  52   28   33 1
  53   29   30 ar
  54   29   52 1
  55   30   31 ar
  56   30   32 1
  57   31   53 1

#	End of record

