#	Name: ASD11910001
#	Creating user name:	WinNT
#	Creation time:	15. 06. 2019 21:29

#	Modifying user name:	WinNT
#	Modification time:	15. 06. 2019 21:29

#	Program:	/corina/corina34_cracker 3.40 0067  02.08.2006

@<TRIPOS>MOLECULE
ASD11910001
  34   35    0    0    0
SMALL
NO_CHARGES


@<TRIPOS>ATOM
   1 C1            -0.0166     1.3753     0.0096 C.ar    
   2 C2             0.0021    -0.0041     0.0020 C.ar    
   3 C3             1.2224    -0.6824    -0.0133 C.ar    
   4 C4             2.4163     0.0416    -0.0209 C.ar    
   5 C5             2.3830     1.4207    -0.0132 C.ar    
   6 C6             1.1702     2.0864     0.0021 C.ar    
   7 C7             1.1418     3.5932     0.0105 C.3     
   8 F8             1.1203     4.0665    -1.3059 F       
   9 F9            -0.0027     4.0342     0.6834 F       
  10 F10            2.2814     4.0775     0.6616 F       
  11 C11            1.2503    -2.1584    -0.0210 C.2     
  12 N12            2.3821    -2.7836    -0.0352 N.2     
  13 C13            2.4097    -4.2483    -0.0429 C.3     
  14 C14            3.0070    -4.7327    -1.3389 C.ar    
  15 C15            4.3706    -4.9369    -1.4379 C.ar    
  16 C16            4.9184    -5.3812    -2.6268 C.ar    
  17 C17            4.1025    -5.6217    -3.7165 C.ar    
  18 C18            2.7388    -5.4184    -3.6172 C.ar    
  19 C19            2.1905    -4.9783    -2.4271 C.ar    
  20 C20            4.6999    -6.1051    -5.0129 C.3     
  21 F21            4.7276    -7.5038    -5.0207 F       
  22 F22            3.9235    -5.6481    -6.0832 F       
  23 F23            6.0032    -5.6122    -5.1383 F       
  24 H24           -0.9599     1.9012     0.0169 H       
  25 H25           -0.9250    -0.5580     0.0083 H       
  26 H26            3.3637    -0.4769    -0.0324 H       
  27 H27            3.3057     1.9819    -0.0190 H       
  28 H28            0.3254    -2.7159    -0.0148 H       
  29 H29            3.0141    -4.6047     0.7913 H       
  30 H30            1.3939    -4.6314     0.0547 H       
  31 H31            5.0079    -4.7490    -0.5866 H       
  32 H32            5.9838    -5.5401    -2.7044 H       
  33 H33            2.1015    -5.6060    -4.4687 H       
  34 H34            1.1251    -4.8194    -2.3495 H       
@<TRIPOS>BOND
   1    1    2 ar
   2    1    6 ar
   3    1   24 1
   4    2    3 ar
   5    2   25 1
   6    3    4 ar
   7    3   11 1
   8    4    5 ar
   9    4   26 1
  10    5    6 ar
  11    5   27 1
  12    6    7 1
  13    7    8 1
  14    7    9 1
  15    7   10 1
  16   11   12 2
  17   11   28 1
  18   12   13 1
  19   13   14 1
  20   13   29 1
  21   13   30 1
  22   14   15 ar
  23   14   19 ar
  24   15   16 ar
  25   15   31 1
  26   16   17 ar
  27   16   32 1
  28   17   18 ar
  29   17   20 1
  30   18   19 ar
  31   18   33 1
  32   19   34 1
  33   20   21 1
  34   20   22 1
  35   20   23 1

#	End of record

