#	Name: ASD10160421
#	Creating user name:	WinNT
#	Creation time:	15. 06. 2019 21:25

#	Modifying user name:	WinNT
#	Modification time:	15. 06. 2019 21:25

#	Program:	/corina/corina34_cracker 3.40 0067  02.08.2006

@<TRIPOS>MOLECULE
ASD10160421
  35   36    0    0    0
SMALL
NO_CHARGES


@<TRIPOS>ATOM
   1 C1             1.0149    -7.1471     4.6062 C.2     
   2 C2             0.7636    -6.3561     3.3911 C.ar    
   3 C3             1.8232    -5.7095     2.7409 C.ar    
   4 C4             1.5813    -4.9699     1.6020 C.ar    
   5 C5             0.2898    -4.8650     1.0994 C.ar    
   6 C6            -0.7654    -5.5039     1.7397 C.ar    
   7 C7            -0.5354    -6.2512     2.8761 C.ar    
   8 O8             0.9584    -6.6174     5.6987 O.2     
   9 O9             1.3022    -8.4603     4.5081 O.3     
  10 F10           -1.5613    -6.8760     3.4945 F       
  11 F11            3.0791    -5.8099     3.2288 F       
  12 O12            0.0580    -4.1353    -0.0207 O.3     
  13 C13            0.0398    -4.0424    -2.4013 C.ar    
  14 C14            0.1598    -4.7619    -1.2231 C.ar    
  15 C15            0.3862    -6.1341    -1.2857 C.ar    
  16 C16            0.4833    -6.7300    -2.5319 C.ar    
  17 C17            0.3524    -5.9438    -3.6703 C.ar    
  18 N18            0.1378    -4.6430    -3.5721 N.ar    
  19 O19            0.4459    -6.5180    -4.8970 O.3     
  20 C20            0.3027    -5.6574    -6.0288 C.3     
  21 C21            1.1236    -6.2092    -7.1961 C.3     
  22 C22           -1.1716    -5.5852    -6.4313 C.3     
  23 Cl23           0.7655    -8.4373    -2.6703 Cl      
  24 H24            2.3971    -4.4711     1.1000 H       
  25 H25           -1.7668    -5.4183     1.3446 H       
  26 H26            1.4596    -8.9382     5.3339 H       
  27 H27           -0.1403    -2.9783    -2.3608 H       
  28 H28            0.4841    -6.7199    -0.3837 H       
  29 H29            0.6590    -4.6594    -5.7737 H       
  30 H30            0.7673    -7.2072    -7.4512 H       
  31 H31            1.0144    -5.5527    -8.0594 H       
  32 H32            2.1740    -6.2606    -6.9094 H       
  33 H33           -1.2808    -4.9288    -7.2946 H       
  34 H34           -1.5279    -6.5832    -6.6864 H       
  35 H35           -1.7564    -5.1921    -5.5997 H       
@<TRIPOS>BOND
   1    1    2 1
   2    1    8 2
   3    1    9 1
   4    2    3 ar
   5    2    7 ar
   6    3    4 ar
   7    3   11 1
   8    4    5 ar
   9    4   24 1
  10    5    6 ar
  11    5   12 1
  12    6    7 ar
  13    6   25 1
  14    7   10 1
  15    9   26 1
  16   12   14 1
  17   13   14 ar
  18   13   18 ar
  19   13   27 1
  20   14   15 ar
  21   15   16 ar
  22   15   28 1
  23   16   17 ar
  24   16   23 1
  25   17   18 ar
  26   17   19 1
  27   19   20 1
  28   20   21 1
  29   20   22 1
  30   20   29 1
  31   21   30 1
  32   21   31 1
  33   21   32 1
  34   22   33 1
  35   22   34 1
  36   22   35 1

#	End of record

