#	Name: ASD10160457
#	Creating user name:	WinNT
#	Creation time:	15. 06. 2019 21:26

#	Modifying user name:	WinNT
#	Modification time:	15. 06. 2019 21:26

#	Program:	/corina/corina34_cracker 3.40 0067  02.08.2006

@<TRIPOS>MOLECULE
ASD10160457
  37   38    0    0    0
SMALL
NO_CHARGES


@<TRIPOS>ATOM
   1 C1             4.4973     8.6161     0.8567 C.1     
   2 C2             3.3195     7.8293     0.6461 C.ar    
   3 C3             2.7007     7.1838     1.7277 C.ar    
   4 C4             1.5630     6.4254     1.5155 C.ar    
   5 C5             1.0372     6.3045     0.2370 C.ar    
   6 C6             1.6496     6.9434    -0.8364 C.ar    
   7 C7             2.7782     7.7057    -0.6370 C.ar    
   8 N8             5.4316     9.2404     1.0238 N.1     
   9 O9             3.2166     7.3027     2.9773 O.3     
  10 C10            2.5334     6.6178     4.0291 C.3     
  11 O11           -0.0789     5.5597     0.0328 O.3     
  12 C12           -2.4582     5.4391     0.0611 C.ar    
  13 C13           -1.2865     6.1732     0.1523 C.ar    
  14 C14           -1.3609     7.5464     0.3683 C.ar    
  15 C15           -2.6119     8.1287     0.4843 C.ar    
  16 C16           -3.7432     7.3283     0.3819 C.ar    
  17 N17           -3.6339     6.0268     0.1768 N.ar    
  18 O18           -4.9747     7.8891     0.4941 O.3     
  19 C19           -6.0988     7.0142     0.3799 C.3     
  20 C20           -6.4715     6.4794     1.7640 C.3     
  21 C21           -7.2851     7.7821    -0.2066 C.3     
  22 Cl22          -2.7649     9.8367     0.7547 Cl      
  23 H23            1.0842     5.9268     2.3454 H       
  24 H24            1.2353     6.8448    -1.8288 H       
  25 H25            3.2479     8.2044    -1.4719 H       
  26 H26            1.5101     6.9868     4.0983 H       
  27 H27            2.5205     5.5485     3.8181 H       
  28 H28            3.0485     6.7957     4.9731 H       
  29 H29           -2.4087     4.3740    -0.1109 H       
  30 H30           -0.4641     8.1435     0.4440 H       
  31 H31           -5.8455     6.1809    -0.2755 H       
  32 H32           -7.3289     5.8121     1.6769 H       
  33 H33           -5.6263     5.9324     2.1819 H       
  34 H34           -6.7247     7.3127     2.4194 H       
  35 H35           -7.0196     8.1631    -1.1927 H       
  36 H36           -8.1425     7.1147    -0.2937 H       
  37 H37           -7.5383     8.6154     0.4488 H       
@<TRIPOS>BOND
   1    1    2 1
   2    1    8 3
   3    2    3 ar
   4    2    7 ar
   5    3    4 ar
   6    3    9 1
   7    4    5 ar
   8    4   23 1
   9    5    6 ar
  10    5   11 1
  11    6    7 ar
  12    6   24 1
  13    7   25 1
  14    9   10 1
  15   10   26 1
  16   10   27 1
  17   10   28 1
  18   11   13 1
  19   12   13 ar
  20   12   17 ar
  21   12   29 1
  22   13   14 ar
  23   14   15 ar
  24   14   30 1
  25   15   16 ar
  26   15   22 1
  27   16   17 ar
  28   16   18 1
  29   18   19 1
  30   19   20 1
  31   19   21 1
  32   19   31 1
  33   20   32 1
  34   20   33 1
  35   20   34 1
  36   21   35 1
  37   21   36 1
  38   21   37 1

#	End of record

