#	Name: ASD10160341
#	Creating user name:	WinNT
#	Creation time:	15. 06. 2019 21:25

#	Modifying user name:	WinNT
#	Modification time:	15. 06. 2019 21:25

#	Program:	/corina/corina34_cracker 3.40 0067  02.08.2006

@<TRIPOS>MOLECULE
ASD10160341
  27   27    0    0    0
SMALL
NO_CHARGES


@<TRIPOS>ATOM
   1 C1            -0.0179     1.4686     0.0101 C.2     
   2 C2             0.0021    -0.0041     0.0020 C.ar    
   3 C3             0.0232    -0.7143     1.2088 C.ar    
   4 C4             0.0413    -2.0949     1.1930 C.ar    
   5 C5             0.0392    -2.7778    -0.0132 C.ar    
   6 C6             0.0188    -2.0820    -1.2118 C.ar    
   7 C7            -0.0058    -0.7013    -1.2124 C.ar    
   8 O8             1.0261     2.0905     0.0035 O.2     
   9 O9            -1.1940     2.1265     0.0193 O.3     
  10 F10           -0.0317    -0.0249    -2.3816 F       
  11 F11            0.0575    -4.1286    -0.0207 F       
  12 F12            0.0262    -0.0503     2.3854 F       
  13 C13           -1.1377     3.5774     0.0269 C.3     
  14 C14           -0.4031     4.0658    -1.2232 C.3     
  15 C15           -2.5593     4.1429     0.0367 C.3     
  16 C16           -0.3913     4.0522     1.2752 C.3     
  17 H17            0.0576    -2.6440     2.1228 H       
  18 H18            0.0176    -2.6211    -2.1477 H       
  19 H19           -0.9349     3.7275    -2.1125 H       
  20 H20           -0.3609     5.1550    -1.2175 H       
  21 H21            0.6096     3.6629    -1.2302 H       
  22 H22           -3.0826     3.7949     0.9273 H       
  23 H23           -2.5170     5.2320     0.0424 H       
  24 H24           -3.0911     3.8046    -0.8526 H       
  25 H25            0.6215     3.6493     1.2682 H       
  26 H26           -0.3490     5.1414     1.2809 H       
  27 H27           -0.9146     3.7042     2.1658 H       
@<TRIPOS>BOND
   1    1    2 1
   2    1    8 2
   3    1    9 1
   4    2    3 ar
   5    2    7 ar
   6    3    4 ar
   7    3   12 1
   8    4    5 ar
   9    4   17 1
  10    5    6 ar
  11    5   11 1
  12    6    7 ar
  13    6   18 1
  14    7   10 1
  15    9   13 1
  16   13   14 1
  17   13   16 1
  18   13   15 1
  19   14   19 1
  20   14   20 1
  21   14   21 1
  22   15   22 1
  23   15   23 1
  24   15   24 1
  25   16   25 1
  26   16   26 1
  27   16   27 1

#	End of record

