#	Name: ASD17060001
#	Creating user name:	WinNT
#	Creation time:	15. 06. 2019 21:31

#	Modifying user name:	WinNT
#	Modification time:	15. 06. 2019 21:31

#	Program:	/corina/corina34_cracker 3.40 0067  02.08.2006

@<TRIPOS>MOLECULE
ASD17060001
  49   51    0    0    0
SMALL
NO_CHARGES


@<TRIPOS>ATOM
   1 P1            -0.0180     1.4758     0.0102 P.3     
   2 O2             0.0021    -0.0041     0.0020 O.2     
   3 O3             1.4924     2.0330    -0.0013 O.3     
   4 O4            -0.7967     2.0091    -1.2942 O.3     
   5 N5            -0.8057     2.0185     1.3948 N.3     
   6 P6            -2.3915     1.4571     1.4459 P.3     
   7 O7            -3.1268     1.9472     0.2586 O.2     
   8 O8            -2.3909    -0.1529     1.4498 O.3     
   9 O9            -3.1092     1.9968     2.7822 O.3     
  10 P10           -4.5826     1.8246     3.4078 P.3     
  11 O11           -5.5895     1.8945     2.3254 O.2     
  12 O12           -4.6882     0.3986     4.1478 O.3     
  13 O13           -4.8551     3.0024     4.4711 O.3     
  14 C14           -6.1137     3.1872     5.1223 C.3     
  15 C15           -6.0290     4.3903     6.0637 C.3     
  16 O16           -5.8532     5.5962     5.3013 O.3     
  17 C17           -7.3461     4.5337     6.8506 C.3     
  18 O18           -7.1035     4.4311     8.2551 O.3     
  19 C19           -7.8510     5.9521     6.4901 C.3     
  20 O20           -8.3820     6.6122     7.6409 O.3     
  21 C21           -6.5525     6.6453     6.0048 C.3     
  22 N22           -6.8666     7.7531     5.0991 N.pl3   
  23 C23           -6.9836     7.6774     3.7414 C.2     
  24 N24           -7.2704     8.8505     3.2575 N.2     
  25 C25           -7.3543     9.7459     4.2714 C.2     
  26 C26           -7.6309    11.1314     4.3418 C.2     
  27 O27           -7.8612    11.7746     3.3320 O.2     
  28 N28           -7.6339    11.7243     5.5563 N.am    
  29 C29           -7.3755    10.9954     6.6787 C.2     
  30 N30           -7.3858    11.6242     7.8984 N.pl3   
  31 N31           -7.1172     9.7078     6.6266 N.2     
  32 C32           -7.1023     9.0519     5.4603 C.2     
  33 H33            2.0070     1.7589    -0.7727 H       
  34 H34           -0.8486     2.9728    -1.3546 H       
  35 H35           -0.7764     3.0252     1.4564 H       
  36 H36           -1.9253    -0.5442     2.2017 H       
  37 H37           -4.0561     0.2826     4.8703 H       
  38 H38           -6.8869     3.3646     4.3748 H       
  39 H39           -6.3607     2.2938     5.6957 H       
  40 H40           -5.1946     4.2630     6.7535 H       
  41 H41           -8.0648     3.7784     6.5324 H       
  42 H42           -7.8988     4.5143     8.7988 H       
  43 H43           -8.5919     5.9100     5.6917 H       
  44 H44           -9.1430     6.1642     8.0351 H       
  45 H45           -5.9648     6.9965     6.8530 H       
  46 H46           -6.8571     6.7784     3.1565 H       
  47 H47           -7.8205    12.6733     5.6295 H       
  48 H48           -7.5751    12.5739     7.9529 H       
  49 H49           -7.2038    11.1188     8.7061 H       
@<TRIPOS>BOND
   1    1    2 2
   2    1    3 1
   3    1    4 1
   4    1    5 1
   5    3   33 1
   6    4   34 1
   7    5    6 1
   8    5   35 1
   9    6    7 2
  10    6    8 1
  11    6    9 1
  12    8   36 1
  13    9   10 1
  14   10   11 2
  15   10   12 1
  16   10   13 1
  17   12   37 1
  18   13   14 1
  19   14   15 1
  20   14   38 1
  21   14   39 1
  22   15   16 1
  23   15   17 1
  24   15   40 1
  25   16   21 1
  26   17   18 1
  27   17   19 1
  28   17   41 1
  29   18   42 1
  30   19   20 1
  31   19   21 1
  32   19   43 1
  33   20   44 1
  34   21   22 1
  35   21   45 1
  36   22   23 1
  37   22   32 1
  38   23   24 2
  39   23   46 1
  40   24   25 1
  41   25   26 1
  42   25   32 2
  43   26   27 2
  44   26   28 am
  45   28   29 1
  46   28   47 1
  47   29   30 1
  48   29   31 2
  49   30   48 1
  50   30   49 1
  51   31   32 1

#	End of record

