#	Name: ASD13110014
#	Creating user name:	WinNT
#	Creation time:	15. 06. 2019 21:30

#	Modifying user name:	WinNT
#	Modification time:	15. 06. 2019 21:30

#	Program:	/corina/corina34_cracker 3.40 0067  02.08.2006

@<TRIPOS>MOLECULE
ASD13110014
  52   56    0    0    0
SMALL
NO_CHARGES


@<TRIPOS>ATOM
   1 F1             0.0021    -0.0041     0.0020 F       
   2 C2            -0.0162     1.3468     0.0094 C.ar    
   3 C3            -1.2219     2.0242     0.0304 C.ar    
   4 C4            -1.2418     3.4082     0.0380 C.ar    
   5 C5            -0.0602     4.1227     0.0253 C.ar    
   6 C6             1.1540     3.4529     0.0047 C.ar    
   7 O7             2.4421     3.8752    -0.0110 O.3     
   8 C8             3.2563     2.8083    -0.0281 C.2     
   9 O9             4.4714     2.8522    -0.0443 O.2     
  10 N10            2.5181     1.6806    -0.0238 N.am    
  11 C11            3.0316     0.3086    -0.0375 C.3     
  12 C12            3.2273    -0.1687     1.3784 C.2     
  13 O13            2.9639     0.5649     2.3076 O.2     
  14 N14            3.6951    -1.4109     1.6123 N.am    
  15 C15            3.8751    -1.8646     2.9809 C.3     
  16 C16            2.9280    -2.9715     3.4016 C.3     
  17 C17            3.2237    -4.2645     2.6288 C.3     
  18 N18            2.5539    -4.1697     1.3224 N.pl3   
  19 C19            1.5151    -4.9217     0.8663 C.2     
  20 C20            1.2221    -4.4595    -0.3801 C.2     
  21 N21            2.0797    -3.4528    -0.6585 N.2     
  22 C22            2.8764    -3.2877     0.3515 C.2     
  23 C23            4.0122    -2.2945     0.4780 C.3     
  24 C24            0.1527    -4.9697    -1.2731 C.ar    
  25 C25           -0.6679    -6.0155    -0.8549 C.ar    
  26 C26           -1.6611    -6.4861    -1.6897 C.ar    
  27 C27           -1.8427    -5.9217    -2.9395 C.ar    
  28 C28           -1.0308    -4.8837    -3.3599 C.ar    
  29 C29           -0.0386    -4.4011    -2.5309 C.ar    
  30 C30           -2.9289    -6.4399    -3.8465 C.3     
  31 F31           -4.1112    -5.7300    -3.6112 F       
  32 F32           -2.5420    -6.2723    -5.1805 F       
  33 F33           -3.1419    -7.7986    -3.5900 F       
  34 C34            1.1749     2.0593     0.0019 C.ar    
  35 H35           -2.1500     1.4720     0.0404 H       
  36 H36           -2.1862     3.9319     0.0537 H       
  37 H37           -0.0816     5.2025     0.0310 H       
  38 H38            2.3183    -0.3412    -0.5446 H       
  39 H39            3.9852     0.2828    -0.5647 H       
  40 H40            4.8983    -2.2225     3.0951 H       
  41 H41            3.7328    -1.0149     3.6487 H       
  42 H42            3.0448    -3.1570     4.4693 H       
  43 H43            1.9023    -2.6611     3.2022 H       
  44 H44            4.2990    -4.3713     2.4856 H       
  45 H45            2.8371    -5.1212     3.1808 H       
  46 H46            1.0210    -5.7267     1.3900 H       
  47 H47            4.0938    -1.7093    -0.4380 H       
  48 H48            4.9467    -2.8226     0.6677 H       
  49 H49           -0.5268    -6.4571     0.1205 H       
  50 H50           -2.2974    -7.2968    -1.3668 H       
  51 H51           -1.1766    -4.4472    -4.3370 H       
  52 H52            0.5917    -3.5874    -2.8583 H       
@<TRIPOS>BOND
   1    1    2 1
   2    2   34 ar
   3    2    3 ar
   4    3    4 ar
   5    3   35 1
   6    4    5 ar
   7    4   36 1
   8    5    6 ar
   9    5   37 1
  10    6   34 ar
  11    6    7 1
  12    7    8 1
  13    8    9 2
  14    8   10 am
  15   10   11 1
  16   10   34 1
  17   11   12 1
  18   11   38 1
  19   11   39 1
  20   12   13 2
  21   12   14 am
  22   14   23 1
  23   14   15 1
  24   15   16 1
  25   15   40 1
  26   15   41 1
  27   16   17 1
  28   16   42 1
  29   16   43 1
  30   17   18 1
  31   17   44 1
  32   17   45 1
  33   18   22 1
  34   18   19 1
  35   19   20 2
  36   19   46 1
  37   20   21 1
  38   20   24 1
  39   21   22 2
  40   22   23 1
  41   23   47 1
  42   23   48 1
  43   24   29 ar
  44   24   25 ar
  45   25   26 ar
  46   25   49 1
  47   26   27 ar
  48   26   50 1
  49   27   28 ar
  50   27   30 1
  51   28   29 ar
  52   28   51 1
  53   29   52 1
  54   30   31 1
  55   30   32 1
  56   30   33 1

#	End of record

