#	Name: ASD10420016
#	Creating user name:	WinNT
#	Creation time:	15. 06. 2019 21:27

#	Modifying user name:	WinNT
#	Modification time:	15. 06. 2019 21:27

#	Program:	/corina/corina34_cracker 3.40 0067  02.08.2006

@<TRIPOS>MOLECULE
ASD10420016
  61   65    0    0    0
SMALL
NO_CHARGES


@<TRIPOS>ATOM
   1 C1            -0.0474     2.2520     0.0259 C.2     
   2 N2             0.3479     0.9415     0.0432 N.pl3   
   3 C3            -0.7739     0.1427     0.0504 C.2     
   4 C4            -1.8834     0.9291     0.0379 C.2     
   5 C5            -1.4558     2.2746     0.0274 C.2     
   6 C6             0.9105     3.2759     0.0158 C.2     
   7 C7             2.2354     2.9519     0.0235 C.2     
   8 C8             2.6153     1.6018     0.0413 C.2     
   9 C9             1.6777     0.6296     0.0507 C.2     
  10 C10           -2.3103     3.4624     0.0129 C.2     
  11 N11           -2.5630     4.0965    -1.1493 N.am    
  12 C12           -1.9902     3.6114    -2.4141 C.3     
  13 C13           -1.3028     4.7855    -3.1191 C.3     
  14 N14           -2.2543     5.8965    -3.2540 N.3     
  15 C15           -2.6754     6.4000    -1.9397 C.3     
  16 C16           -3.4240     5.2884    -1.1872 C.3     
  17 O17           -2.7930     3.8780     1.0506 O.2     
  18 C18           -3.3123     0.4504     0.0400 C.3     
  19 C19           -3.8304     0.4094    -1.3746 C.ar    
  20 C20           -3.8618    -0.7880    -2.0643 C.ar    
  21 C21           -4.2792     1.5682    -1.9798 C.ar    
  22 C22           -4.7548     1.5321    -3.2776 C.ar    
  23 C23           -4.7823     0.3372    -3.9709 C.ar    
  24 C24           -4.3378    -0.8254    -3.3637 C.ar    
  25 C25           -0.7723    -1.3347     0.0684 C.ar    
  26 C26           -0.1029    -2.0474    -0.9284 C.ar    
  27 C27           -0.1055    -3.4266    -0.9056 C.ar    
  28 C28           -0.7694    -4.1038     0.1020 C.ar    
  29 C29           -1.4347    -3.4037     1.0929 C.ar    
  30 C30           -1.4353    -2.0243     1.0854 C.ar    
  31 C31           -3.6035     7.6018    -2.1268 C.3     
  32 C32           -3.3777    -2.0522    -1.4022 C.3     
  33 F33           -4.3638    -1.9942    -4.0408 F       
  34 H34            0.6022     4.3109     0.0018 H       
  35 H35            2.9859     3.7285     0.0156 H       
  36 H36            3.6626     1.3384     0.0475 H       
  37 H37            1.9830    -0.4063     0.0644 H       
  38 H38           -1.2595     2.8290    -2.2088 H       
  39 H39           -2.7842     3.2174    -3.0484 H       
  40 H40           -0.4446     5.1109    -2.5311 H       
  41 H41           -0.9686     4.4709    -4.1078 H       
  42 H42           -1.8669     6.6380    -3.8180 H       
  43 H43           -1.7981     6.7029    -1.3681 H       
  44 H44           -4.3551     5.0585    -1.7052 H       
  45 H45           -3.6388     5.6155    -0.1699 H       
  46 H46           -3.3603    -0.5484     0.4736 H       
  47 H47           -3.9232     1.1328     0.6310 H       
  48 H48           -4.2587     2.5025    -1.4384 H       
  49 H49           -5.1052     2.4381    -3.7495 H       
  50 H50           -5.1545     0.3091    -4.9843 H       
  51 H51            0.4154    -1.5200    -1.7156 H       
  52 H52            0.4116    -3.9792    -1.6761 H       
  53 H53           -0.7686    -5.1837     0.1149 H       
  54 H54           -1.9512    -3.9385     1.8763 H       
  55 H55           -1.9548    -1.4791     1.8596 H       
  56 H56           -4.4811     7.2978    -2.6974 H       
  57 H57           -3.9157     7.9751    -1.1514 H       
  58 H58           -3.0750     8.3888    -2.6648 H       
  59 H59           -4.2260    -2.5852    -0.9727 H       
  60 H60           -2.8877    -2.6852    -2.1420 H       
  61 H61           -2.6693    -1.8007    -0.6129 H       
@<TRIPOS>BOND
   1    1    2 1
   2    1    6 1
   3    1    5 2
   4    2    3 1
   5    2    9 1
   6    3    4 2
   7    3   25 1
   8    4    5 1
   9    4   18 1
  10    5   10 1
  11    6    7 2
  12    6   34 1
  13    7    8 1
  14    7   35 1
  15    8    9 2
  16    8   36 1
  17    9   37 1
  18   10   11 am
  19   10   17 2
  20   11   12 1
  21   11   16 1
  22   12   13 1
  23   12   38 1
  24   12   39 1
  25   13   14 1
  26   13   40 1
  27   13   41 1
  28   14   15 1
  29   14   42 1
  30   15   16 1
  31   15   31 1
  32   15   43 1
  33   16   44 1
  34   16   45 1
  35   18   19 1
  36   18   46 1
  37   18   47 1
  38   19   20 ar
  39   19   21 ar
  40   20   32 1
  41   20   24 ar
  42   21   22 ar
  43   21   48 1
  44   22   23 ar
  45   22   49 1
  46   23   24 ar
  47   23   50 1
  48   24   33 1
  49   25   26 ar
  50   25   30 ar
  51   26   27 ar
  52   26   51 1
  53   27   28 ar
  54   27   52 1
  55   28   29 ar
  56   28   53 1
  57   29   30 ar
  58   29   54 1
  59   30   55 1
  60   31   56 1
  61   31   57 1
  62   31   58 1
  63   32   59 1
  64   32   60 1
  65   32   61 1

#	End of record

