#	Name: ASD10160188
#	Creating user name:	WinNT
#	Creation time:	15. 06. 2019 21:25

#	Modifying user name:	WinNT
#	Modification time:	15. 06. 2019 21:25

#	Program:	/corina/corina34_cracker 3.40 0067  02.08.2006

@<TRIPOS>MOLECULE
ASD10160188
  32   33    0    0    0
SMALL
NO_CHARGES


@<TRIPOS>ATOM
   1 C1            -0.0337     1.4701     0.0134 C.2     
   2 C2            -0.0095    -0.0043     0.0045 C.ar    
   3 C3             1.2055    -0.6856    -0.1324 C.ar    
   4 C4             1.2229    -2.0660    -0.1402 C.ar    
   5 C5             0.0378    -2.7777    -0.0131 C.ar    
   6 C6            -1.1730    -2.1037     0.1232 C.ar    
   7 C7            -1.1995    -0.7259     0.1384 C.ar    
   8 O8             1.0029     2.0959    -0.0982 O.2     
   9 N9            -1.2054     2.1241     0.1398 N.am    
  10 S10           -1.2326     3.7799     0.1498 S.o2    
  11 O11           -2.6047     4.1068     0.3217 O.2     
  12 O12           -0.2656     4.1403     1.1267 O.2     
  13 C13           -0.6687     4.2519    -1.5084 C.3     
  14 F14           -2.3231    -2.8017     0.2466 F       
  15 F15            2.3591     0.0064    -0.2570 F       
  16 O16            0.0593    -4.1351    -0.0222 O.3     
  17 C17           -0.1513    -4.7667    -1.2022 C.ar    
  18 C18           -0.0390    -6.1634    -1.2841 C.ar    
  19 N19           -0.4696    -4.0690    -2.2832 N.ar    
  20 N20           -0.2478    -6.7737    -2.4474 N.ar    
  21 C21           -0.5584    -6.0664    -3.5161 C.ar    
  22 C22           -0.6744    -4.6877    -3.4328 C.ar    
  23 C23            0.2990    -6.9275    -0.1212 C.1     
  24 N24            0.5672    -7.5337     0.8014 N.1     
  25 H25            2.1597    -2.5929    -0.2457 H       
  26 H26           -2.1387    -0.2043     0.2491 H       
  27 H27           -2.0328     1.6249     0.2248 H       
  28 H28           -1.3473     3.8383    -2.2544 H       
  29 H29           -0.6555     5.3386    -1.5921 H       
  30 H30            0.3356     3.8624    -1.6752 H       
  31 H31           -0.7275    -6.5640    -4.4596 H       
  32 H32           -0.9336    -4.1162    -4.3118 H       
@<TRIPOS>BOND
   1    1    2 1
   2    1    8 2
   3    1    9 am
   4    2    3 ar
   5    2    7 ar
   6    3    4 ar
   7    3   15 1
   8    4    5 ar
   9    4   25 1
  10    5    6 ar
  11    5   16 1
  12    6    7 ar
  13    6   14 1
  14    7   26 1
  15    9   10 am
  16    9   27 1
  17   10   11 2
  18   10   12 2
  19   10   13 1
  20   13   28 1
  21   13   29 1
  22   13   30 1
  23   16   17 1
  24   17   18 ar
  25   17   19 ar
  26   18   20 ar
  27   18   23 1
  28   19   22 ar
  29   20   21 ar
  30   21   22 ar
  31   21   31 1
  32   22   32 1
  33   23   24 3

#	End of record

