#	Name: ASD10420029
#	Creating user name:	WinNT
#	Creation time:	15. 06. 2019 21:27

#	Modifying user name:	WinNT
#	Modification time:	15. 06. 2019 21:27

#	Program:	/corina/corina34_cracker 3.40 0067  02.08.2006

@<TRIPOS>MOLECULE
ASD10420029
  42   45    0    0    0
SMALL
NO_CHARGES


@<TRIPOS>ATOM
   1 C1            -0.0170     1.4056     0.0098 C.2     
   2 C2             0.0021    -0.0041     0.0020 C.2     
   3 C3             1.2928    -0.4014    -0.0124 C.2     
   4 N4             2.1045     0.6964    -0.0143 N.pl3   
   5 C5             3.4704     0.8185    -0.0273 C.2     
   6 C6             4.0523     2.0339    -0.0266 C.2     
   7 C7             3.2677     3.2007    -0.0129 C.2     
   8 C8             1.9107     3.0986    -0.0003 C.2     
   9 C9             1.3160     1.8242    -0.0007 C.2     
  10 C10           -1.2157     2.2730     0.0205 C.ar    
  11 C11           -1.4789     3.0912     1.1202 C.ar    
  12 C12           -2.5982     3.8976     1.1238 C.ar    
  13 C13           -3.4590     3.8964     0.0405 C.ar    
  14 C14           -3.2038     3.0876    -1.0528 C.ar    
  15 C15           -2.0849     2.2809    -1.0716 C.ar    
  16 C16           -1.2040    -0.9075     0.0094 C.3     
  17 C17           -1.6947    -1.1020    -1.4021 C.ar    
  18 C18           -1.1319    -2.0799    -2.2006 C.ar    
  19 C19           -1.5832    -2.2586    -3.4971 C.ar    
  20 C20           -2.5981    -1.4572    -3.9925 C.ar    
  21 C21           -3.1592    -0.4803    -3.1925 C.ar    
  22 C22           -2.7113    -0.3062    -1.8960 C.ar    
  23 C23           -0.0272    -2.9508    -1.6601 C.3     
  24 F24           -1.0335    -3.2138    -4.2786 F       
  25 H25            1.6302    -1.4273    -0.0208 H       
  26 H26            4.0861    -0.0687    -0.0379 H       
  27 H27            5.1294     2.1124    -0.0363 H       
  28 H28            3.7393     4.1723    -0.0121 H       
  29 H29            1.2969     3.9871     0.0107 H       
  30 H30           -0.8080     3.0927     1.9665 H       
  31 H31           -2.8033     4.5309     1.9743 H       
  32 H32           -4.3341     4.5293     0.0484 H       
  33 H33           -3.8797     3.0911    -1.8951 H       
  34 H34           -1.8842     1.6536    -1.9275 H       
  35 H35           -0.9321    -1.8731     0.4358 H       
  36 H36           -1.9935    -0.4548     0.6094 H       
  37 H37           -2.9507    -1.5955    -5.0039 H       
  38 H38           -3.9507     0.1448    -3.5786 H       
  39 H39           -3.1535     0.4546    -1.2699 H       
  40 H40           -0.4582    -3.8367    -1.1936 H       
  41 H41            0.6294    -3.2529    -2.4760 H       
  42 H42            0.5462    -2.3929    -0.9199 H       
@<TRIPOS>BOND
   1    1    2 1
   2    1    9 2
   3    1   10 1
   4    2    3 2
   5    2   16 1
   6    3    4 1
   7    3   25 1
   8    4    5 1
   9    4    9 1
  10    5    6 2
  11    5   26 1
  12    6    7 1
  13    6   27 1
  14    7    8 2
  15    7   28 1
  16    8    9 1
  17    8   29 1
  18   10   11 ar
  19   10   15 ar
  20   11   12 ar
  21   11   30 1
  22   12   13 ar
  23   12   31 1
  24   13   14 ar
  25   13   32 1
  26   14   15 ar
  27   14   33 1
  28   15   34 1
  29   16   17 1
  30   16   35 1
  31   16   36 1
  32   17   18 ar
  33   17   22 ar
  34   18   19 ar
  35   18   23 1
  36   19   20 ar
  37   19   24 1
  38   20   21 ar
  39   20   37 1
  40   21   22 ar
  41   21   38 1
  42   22   39 1
  43   23   40 1
  44   23   41 1
  45   23   42 1

#	End of record

