#	Name: ASD11000046
#	Creating user name:	WinNT
#	Creation time:	15. 06. 2019 21:28

#	Modifying user name:	WinNT
#	Modification time:	15. 06. 2019 21:28

#	Program:	/corina/corina34_cracker 3.40 0067  02.08.2006

@<TRIPOS>MOLECULE
ASD11000046
  37   38    0    0    0
SMALL
NO_CHARGES


@<TRIPOS>ATOM
   1 C1            -0.0167     1.3794     0.0096 C.ar    
   2 C2             0.0021    -0.0041     0.0020 C.ar    
   3 C3            -1.1813    -0.7131     0.0100 C.ar    
   4 C4            -2.3995    -0.0316     0.0257 C.ar    
   5 C5            -2.4113     1.3643     0.0333 C.ar    
   6 C6            -1.2206     2.0610     0.0306 C.ar    
   7 C7            -3.6713    -0.7847     0.0338 C.2     
   8 O8            -3.6579    -2.0001     0.0268 O.2     
   9 N9            -4.8457    -0.1237     0.0490 N.am    
  10 C10           -6.0454    -0.8341     0.0567 C.2     
  11 N11           -7.2534    -0.3344     0.0708 N.2     
  12 C12            1.2800     2.1472     0.0014 C.3     
  13 C13            2.0743     1.7932    -1.2574 C.3     
  14 C14            0.9839     3.6483     0.0123 C.3     
  15 C15            2.0982     1.7798     1.2409 C.3     
  16 O16           -8.0924    -1.2050     0.0742 O.3     
  17 C17           -7.5406    -2.4270     0.0625 C.2     
  18 C18           -6.2005    -2.2459     0.0444 C.2     
  19 C19           -8.2713    -3.7450     0.0629 C.3     
  20 H20            0.9452    -0.5301    -0.0105 H       
  21 H21           -1.1653    -1.7929     0.0037 H       
  22 H22           -3.3503     1.8976     0.0451 H       
  23 H23           -1.2283     3.1410     0.0364 H       
  24 H24           -4.8564     0.8462     0.0547 H       
  25 H25            1.4914     2.0550    -2.1405 H       
  26 H26            3.0122     2.3486    -1.2634 H       
  27 H27            2.2853     0.7238    -1.2652 H       
  28 H28            0.4180     3.9005     0.9090 H       
  29 H29            1.9218     4.2037     0.0063 H       
  30 H30            0.4010     3.9101    -0.8708 H       
  31 H31            2.3091     0.7104     1.2331 H       
  32 H32            3.0361     2.3352     1.2349 H       
  33 H33            1.5323     2.0320     2.1377 H       
  34 H34           -5.4274    -3.0000     0.0306 H       
  35 H35           -9.3462    -3.5645     0.0740 H       
  36 H36           -8.0065    -4.3075    -0.8325 H       
  37 H37           -7.9896    -4.3163     0.9474 H       
@<TRIPOS>BOND
   1    1    2 ar
   2    1   12 1
   3    1    6 ar
   4    2    3 ar
   5    2   20 1
   6    3    4 ar
   7    3   21 1
   8    4    5 ar
   9    4    7 1
  10    5    6 ar
  11    5   22 1
  12    6   23 1
  13    7    8 2
  14    7    9 am
  15    9   10 1
  16    9   24 1
  17   10   11 2
  18   10   18 1
  19   11   16 1
  20   12   13 1
  21   12   14 1
  22   12   15 1
  23   13   25 1
  24   13   26 1
  25   13   27 1
  26   14   28 1
  27   14   29 1
  28   14   30 1
  29   15   31 1
  30   15   32 1
  31   15   33 1
  32   16   17 1
  33   17   18 2
  34   17   19 1
  35   18   34 1
  36   19   35 1
  37   19   36 1
  38   19   37 1

#	End of record

