#	Name: ASD11000258
#	Creating user name:	WinNT
#	Creation time:	15. 06. 2019 21:29

#	Modifying user name:	WinNT
#	Modification time:	15. 06. 2019 21:29

#	Program:	/corina/corina34_cracker 3.40 0067  02.08.2006

@<TRIPOS>MOLECULE
ASD11000258
  36   38    0    0    0
SMALL
NO_CHARGES


@<TRIPOS>ATOM
   1 C1             0.4474     1.3288    -1.6179 C.ar    
   2 C2             0.5462    -0.0433    -1.7078 C.ar    
   3 C3             1.6489    -0.7037    -1.1942 C.ar    
   4 C4             2.6660     0.0121    -0.5827 C.ar    
   5 C5             2.5768     1.3791    -0.4881 C.ar    
   6 C6             1.4686     2.0618    -1.0037 C.ar    
   7 C7             1.3760     3.5238    -0.9052 C.2     
   8 S8             3.8524     2.3238     0.2881 S.o2    
   9 N9             3.7161     3.8423    -0.3860 N.am    
  10 C10            2.4183     4.3354    -0.6236 C.2     
  11 O11            3.4961     2.4486     1.6580 O.2     
  12 O12            5.0905     1.7863    -0.1563 O.2     
  13 C13            4.9024     4.6349    -0.7187 C.3     
  14 C14            2.1976     5.7352    -0.5636 C.2     
  15 N15            3.0368     6.5202     0.1406 N.am    
  16 O16            1.2498     6.2278    -1.1485 O.2     
  17 C17            2.8984     7.9052     0.0943 C.ar    
  18 C18            1.5527     9.8415    -0.3052 C.ar    
  19 C19            1.6766     8.4638    -0.2636 C.ar    
  20 N20            3.9300     8.6780     0.3969 N.ar    
  21 C21            3.8413     9.9937     0.3661 C.ar    
  22 C22            2.6595    10.6159     0.0146 C.ar    
  23 O23            0.1654     4.0966    -1.1108 O.3     
  24 H24           -0.4143     1.8372    -2.0247 H       
  25 H25           -0.2431    -0.6074    -2.1823 H       
  26 H26            1.7167    -1.7789    -1.2699 H       
  27 H27            3.5259    -0.5037    -0.1815 H       
  28 H28            5.2651     4.3492    -1.7061 H       
  29 H29            4.6436     5.6937    -0.7190 H       
  30 H30            5.6813     4.4514     0.0215 H       
  31 H31            3.7372     6.1205     0.6797 H       
  32 H32            0.6160    10.3037    -0.5795 H       
  33 H33            0.8356     7.8311    -0.5064 H       
  34 H34            4.7040    10.5922     0.6193 H       
  35 H35            2.5962    11.6938    -0.0085 H       
  36 H36           -0.5400     3.4653    -1.3083 H       
@<TRIPOS>BOND
   1    1    2 ar
   2    1    6 ar
   3    1   24 1
   4    2    3 ar
   5    2   25 1
   6    3    4 ar
   7    3   26 1
   8    4    5 ar
   9    4   27 1
  10    5    6 ar
  11    5    8 1
  12    6    7 1
  13    7   10 2
  14    7   23 1
  15    8    9 am
  16    8   11 2
  17    8   12 2
  18    9   10 1
  19    9   13 1
  20   10   14 1
  21   13   28 1
  22   13   29 1
  23   13   30 1
  24   14   15 am
  25   14   16 2
  26   15   17 1
  27   15   31 1
  28   17   20 ar
  29   17   19 ar
  30   18   19 ar
  31   18   22 ar
  32   18   32 1
  33   19   33 1
  34   20   21 ar
  35   21   22 ar
  36   21   34 1
  37   22   35 1
  38   23   36 1

#	End of record

