#	Name: ASD11520001
#	Creating user name:	WinNT
#	Creation time:	15. 06. 2019 21:29

#	Modifying user name:	WinNT
#	Modification time:	15. 06. 2019 21:29

#	Program:	/corina/corina34_cracker 3.40 0067  02.08.2006

@<TRIPOS>MOLECULE
ASD11520001
  84   86    0    0    0
SMALL
NO_CHARGES


@<TRIPOS>ATOM
   1 C1             0.5839     1.8105    -0.2970 C.3     
   2 O2            -0.3161     1.8682     0.8114 O.3     
   3 C3             1.7017     2.8366    -0.1005 C.3     
   4 C4             2.6755     2.7619    -1.2782 C.3     
   5 C5             1.0979     4.2405    -0.0262 C.3     
   6 P6             7.0686     4.8561     3.1054 P.3     
   7 P7             4.4850     3.4761     2.6514 P.3     
   8 P8            10.1944     9.4620     6.4577 P.3     
   9 S9             5.8988    -6.5553    -5.9088 S.3     
  10 C10            5.2994    -4.8510    -5.7454 C.3     
  11 C11            4.6138    -4.6794    -4.3883 C.3     
  12 N12            4.1298    -3.3030    -4.2564 N.am    
  13 C13            3.4888    -2.9187    -3.1348 C.2     
  14 O14            3.3127    -3.7123    -2.2348 O.2     
  15 C15            2.9908    -1.5028    -2.9991 C.3     
  16 C16            2.3053    -1.3312    -1.6421 C.3     
  17 N17            1.8212     0.0452    -1.5101 N.am    
  18 C18            1.1802     0.4295    -0.3885 C.2     
  19 O19            1.0833    -0.3361     0.5471 O.2     
  20 C20            9.5480     9.9411     1.5749 C.3     
  21 N21            8.1281    14.8592     0.6947 N.ar    
  22 O22            7.0388     4.5165     4.5456 O.2     
  23 C23            9.3006    14.2888     0.4864 C.ar    
  24 C24           10.5056    10.1039     2.7761 C.3     
  25 O25            8.1467     3.9239     2.3564 O.3     
  26 O26           10.4437    11.4363     3.2888 O.3     
  27 C27            9.9731     9.0969     3.8199 C.3     
  28 N28            9.5275    13.0206     0.7570 N.ar    
  29 O29            5.6115     4.6114     2.4660 O.3     
  30 O30            9.5661     9.7766     5.0092 O.3     
  31 C31            8.5661    12.2526     1.2589 C.ar    
  32 C32            8.7567     8.4448     3.1259 C.3     
  33 O33            5.1336     2.1498     2.7540 O.2     
  34 O34            9.0059     8.6095     1.7129 O.3     
  35 C35            7.2998    12.8128     1.4988 C.ar    
  36 C36            8.6733     6.9592     3.4824 C.3     
  37 O37            3.6448     3.7679     3.9934 O.3     
  38 O38            7.4802     6.4023     2.9270 O.3     
  39 C39            7.1067    14.1708     1.1940 C.ar    
  40 N40            5.8816    14.7774     1.4093 N.pl3   
  41 O41            3.4933     3.4919     1.3832 O.3     
  42 N42            6.5171    11.8288     2.0031 N.2     
  43 O43           11.6666     9.6019     6.3979 O.2     
  44 C44            7.2053    10.7274     2.0861 C.2     
  45 O45            9.6002    10.4983     7.5371 O.3     
  46 N46            8.4758    10.9373     1.6388 N.pl3   
  47 O47            9.8155     7.9587     6.8920 O.3     
  48 C48            2.4494     2.5335     1.1996 C.3     
  49 H49            0.0429     2.0343    -1.2164 H       
  50 H50            0.0981     1.6792     1.6646 H       
  51 H51            2.1222     2.8494    -2.2132 H       
  52 H52            3.3969     3.5758    -1.2053 H       
  53 H53            3.2012     1.8073    -1.2550 H       
  54 H54            0.4743     4.3211     0.8641 H       
  55 H55            1.8988     4.9782     0.0231 H       
  56 H56            0.4906     4.4222    -0.9129 H       
  57 H57            6.4684    -6.5602    -7.1271 H       
  58 H58            6.1405    -4.1616    -5.8173 H       
  59 H59            4.5864    -4.6387    -6.5420 H       
  60 H60            3.7727    -5.3688    -4.3164 H       
  61 H61            5.3268    -4.8917    -3.5917 H       
  62 H62            4.2706    -2.6682    -4.9762 H       
  63 H63            3.8320    -0.8134    -3.0710 H       
  64 H64            2.2778    -1.2905    -3.7958 H       
  65 H65            1.4641    -2.0207    -1.5701 H       
  66 H66            3.0183    -1.5436    -0.8454 H       
  67 H67            1.9620     0.6800    -2.2299 H       
  68 H68           10.0964    10.0322     0.6373 H       
  69 H69           10.1036    14.8850     0.0787 H       
  70 H70           11.5265     9.8538     2.4873 H       
  71 H71            8.2199     4.0920     1.4070 H       
  72 H72           10.7098    12.1150     2.6534 H       
  73 H73           10.7312     8.3481     4.0496 H       
  74 H74            7.8376     8.9565     3.4113 H       
  75 H75            9.5406     6.4388     3.0761 H       
  76 H76            8.6567     6.8461     4.5664 H       
  77 H77            3.1919     4.6223     3.9959 H       
  78 H78            5.7608    15.7158     1.1951 H       
  79 H79            5.1438    14.2643     1.7742 H       
  80 H80            6.8260     9.7861     2.4554 H       
  81 H81            9.9360    10.3673     8.4344 H       
  82 H82            8.8644     7.7944     6.9518 H       
  83 H83            1.7556     2.5868     2.0386 H       
  84 H84            2.8795     1.5334     1.1466 H       
@<TRIPOS>BOND
   1    1    2 1
   2    1    3 1
   3    1   18 1
   4    1   49 1
   5    2   50 1
   6    3    4 1
   7    3    5 1
   8    3   48 1
   9    4   51 1
  10    4   52 1
  11    4   53 1
  12    5   54 1
  13    5   55 1
  14    5   56 1
  15    6   22 2
  16    6   25 1
  17    6   29 1
  18    6   38 1
  19    7   29 1
  20    7   33 2
  21    7   37 1
  22    7   41 1
  23    8   30 1
  24    8   43 2
  25    8   45 1
  26    8   47 1
  27    9   10 1
  28    9   57 1
  29   10   11 1
  30   10   58 1
  31   10   59 1
  32   11   12 1
  33   11   60 1
  34   11   61 1
  35   12   13 am
  36   12   62 1
  37   13   14 2
  38   13   15 1
  39   15   16 1
  40   15   63 1
  41   15   64 1
  42   16   17 1
  43   16   65 1
  44   16   66 1
  45   17   18 am
  46   17   67 1
  47   18   19 2
  48   20   24 1
  49   20   34 1
  50   20   46 1
  51   20   68 1
  52   21   23 ar
  53   21   39 ar
  54   23   28 ar
  55   23   69 1
  56   24   26 1
  57   24   27 1
  58   24   70 1
  59   25   71 1
  60   26   72 1
  61   27   30 1
  62   27   32 1
  63   27   73 1
  64   28   31 ar
  65   31   35 ar
  66   31   46 1
  67   32   34 1
  68   32   36 1
  69   32   74 1
  70   35   39 ar
  71   35   42 1
  72   36   38 1
  73   36   75 1
  74   36   76 1
  75   37   77 1
  76   39   40 1
  77   40   78 1
  78   40   79 1
  79   41   48 1
  80   42   44 2
  81   44   46 1
  82   44   80 1
  83   45   81 1
  84   47   82 1
  85   48   83 1
  86   48   84 1

#	End of record

