#	Name: ASD17420001
#	Creating user name:	WinNT
#	Creation time:	15. 06. 2019 21:31

#	Modifying user name:	WinNT
#	Modification time:	15. 06. 2019 21:31

#	Program:	/corina/corina34_cracker 3.40 0067  02.08.2006

@<TRIPOS>MOLECULE
ASD17420001
   3    2    0    0    0
SMALL
NO_CHARGES


@<TRIPOS>ATOM
   1 C1            -0.0143     1.2038     0.0087 C.1     
   2 O2             0.0021    -0.0041     0.0020 O.2     
   3 O3            -0.0307     2.4117     0.0153 O.2     
@<TRIPOS>BOND
   1    1    2 2
   2    1    3 2

#	End of record

