#	Name: ASD12310002
#	Creating user name:	WinNT
#	Creation time:	15. 06. 2019 21:30

#	Modifying user name:	WinNT
#	Modification time:	15. 06. 2019 21:30

#	Program:	/corina/corina34_cracker 3.40 0067  02.08.2006

@<TRIPOS>MOLECULE
ASD12310002
 147  150    0    0    0
SMALL
NO_CHARGES


@<TRIPOS>ATOM
   1 C1            -1.2297     0.6805    -1.2140 C.2     
   2 O2            -0.5259    -0.3357    -0.6811 O.3     
   3 C3            -0.4770     1.8951    -1.6931 C.3     
   4 O4            -2.4329     0.6214    -1.3115 O.2     
   5 C5            -0.5920     1.9913    -3.2197 C.3     
   6 O6            -1.8182     2.3189     0.8081 O.2     
   7 C7             0.1881     3.1765    -3.7681 C.3     
   8 O8            -0.2528     5.2711     0.4128 O.2     
   9 C9             0.1318     4.3821    -2.8391 C.3     
  10 O10           -0.9749     4.8239     3.2967 O.3     
  11 C11           -1.1219     4.3170    -1.9605 C.3     
  12 O12           -2.9588     4.1390     2.2853 O.3     
  13 C13           -1.3268     3.2455     0.2051 C.2     
  14 N14           -0.9718     3.1254    -1.0864 N.am    
  15 O15           -2.8458     5.1036     7.3390 O.3     
  16 C16           -1.0804     4.5450     0.8973 C.2     
  17 O17           -2.0276    -7.4134     5.5926 O.2     
  18 C18           -1.7928     4.9707     2.1417 C.3     
  19 O19           -2.7588    -5.4528     3.2795 O.3     
  20 C20           -2.2682     6.4208     2.0240 C.3     
  21 O21           -0.1158    -7.9546     3.6143 O.3     
  22 C22           -3.1749     6.7665     3.2046 C.3     
  23 O23           -2.1592    -3.9612    -0.9897 O.2     
  24 C24           -2.9133     5.8231     4.3823 C.3     
  25 O25           -5.6482    -3.7529    -1.0875 O.3     
  26 C26           -1.4258     5.4975     4.4718 C.3     
  27 O27           -7.9784    -2.5105    -0.0848 O.3     
  28 C28           -1.0956     4.6891     5.7162 C.3     
  29 C29           -2.3191     4.1311     6.4347 C.3     
  30 C30           -1.8768     2.9114     7.2168 C.2     
  31 C31           -2.5188     1.7532     7.1092 C.2     
  32 C32           -2.0633     0.5603     7.8225 C.2     
  33 C33           -2.7241    -0.6039     7.6768 C.2     
  34 C34           -2.1953    -1.8266     8.2994 C.2     
  35 C35           -2.7869    -2.9799     8.0170 C.2     
  36 C36           -2.3197    -4.3195     8.4983 C.3     
  37 C37           -2.4748    -5.3535     7.3838 C.3     
  38 C38           -1.4253    -5.2440     6.2864 C.3     
  39 C39           -1.6865    -6.3088     5.2406 C.2     
  40 C40           -1.5337    -6.0024     3.7745 C.3     
  41 C41           -1.2198    -7.2844     3.0009 C.3     
  42 C42           -0.8690    -6.9571     1.5676 C.2     
  43 C43           -0.7510    -5.7184     1.1739 C.2     
  44 C44           -0.4050    -5.3351    -0.2407 C.3     
  45 C45           -1.0297    -3.9964    -0.5592 C.2     
  46 C46           -0.2612    -2.7218    -0.3515 C.3     
  47 C47           -1.2217    -1.5314    -0.2513 C.3     
  48 C48           -1.6712    -1.3683     1.2024 C.3     
  49 C49           -2.5403    -2.5616     1.6045 C.3     
  50 C50           -3.8387    -2.5426     0.7954 C.3     
  51 C51           -4.6582    -3.7940     1.1167 C.3     
  52 C52           -5.9566    -3.7750     0.3076 C.3     
  53 C53           -6.7657    -2.5283     0.6709 C.3     
  54 C54           -5.9462    -1.2769     0.3495 C.3     
  55 C55           -4.6478    -1.2959     1.1587 C.3     
  56 C56           -1.0937     7.4002     1.9938 C.3     
  57 C57           -0.6899     3.0350     8.1456 C.3     
  58 C58           -0.8818    -4.2726     9.0012 C.3     
  59 C59           -1.4725    -3.8730     5.6113 C.3     
  60 C60           -0.6601    -8.1046     0.6094 C.3     
  61 C61            1.1142    -5.2412    -0.3987 C.3     
  62 C62           -0.4426    -1.3027     2.1119 C.3     
  63 C63           -4.2577     5.0078     7.5377 C.3     
  64 C64           -3.8786    -6.3331     3.3931 C.3     
  65 C65           -6.6030    -4.4329    -1.9047 C.3     
  66 C66           -4.7093     6.0915     8.5189 C.3     
  67 H67            0.5813     1.7719    -1.4364 H       
  68 H68           -0.2097     1.0751    -3.6665 H       
  69 H69           -1.6458     2.1055    -3.4896 H       
  70 H70            1.2270     2.8834    -3.9026 H       
  71 H71           -0.2277     3.4548    -4.7363 H       
  72 H72            1.0196     4.3846    -2.2029 H       
  73 H73            0.1141     5.2972    -3.4323 H       
  74 H74           -1.2164     5.2253    -1.3710 H       
  75 H75           -2.0077     4.1998    -2.5892 H       
  76 H76           -3.6060     4.2429     1.5744 H       
  77 H77           -2.8403     6.5346     1.0956 H       
  78 H78            0.1383    -8.7776     3.1746 H       
  79 H79           -2.9848     7.7946     3.5160 H       
  80 H80           -4.2174     6.6778     2.8926 H       
  81 H81           -3.2316     6.3245     5.3036 H       
  82 H82           -3.5053     4.9174     4.2721 H       
  83 H83           -0.8731     6.4493     4.5498 H       
  84 H84           -8.5426    -1.7460     0.0948 H       
  85 H85           -0.4459     3.8577     5.4222 H       
  86 H86           -0.5402     5.3275     6.4057 H       
  87 H87           -3.0812     3.8342     5.7156 H       
  88 H88           -3.3999     1.6860     6.4809 H       
  89 H89           -1.1996     0.5861     8.4761 H       
  90 H90           -3.6407    -0.6497     7.1078 H       
  91 H91           -1.3622    -1.7523     8.9744 H       
  92 H92           -3.6821    -2.9339     7.3942 H       
  93 H93           -2.9638    -4.6244     9.3383 H       
  94 H94           -2.4218    -6.3544     7.8259 H       
  95 H95           -3.4694    -5.2410     6.9385 H       
  96 H96           -0.4283    -5.4119     6.6932 H       
  97 H97           -0.7187    -5.2988     3.6203 H       
  98 H98           -2.0936    -7.9372     3.0175 H       
  99 H99           -0.9078    -4.9115     1.8873 H       
 100 H100          -0.7982    -6.0678    -0.9454 H       
 101 H101           0.3136    -2.7829     0.5731 H       
 102 H102           0.4169    -2.5596    -1.1893 H       
 103 H103          -2.0872    -1.7012    -0.8876 H       
 104 H104          -2.2476    -0.4487     1.3035 H       
 105 H105          -2.0010    -3.4875     1.4045 H       
 106 H106          -2.7736    -2.4994     2.6674 H       
 107 H107          -3.6034    -2.5257    -0.2688 H       
 108 H108          -4.0818    -4.6822     0.8579 H       
 109 H109          -4.8935    -3.8109     2.1809 H       
 110 H110          -6.5405    -4.6665     0.5365 H       
 111 H111          -7.0010    -2.5452     1.7351 H       
 112 H112          -5.7109    -1.2600    -0.7146 H       
 113 H113          -6.5226    -0.3887     0.6083 H       
 114 H114          -4.8830    -1.3128     2.2228 H       
 115 H115          -4.0639    -0.4044     0.9297 H       
 116 H116          -0.4567     7.1774     1.1379 H       
 117 H117          -1.4722     8.4189     1.9097 H       
 118 H118          -0.5153     7.3023     2.9125 H       
 119 H119          -1.0337     3.3294     9.1372 H       
 120 H120          -0.1767     2.0755     8.2090 H       
 121 H121          -0.0039     3.7893     7.7601 H       
 122 H122          -0.8094    -3.5680     9.8296 H       
 123 H123          -0.5831    -5.2644     9.3406 H       
 124 H124          -0.2245    -3.9520     8.1930 H       
 125 H125          -1.2521    -3.0985     6.3460 H       
 126 H126          -0.7328    -3.8362     4.8116 H       
 127 H127          -2.4661    -3.7069     5.1952 H       
 128 H128          -1.6088    -8.3621     0.1386 H       
 129 H129           0.0582    -7.8123    -0.1566 H       
 130 H130          -0.2788    -8.9682     1.1544 H       
 131 H131           1.5639    -6.2069    -0.1678 H       
 132 H132           1.3564    -4.9636    -1.4245 H       
 133 H133           1.5045    -4.4862     0.2838 H       
 134 H134           0.0328    -2.2827     2.1516 H       
 135 H135           0.2633    -0.5722     1.7167 H       
 136 H136          -0.7486    -1.0064     3.1152 H       
 137 H137          -4.7688     5.1447     6.5848 H       
 138 H138          -4.5018     4.0260     7.9432 H       
 139 H139          -4.7883    -5.8020     3.1129 H       
 140 H140          -3.7380    -7.1873     2.7307 H       
 141 H141          -3.9638    -6.6817     4.4223 H       
 142 H142          -6.7400    -5.4489    -1.5345 H       
 143 H143          -7.5544    -3.9022    -1.8701 H       
 144 H144          -6.2429    -4.4664    -2.9330 H       
 145 H145          -4.1982     5.9547     9.4718 H       
 146 H146          -4.4652     7.0734     8.1134 H       
 147 H147          -5.7862     6.0185     8.6704 H       
@<TRIPOS>BOND
   1    1    2 1
   2    1    3 1
   3    1    4 2
   4    2   47 1
   5    3    5 1
   6    3   14 1
   7    3   67 1
   8    5    7 1
   9    5   68 1
  10    5   69 1
  11    6   13 2
  12    7    9 1
  13    7   70 1
  14    7   71 1
  15    8   16 2
  16    9   11 1
  17    9   72 1
  18    9   73 1
  19   10   18 1
  20   10   26 1
  21   11   14 1
  22   11   74 1
  23   11   75 1
  24   12   18 1
  25   12   76 1
  26   13   14 am
  27   13   16 1
  28   15   29 1
  29   15   63 1
  30   16   18 1
  31   17   39 2
  32   18   20 1
  33   19   40 1
  34   19   64 1
  35   20   22 1
  36   20   56 1
  37   20   77 1
  38   21   41 1
  39   21   78 1
  40   22   24 1
  41   22   79 1
  42   22   80 1
  43   23   45 2
  44   24   26 1
  45   24   81 1
  46   24   82 1
  47   25   52 1
  48   25   65 1
  49   26   28 1
  50   26   83 1
  51   27   53 1
  52   27   84 1
  53   28   29 1
  54   28   85 1
  55   28   86 1
  56   29   30 1
  57   29   87 1
  58   30   31 2
  59   30   57 1
  60   31   32 1
  61   31   88 1
  62   32   33 2
  63   32   89 1
  64   33   34 1
  65   33   90 1
  66   34   35 2
  67   34   91 1
  68   35   36 1
  69   35   92 1
  70   36   37 1
  71   36   58 1
  72   36   93 1
  73   37   38 1
  74   37   94 1
  75   37   95 1
  76   38   39 1
  77   38   59 1
  78   38   96 1
  79   39   40 1
  80   40   41 1
  81   40   97 1
  82   41   42 1
  83   41   98 1
  84   42   43 2
  85   42   60 1
  86   43   44 1
  87   43   99 1
  88   44   45 1
  89   44   61 1
  90   44  100 1
  91   45   46 1
  92   46   47 1
  93   46  101 1
  94   46  102 1
  95   47   48 1
  96   47  103 1
  97   48   49 1
  98   48   62 1
  99   48  104 1
 100   49   50 1
 101   49  105 1
 102   49  106 1
 103   50   51 1
 104   50   55 1
 105   50  107 1
 106   51   52 1
 107   51  108 1
 108   51  109 1
 109   52   53 1
 110   52  110 1
 111   53   54 1
 112   53  111 1
 113   54   55 1
 114   54  112 1
 115   54  113 1
 116   55  114 1
 117   55  115 1
 118   56  116 1
 119   56  117 1
 120   56  118 1
 121   57  119 1
 122   57  120 1
 123   57  121 1
 124   58  122 1
 125   58  123 1
 126   58  124 1
 127   59  125 1
 128   59  126 1
 129   59  127 1
 130   60  128 1
 131   60  129 1
 132   60  130 1
 133   61  131 1
 134   61  132 1
 135   61  133 1
 136   62  134 1
 137   62  135 1
 138   62  136 1
 139   63   66 1
 140   63  137 1
 141   63  138 1
 142   64  139 1
 143   64  140 1
 144   64  141 1
 145   65  142 1
 146   65  143 1
 147   65  144 1
 148   66  145 1
 149   66  146 1
 150   66  147 1

#	End of record

