#	Name: ASD10220042
#	Creating user name:	WinNT
#	Creation time:	15. 06. 2019 21:26

#	Modifying user name:	WinNT
#	Modification time:	15. 06. 2019 21:26

#	Program:	/corina/corina34_cracker 3.40 0067  02.08.2006

@<TRIPOS>MOLECULE
ASD10220042
  32   35    0    0    0
SMALL
NO_CHARGES


@<TRIPOS>ATOM
   1 C1             0.0033     1.5129     0.3985 C.2     
   2 C2             0.0492     0.2188     0.9686 C.2     
   3 C3            -1.0784    -0.4342     1.3274 C.2     
   4 C4            -2.4054     0.1534     1.1498 C.2     
   5 C5            -2.5345     1.4185     0.5982 C.2     
   6 C6            -1.3330     2.1679     0.1980 C.2     
   7 O7            -3.6418    -0.3018     1.4278 O.3     
   8 C8            -4.5763     0.5897     1.0915 C.2     
   9 C9            -3.9734     1.7002     0.5629 C.2     
  10 O10           -1.4198     3.2766    -0.2865 O.2     
  11 O11            1.0268     2.0859     0.0816 O.2     
  12 C12           -4.6316     2.9203     0.0635 C.2     
  13 O13           -3.9617     3.8760    -0.2795 O.2     
  14 C14           -6.1034     2.9829    -0.0205 C.ar    
  15 C15           -6.7652     4.2094     0.1018 C.ar    
  16 C16           -8.1348     4.2577     0.0224 C.ar    
  17 C17           -8.8819     3.0989    -0.1711 C.ar    
  18 C18           -8.2192     1.8764    -0.2969 C.ar    
  19 C19           -6.8478     1.8176    -0.2287 C.ar    
  20 Br20           1.7251    -0.6158     1.2338 Br      
  21 Br21          -0.9355    -2.1621     2.0822 Br      
  22 C22           -9.1169     5.4112     0.0966 C.3     
  23 C23          -10.4059     4.7703    -0.4699 C.3     
  24 O24          -10.2138     3.3722    -0.1960 O.3     
  25 H25           -5.6407     0.4565     1.2165 H       
  26 H26           -6.1999     5.1161     0.2587 H       
  27 H27           -8.7878     0.9716    -0.4534 H       
  28 H28           -6.3441     0.8674    -0.3274 H       
  29 H29           -9.2626     5.7330     1.1278 H       
  30 H30           -8.7889     6.2429    -0.5269 H       
  31 H31          -11.2859     5.1483     0.0505 H       
  32 H32          -10.4852     4.9462    -1.5427 H       
@<TRIPOS>BOND
   1    1    2 1
   2    1   11 2
   3    1    6 1
   4    2    3 2
   5    2   20 1
   6    3    4 1
   7    3   21 1
   8    4    5 2
   9    4    7 1
  10    5    6 1
  11    5    9 1
  12    6   10 2
  13    7    8 1
  14    8    9 2
  15    8   25 1
  16    9   12 1
  17   12   13 2
  18   12   14 1
  19   14   15 ar
  20   14   19 ar
  21   15   16 ar
  22   15   26 1
  23   16   17 ar
  24   16   22 1
  25   17   18 ar
  26   17   24 1
  27   18   19 ar
  28   18   27 1
  29   19   28 1
  30   22   23 1
  31   22   29 1
  32   22   30 1
  33   23   24 1
  34   23   31 1
  35   23   32 1

#	End of record

