#	Name: ASD10160353
#	Creating user name:	WinNT
#	Creation time:	15. 06. 2019 21:25

#	Modifying user name:	WinNT
#	Modification time:	15. 06. 2019 21:25

#	Program:	/corina/corina34_cracker 3.40 0067  02.08.2006

@<TRIPOS>MOLECULE
ASD10160353
  16   16    0    0    0
SMALL
NO_CHARGES


@<TRIPOS>ATOM
   1 C1            -0.0167     1.3812     0.0096 C.ar    
   2 C2             0.0021    -0.0041     0.0020 C.ar    
   3 C3             1.2262    -0.6663    -0.0132 C.ar    
   4 C4             2.3855     0.0912    -0.0202 C.ar    
   5 C5             2.2884     1.4774    -0.0118 C.ar    
   6 N6             1.1077     2.0719     0.0026 N.ar    
   7 O7            -1.1613    -0.7082     0.0098 O.3     
   8 O8             3.4188     2.2296    -0.0181 O.3     
   9 C9             3.2535     3.6490    -0.0089 C.3     
  10 Cl10           3.9402    -0.6810    -0.0386 Cl      
  11 H11           -0.9628     1.9020     0.0169 H       
  12 H12            1.2709    -1.7453    -0.0191 H       
  13 H13           -1.5066    -0.9072    -0.8713 H       
  14 H14            2.6930     3.9553    -0.8922 H       
  15 H15            2.7093     3.9457     0.8877 H       
  16 H16            4.2322     4.1288    -0.0153 H       
@<TRIPOS>BOND
   1    1    2 ar
   2    1    6 ar
   3    1   11 1
   4    2    3 ar
   5    2    7 1
   6    3    4 ar
   7    3   12 1
   8    4    5 ar
   9    4   10 1
  10    5    6 ar
  11    5    8 1
  12    7   13 1
  13    8    9 1
  14    9   14 1
  15    9   15 1
  16    9   16 1

#	End of record

