#	Name: ASD15190001
#	Creating user name:	WinNT
#	Creation time:	15. 06. 2019 21:31

#	Modifying user name:	WinNT
#	Modification time:	15. 06. 2019 21:31

#	Program:	/corina/corina34_cracker 3.40 0067  02.08.2006

@<TRIPOS>MOLECULE
ASD15190001
  27   27    0    0    0
SMALL
NO_CHARGES


@<TRIPOS>ATOM
   1 C1            -0.0187     1.5267     0.0104 C.3     
   2 C2             0.0021    -0.0041     0.0020 C.3     
   3 C3             0.6920    -0.5046     1.2748 C.3     
   4 C4            -0.0410     0.0601     2.4955 C.3     
   5 C5            -0.0601     1.5884     2.4076 C.3     
   6 C6            -0.8310     2.1493     3.5747 C.2     
   7 O7             1.3219     2.0215     0.0003 O.3     
   8 O8            -1.3376    -0.4996    -0.0414 O.3     
   9 O9             2.0511    -0.0634     1.2869 O.3     
  10 O10           -1.3818    -0.4337     2.5181 O.3     
  11 O11           -0.6874     1.9862     1.1868 O.3     
  12 O12           -1.8650     2.7450     3.3855 O.2     
  13 O13           -0.3688     1.9872     4.8245 O.3     
  14 S14           -1.8340    -0.8197    -1.4441 S.o2    
  15 O15           -3.2218    -1.1003    -1.3243 O.2     
  16 O16           -1.3167     0.1948    -2.2941 O.2     
  17 O17           -1.1681    -2.1197    -1.8720 O.3     
  18 H18           -0.5462     1.8879    -0.8724 H       
  19 H19            0.5502    -0.3561    -0.8719 H       
  20 H20            0.6606    -1.5938     1.3023 H       
  21 H21            0.4762    -0.2460     3.4048 H       
  22 H22            0.9618     1.9667     2.4314 H       
  23 H23            1.3850     2.9865     0.0049 H       
  24 H24            2.5491    -0.3450     2.0665 H       
  25 H25           -1.9055    -0.1158     3.2663 H       
  26 H26           -0.8978     2.3646     5.5406 H       
  27 H27           -1.4174    -2.4164    -2.7579 H       
@<TRIPOS>BOND
   1    1    2 1
   2    1    7 1
   3    1   11 1
   4    1   18 1
   5    2    3 1
   6    2    8 1
   7    2   19 1
   8    3    4 1
   9    3    9 1
  10    3   20 1
  11    4    5 1
  12    4   10 1
  13    4   21 1
  14    5    6 1
  15    5   11 1
  16    5   22 1
  17    6   12 2
  18    6   13 1
  19    7   23 1
  20    8   14 1
  21    9   24 1
  22   10   25 1
  23   13   26 1
  24   14   15 2
  25   14   16 2
  26   14   17 1
  27   17   27 1

#	End of record

