#	Name: ASD10160171
#	Creating user name:	WinNT
#	Creation time:	15. 06. 2019 21:25

#	Modifying user name:	WinNT
#	Modification time:	15. 06. 2019 21:25

#	Program:	/corina/corina34_cracker 3.40 0067  02.08.2006

@<TRIPOS>MOLECULE
ASD10160171
  36   37    0    0    0
SMALL
NO_CHARGES


@<TRIPOS>ATOM
   1 C1            -0.0333     1.4701     0.0134 C.2     
   2 C2            -0.0092    -0.0043     0.0044 C.ar    
   3 C3             1.2058    -0.6857    -0.1325 C.ar    
   4 C4             1.2230    -2.0661    -0.1403 C.ar    
   5 C5             0.0379    -2.7777    -0.0127 C.ar    
   6 C6            -1.1728    -2.1036     0.1238 C.ar    
   7 C7            -1.1992    -0.7258     0.1384 C.ar    
   8 O8             1.0034     2.0958    -0.0983 O.2     
   9 N9            -1.2049     2.1243     0.1397 N.am    
  10 S10           -1.2319     3.7800     0.1498 S.o2    
  11 O11           -2.6040     4.1071     0.3218 O.2     
  12 O12           -0.2648     4.1403     1.1266 O.2     
  13 C13           -0.6680     4.2520    -1.5085 C.3     
  14 F14           -2.3230    -2.8014     0.2472 F       
  15 F15            2.3594     0.0061    -0.2572 F       
  16 O16            0.0593    -4.1352    -0.0213 O.3     
  17 C17           -0.1515    -4.7671    -1.2010 C.ar    
  18 C18           -0.0373    -6.1642    -1.2742 C.ar    
  19 C19           -0.2595    -6.7953    -2.5033 C.ar    
  20 C20           -0.5833    -6.0101    -3.5962 C.ar    
  21 C21           -0.6771    -4.6387    -3.4445 C.ar    
  22 N22           -0.4688    -4.0648    -2.2750 N.ar    
  23 C23           -0.1486    -8.2926    -2.6339 C.3     
  24 C24            0.3009    -6.9298    -0.1122 C.1     
  25 N25            0.5692    -7.5372     0.8095 N.1     
  26 H26            2.1597    -2.5931    -0.2462 H       
  27 H27           -2.1384    -0.2041     0.2488 H       
  28 H28           -2.0322     1.6252     0.2248 H       
  29 H29           -1.3467     3.8384    -2.2544 H       
  30 H30           -0.6547     5.3387    -1.5922 H       
  31 H31            0.3362     3.8624    -1.6754 H       
  32 H32           -0.7609    -6.4646    -4.5596 H       
  33 H33           -0.9294    -4.0269    -4.2979 H       
  34 H34           -1.1194    -8.7474    -2.4368 H       
  35 H35            0.1732    -8.5463    -3.6439 H       
  36 H36            0.5806    -8.6669    -1.9154 H       
@<TRIPOS>BOND
   1    1    2 1
   2    1    8 2
   3    1    9 am
   4    2    3 ar
   5    2    7 ar
   6    3    4 ar
   7    3   15 1
   8    4    5 ar
   9    4   26 1
  10    5    6 ar
  11    5   16 1
  12    6    7 ar
  13    6   14 1
  14    7   27 1
  15    9   10 am
  16    9   28 1
  17   10   11 2
  18   10   12 2
  19   10   13 1
  20   13   29 1
  21   13   30 1
  22   13   31 1
  23   16   17 1
  24   17   18 ar
  25   17   22 ar
  26   18   19 ar
  27   18   24 1
  28   19   20 ar
  29   19   23 1
  30   20   21 ar
  31   20   32 1
  32   21   22 ar
  33   21   33 1
  34   23   34 1
  35   23   35 1
  36   23   36 1
  37   24   25 3

#	End of record

