#	Name: ASD12970016
#	Creating user name:	WinNT
#	Creation time:	15. 06. 2019 21:30

#	Modifying user name:	WinNT
#	Modification time:	15. 06. 2019 21:30

#	Program:	/corina/corina34_cracker 3.40 0067  02.08.2006

@<TRIPOS>MOLECULE
ASD12970016
  14   13    0    0    0
SMALL
NO_CHARGES


@<TRIPOS>ATOM
   1 C1            -0.0184     1.5028     0.0103 C.3     
   2 C2             0.0021    -0.0041     0.0020 C.2     
   3 O3             0.6019    -0.6726     0.9995 O.3     
   4 C4             0.5830    -2.1227     0.9261 C.3     
   5 C5             1.3094    -2.7043     2.1405 C.3     
   6 O6            -0.5215    -0.6104    -0.9025 O.2     
   7 H7             1.0042     1.8801     0.0026 H       
   8 H8            -0.5455     1.8639    -0.8728 H       
   9 H9            -0.5286     1.8543     0.9071 H       
  10 H10           -0.4493    -2.4726     0.9182 H       
  11 H11            1.0835    -2.4468     0.0136 H       
  12 H12            1.2952    -3.7929     2.0854 H       
  13 H13            2.3417    -2.3544     2.1484 H       
  14 H14            0.8089    -2.3802     3.0529 H       
@<TRIPOS>BOND
   1    1    2 1
   2    1    7 1
   3    1    8 1
   4    1    9 1
   5    2    3 1
   6    2    6 2
   7    3    4 1
   8    4    5 1
   9    4   10 1
  10    4   11 1
  11    5   12 1
  12    5   13 1
  13    5   14 1

#	End of record

