#	Name: ASD10160540
#	Creating user name:	WinNT
#	Creation time:	15. 06. 2019 21:26

#	Modifying user name:	WinNT
#	Modification time:	15. 06. 2019 21:26

#	Program:	/corina/corina34_cracker 3.40 0067  02.08.2006

@<TRIPOS>MOLECULE
ASD10160540
  46   47    0    0    0
SMALL
NO_CHARGES


@<TRIPOS>ATOM
   1 C1            -0.4001     1.1078    -1.9465 C.2     
   2 C2            -0.2797    -0.2703    -1.4403 C.ar    
   3 C3             0.9047    -0.9911    -1.6393 C.ar    
   4 C4             1.0119    -2.2817    -1.1625 C.ar    
   5 C5            -0.0521    -2.8647    -0.4866 C.ar    
   6 C6            -1.2306    -2.1515    -0.2869 C.ar    
   7 C7            -1.3456    -0.8613    -0.7542 C.ar    
   8 O8             0.5292     1.6212    -2.5379 O.2     
   9 O9            -1.5426     1.7973    -1.7586 O.3     
  10 F10            1.9396    -0.4242    -2.2972 F       
  11 O11            0.0574    -4.1342    -0.0197 O.3     
  12 C12            1.5462    -5.5237    -1.2600 C.ar    
  13 C13            1.2595    -4.7566    -0.1396 C.ar    
  14 C14            2.2202    -4.6335     0.8588 C.ar    
  15 C15            3.4319    -5.2868     0.6913 C.ar    
  16 C16            3.6435    -6.0333    -0.4541 C.ar    
  17 N17            2.7109    -6.1287    -1.3815 N.ar    
  18 C18            4.9572    -6.7466    -0.6446 C.3     
  19 C19            4.7071    -8.2507    -0.7721 C.3     
  20 C20            5.6368    -6.2331    -1.9156 C.3     
  21 Cl21           4.6687    -5.1687     1.9038 Cl      
  22 Cl22          -2.5558    -2.8877     0.5589 Cl      
  23 C23           -1.5903     3.1500    -2.2842 C.3     
  24 C24           -1.3746     3.1167    -3.7985 C.3     
  25 C25           -2.9555     3.7688    -1.9770 C.3     
  26 C26           -0.4910     3.9901    -1.6309 C.3     
  27 H27            1.9242    -2.8391    -1.3153 H       
  28 H28           -2.2593    -0.3079    -0.5948 H       
  29 H29            0.8055    -5.6294    -2.0389 H       
  30 H30            2.0273    -4.0433     1.7425 H       
  31 H31            5.6015    -6.5570     0.2139 H       
  32 H32            4.2230    -8.6165     0.1333 H       
  33 H33            4.0628    -8.4403    -1.6306 H       
  34 H34            5.6573    -8.7666    -0.9099 H       
  35 H35            5.8149    -5.1616    -1.8247 H       
  36 H36            6.5870    -6.7490    -2.0534 H       
  37 H37            4.9925    -6.4227    -2.7741 H       
  38 H38           -2.1577     2.5182    -4.2640 H       
  39 H39           -1.4104     4.1321    -4.1931 H       
  40 H40           -0.4020     2.6759    -4.0174 H       
  41 H41           -3.1092     3.7925    -0.8982 H       
  42 H42           -2.9913     4.7842    -2.3716 H       
  43 H43           -3.7386     3.1703    -2.4424 H       
  44 H44            0.4816     3.5493    -1.8497 H       
  45 H45           -0.5268     5.0055    -2.0254 H       
  46 H46           -0.6447     4.0138    -0.5520 H       
@<TRIPOS>BOND
   1    1    2 1
   2    1    8 2
   3    1    9 1
   4    2    3 ar
   5    2    7 ar
   6    3    4 ar
   7    3   10 1
   8    4    5 ar
   9    4   27 1
  10    5    6 ar
  11    5   11 1
  12    6    7 ar
  13    6   22 1
  14    7   28 1
  15    9   23 1
  16   11   13 1
  17   12   13 ar
  18   12   17 ar
  19   12   29 1
  20   13   14 ar
  21   14   15 ar
  22   14   30 1
  23   15   16 ar
  24   15   21 1
  25   16   17 ar
  26   16   18 1
  27   18   19 1
  28   18   20 1
  29   18   31 1
  30   19   32 1
  31   19   33 1
  32   19   34 1
  33   20   35 1
  34   20   36 1
  35   20   37 1
  36   23   24 1
  37   23   26 1
  38   23   25 1
  39   24   38 1
  40   24   39 1
  41   24   40 1
  42   25   41 1
  43   25   42 1
  44   25   43 1
  45   26   44 1
  46   26   45 1
  47   26   46 1

#	End of record

