#	Name: ASD10220168
#	Creating user name:	WinNT
#	Creation time:	15. 06. 2019 21:26

#	Modifying user name:	WinNT
#	Modification time:	15. 06. 2019 21:26

#	Program:	/corina/corina34_cracker 3.40 0067  02.08.2006

@<TRIPOS>MOLECULE
ASD10220168
  32   34    0    0    0
SMALL
NO_CHARGES


@<TRIPOS>ATOM
   1 C1            -0.0048     1.4321    -0.1560 C.ar    
   2 C2             0.0241     0.0474    -0.2907 C.ar    
   3 C3            -1.1483    -0.6767    -0.3462 C.ar    
   4 C4            -2.3727    -0.0251    -0.2676 C.ar    
   5 C5            -2.4013     1.3704    -0.1314 C.ar    
   6 C6            -1.2158     2.0950    -0.0703 C.ar    
   7 O7            -3.6506    -0.4599    -0.2936 O.3     
   8 C8            -4.5135     0.5563    -0.1837 C.2     
   9 C9            -3.8324     1.7317    -0.0781 C.2     
  10 C10           -4.4032     3.0789     0.0610 C.2     
  11 O11           -3.6723     4.0323     0.2557 O.2     
  12 C12           -5.8631     3.2756    -0.0354 C.ar    
  13 O13            1.1587     2.1337    -0.1031 O.3     
  14 C14           -6.4764     4.3227     0.6582 C.ar    
  15 C15           -7.8384     4.5026     0.5657 C.ar    
  16 C16           -8.6033     3.6444    -0.2159 C.ar    
  17 C17           -7.9972     2.6018    -0.9074 C.ar    
  18 C18           -6.6350     2.4187    -0.8251 C.ar    
  19 Br19           1.6855    -0.8492    -0.3991 Br      
  20 O20           -9.9455     3.8247    -0.3038 O.3     
  21 C21          -10.6710     2.9067    -1.1243 C.3     
  22 H22           -1.1145    -1.7511    -0.4511 H       
  23 H23           -1.2407     3.1696     0.0349 H       
  24 H24           -5.5892     0.4596    -0.1795 H       
  25 H25            1.4839     2.4219    -0.9670 H       
  26 H26           -5.8830     4.9894     1.2662 H       
  27 H27           -8.3131     5.3114     1.1013 H       
  28 H28           -8.5949     1.9373    -1.5135 H       
  29 H29           -6.1648     1.6087    -1.3629 H       
  30 H30          -10.3003     2.9629    -2.1477 H       
  31 H31          -10.5357     1.8942    -0.7439 H       
  32 H32          -11.7303     3.1629    -1.1069 H       
@<TRIPOS>BOND
   1    1    2 ar
   2    1   13 1
   3    1    6 ar
   4    2    3 ar
   5    2   19 1
   6    3    4 ar
   7    3   22 1
   8    4    5 ar
   9    4    7 1
  10    5    6 ar
  11    5    9 1
  12    6   23 1
  13    7    8 1
  14    8    9 2
  15    8   24 1
  16    9   10 1
  17   10   11 2
  18   10   12 1
  19   12   14 ar
  20   12   18 ar
  21   13   25 1
  22   14   15 ar
  23   14   26 1
  24   15   16 ar
  25   15   27 1
  26   16   17 ar
  27   16   20 1
  28   17   18 ar
  29   17   28 1
  30   18   29 1
  31   20   21 1
  32   21   30 1
  33   21   31 1
  34   21   32 1

#	End of record

