#	Name: ASD10160522
#	Creating user name:	WinNT
#	Creation time:	15. 06. 2019 21:26

#	Modifying user name:	WinNT
#	Modification time:	15. 06. 2019 21:26

#	Program:	/corina/corina34_cracker 3.40 0067  02.08.2006

@<TRIPOS>MOLECULE
ASD10160522
  51   53    0    0    0
SMALL
NO_CHARGES


@<TRIPOS>ATOM
   1 C1             0.2235     1.4265     0.1329 C.2     
   2 C2             0.2069    -0.0440     0.0496 C.ar    
   3 C3             1.3950    -0.7699     0.2031 C.ar    
   4 C4             1.3735    -2.1475     0.1241 C.ar    
   5 C5             0.1765    -2.8129    -0.1072 C.ar    
   6 C6            -1.0061    -2.0948    -0.2602 C.ar    
   7 C7            -0.9961    -0.7204    -0.1773 C.ar    
   8 O8             1.2692     2.0120     0.3351 O.2     
   9 O9            -0.9201     2.1231    -0.0206 O.3     
  10 F10            2.5595    -0.1229     0.4276 F       
  11 O11            0.1599    -4.1676    -0.1846 O.3     
  12 C12            2.0284    -5.3416    -1.0832 C.ar    
  13 C13            1.3316    -4.8320     0.0009 C.ar    
  14 C14            1.8465    -5.0085     1.2823 C.ar    
  15 C15            3.0422    -5.6906     1.4239 C.ar    
  16 C16            3.6844    -6.1730     0.2913 C.ar    
  17 N17            3.1659    -5.9874    -0.9109 N.ar    
  18 C18            3.6401    -5.9066     2.7902 C.3     
  19 F19            2.8108    -5.3306     3.7585 F       
  20 F20            3.7598    -7.2788     3.0352 F       
  21 F21            4.9048    -5.3110     2.8453 F       
  22 O22            4.8579    -6.8435     0.4196 O.3     
  23 C23            5.4704    -7.3152    -0.7822 C.3     
  24 C24            6.7734    -8.0405    -0.4399 C.3     
  25 C25            6.4709    -9.2266     0.4780 C.3     
  26 F26            5.6025   -10.1099    -0.1722 F       
  27 F27            7.6623    -9.8897     0.7910 F       
  28 F28            7.3730    -8.5023    -1.6165 F       
  29 F29            7.6417    -7.1571     0.2104 F       
  30 Cl30          -2.4980    -2.9343    -0.5490 Cl      
  31 C31           -0.8302     3.4779     0.0402 C.ar    
  32 C32           -0.3731     4.1939    -1.0568 C.ar    
  33 C33           -0.2831     5.5709    -0.9926 C.ar    
  34 C34           -0.6478     6.2356     0.1637 C.ar    
  35 C35           -1.1032     5.5243     1.2585 C.ar    
  36 C36           -1.2009     4.1477     1.1973 C.ar    
  37 C37           -0.5481     7.7378     0.2311 C.3     
  38 H38            2.2886    -2.7089     0.2418 H       
  39 H39           -1.9153    -0.1651    -0.2918 H       
  40 H40            1.6334    -5.2127    -2.0801 H       
  41 H41            1.3251    -4.6218     2.1455 H       
  42 H42            4.7938    -8.0035    -1.2888 H       
  43 H43            5.6858    -6.4702    -1.4361 H       
  44 H44            6.0037    -8.8667     1.3947 H       
  45 H45           -0.0875     3.6752    -1.9599 H       
  46 H46            0.0727     6.1287    -1.8462 H       
  47 H47           -1.3868     6.0457     2.1608 H       
  48 H48           -1.5613     3.5929     2.0509 H       
  49 H49           -1.4873     8.1795    -0.1021 H       
  50 H50           -0.3473     8.0429     1.2581 H       
  51 H51            0.2622     8.0775    -0.4139 H       
@<TRIPOS>BOND
   1    1    2 1
   2    1    8 2
   3    1    9 1
   4    2    3 ar
   5    2    7 ar
   6    3    4 ar
   7    3   10 1
   8    4    5 ar
   9    4   38 1
  10    5    6 ar
  11    5   11 1
  12    6    7 ar
  13    6   30 1
  14    7   39 1
  15    9   31 1
  16   11   13 1
  17   12   13 ar
  18   12   17 ar
  19   12   40 1
  20   13   14 ar
  21   14   15 ar
  22   14   41 1
  23   15   16 ar
  24   15   18 1
  25   16   17 ar
  26   16   22 1
  27   18   19 1
  28   18   20 1
  29   18   21 1
  30   22   23 1
  31   23   24 1
  32   23   42 1
  33   23   43 1
  34   24   25 1
  35   24   28 1
  36   24   29 1
  37   25   26 1
  38   25   27 1
  39   25   44 1
  40   31   32 ar
  41   31   36 ar
  42   32   33 ar
  43   32   45 1
  44   33   34 ar
  45   33   46 1
  46   34   35 ar
  47   34   37 1
  48   35   36 ar
  49   35   47 1
  50   36   48 1
  51   37   49 1
  52   37   50 1
  53   37   51 1

#	End of record

