#	Name: ASD11920044
#	Creating user name:	WinNT
#	Creation time:	15. 06. 2019 21:29

#	Modifying user name:	WinNT
#	Modification time:	15. 06. 2019 21:29

#	Program:	/corina/corina34_cracker 3.40 0067  02.08.2006

@<TRIPOS>MOLECULE
ASD11920044
  37   39    0    0    0
SMALL
NO_CHARGES


@<TRIPOS>ATOM
   1 Cl1           -5.3330    -2.9990    -9.5920 Cl      
   2 C2             0.0011     1.1645     0.1779 C.ar    
   3 N3            -2.2554     0.8065    -0.0259 N.am    
   4 O4            -1.5428     2.9650    -0.1826 O.2     
   5 S5            -4.6398     0.6301    -4.4795 S.2     
   6 C6            -0.2306    -0.2201     0.3029 C.ar    
   7 N7            -3.8520    -1.8593    -3.9929 N.am    
   8 O8            -2.2825    -1.4597     0.2096 O.2     
   9 C9             0.8344    -1.0805     0.5160 C.ar    
  10 O10           -3.7973    -0.3927    -2.1776 O.3     
  11 C11            2.1211    -0.5725     0.6047 C.ar    
  12 C12            2.3483     0.7855     0.4825 C.ar    
  13 C13            1.2928     1.6580     0.2683 C.ar    
  14 C14           -1.3266     1.7796    -0.0314 C.2     
  15 C15           -1.6907    -0.4003     0.1595 C.2     
  16 C16           -3.6921     1.0308    -0.2046 C.3     
  17 C17           -4.0389     0.9545    -1.6928 C.3     
  18 C18           -4.0549    -0.6300    -3.4790 C.2     
  19 C19           -4.2031    -2.1295    -5.3203 C.ar    
  20 C20           -3.8587    -1.2364    -6.3265 C.ar    
  21 C21           -4.2065    -1.5055    -7.6357 C.ar    
  22 C22           -4.8974    -2.6638    -7.9453 C.ar    
  23 C23           -5.2422    -3.5552    -6.9445 C.ar    
  24 C24           -4.8915    -3.2940    -5.6345 C.ar    
  25 H25           -3.4626    -2.5568    -3.4426 H       
  26 H26            0.6628    -2.1423     0.6129 H       
  27 H27            2.9518    -1.2424     0.7708 H       
  28 H28            3.3553     1.1693     0.5538 H       
  29 H29            1.4762     2.7180     0.1729 H       
  30 H30           -4.2493     0.2672     0.3380 H       
  31 H31           -3.9566     2.0158     0.1801 H       
  32 H32           -3.4170     1.6572    -2.2473 H       
  33 H33           -5.0894     1.2087    -1.8345 H       
  34 H34           -3.3198    -0.3321    -6.0853 H       
  35 H35           -3.9392    -0.8111    -8.4185 H       
  36 H36           -5.7821    -4.4582    -7.1887 H       
  37 H37           -5.1562    -3.9925    -4.8545 H       
@<TRIPOS>BOND
   1    1   22 1
   2    2    6 ar
   3    2   13 ar
   4    2   14 1
   5    3   14 am
   6    3   15 am
   7    3   16 1
   8    4   14 2
   9    5   18 2
  10    6    9 ar
  11    6   15 1
  12    7   18 am
  13    7   19 1
  14    7   25 1
  15    8   15 2
  16    9   11 ar
  17    9   26 1
  18   10   17 1
  19   10   18 1
  20   11   12 ar
  21   11   27 1
  22   12   13 ar
  23   12   28 1
  24   13   29 1
  25   16   17 1
  26   16   30 1
  27   16   31 1
  28   17   32 1
  29   17   33 1
  30   19   20 ar
  31   19   24 ar
  32   20   21 ar
  33   20   34 1
  34   21   22 ar
  35   21   35 1
  36   22   23 ar
  37   23   24 ar
  38   23   36 1
  39   24   37 1

#	End of record

