#	Name: ASD13680017
#	Creating user name:	WinNT
#	Creation time:	15. 06. 2019 21:30

#	Modifying user name:	WinNT
#	Modification time:	15. 06. 2019 21:30

#	Program:	/corina/corina34_cracker 3.40 0067  02.08.2006

@<TRIPOS>MOLECULE
ASD13680017
  55   58    0    0    0
SMALL
NO_CHARGES


@<TRIPOS>ATOM
   1 C1            -0.0190     1.5123     0.0242 C.3     
   2 C2             0.0025    -0.0020     0.0099 C.2     
   3 C3             0.7561    -0.7678     0.8045 C.2     
   4 C4             1.7301    -0.2380     1.8427 C.3     
   5 C5             1.8877     2.2211     1.4594 C.3     
   6 C6             1.4089     2.0561     0.0198 C.3     
   7 C7             1.2762     1.1318     2.3377 C.3     
   8 C8             0.5459    -2.1871     0.5653 C.2     
   9 C9            -0.3619    -2.4431    -0.4221 C.2     
  10 S10           -0.9725    -0.9922    -1.0681 S.3     
  11 N11           -0.7346    -3.7112    -0.8412 N.am    
  12 C12            1.2408    -3.2401     1.3116 C.2     
  13 O13            0.7541    -3.6827     2.3355 O.2     
  14 N14            2.4188    -3.7180     0.8639 N.am    
  15 C15            3.1317    -4.6401     1.6270 C.ar    
  16 N16            2.6964    -4.9694     2.8329 N.ar    
  17 C17            3.3411    -5.8384     3.5879 C.ar    
  18 C18            4.5016    -6.4393     3.1425 C.ar    
  19 C19            4.9918    -6.1211     1.8830 C.ar    
  20 C20            4.2910    -5.2104     1.1127 C.ar    
  21 C21           -1.6421    -3.8555    -1.8271 C.2     
  22 O22           -2.1328    -2.8762    -2.3477 O.2     
  23 C23           -2.0472    -5.2337    -2.2825 C.3     
  24 C24           -3.0820    -5.1169    -3.4034 C.3     
  25 C25           -3.4932    -6.5161    -3.8658 C.3     
  26 C26           -2.2631    -7.2643    -4.3834 C.3     
  27 C27           -1.2282    -7.3811    -3.2625 C.3     
  28 C28           -0.8170    -5.9819    -2.8001 C.3     
  29 H29           -0.5467     1.8749    -0.8579 H       
  30 H30           -0.5349     1.8582     0.9199 H       
  31 H31            1.7736    -0.9300     2.6837 H       
  32 H32            2.7212    -0.1511     1.3972 H       
  33 H33            2.9745     2.1437     1.4907 H       
  34 H34            1.5846     3.1995     1.8320 H       
  35 H35            2.0626     1.3584    -0.5036 H       
  36 H36            1.4289     3.0226    -0.4836 H       
  37 H37            0.1890     1.1936     2.2888 H       
  38 H38            1.6015     1.2714     3.3686 H       
  39 H39           -0.3421    -4.4944    -0.4248 H       
  40 H40            2.7702    -3.4200     0.0103 H       
  41 H41            2.9562    -6.0826     4.5670 H       
  42 H42            5.0229    -7.1493     3.7675 H       
  43 H43            5.8977    -6.5770     1.5117 H       
  44 H44            4.6415    -4.9432     0.1267 H       
  45 H45           -2.4793    -5.7809    -1.4447 H       
  46 H46           -3.9584    -4.5839    -3.0346 H       
  47 H47           -2.6499    -4.5697    -4.2412 H       
  48 H48           -3.9253    -7.0633    -3.0279 H       
  49 H49           -4.2305    -6.4329    -4.6643 H       
  50 H50           -2.5560    -8.2611    -4.7128 H       
  51 H51           -1.8309    -6.7171    -5.2212 H       
  52 H52           -1.6603    -7.9283    -2.4247 H       
  53 H53           -0.3518    -7.9141    -3.6313 H       
  54 H54           -0.3849    -5.4347    -3.6380 H       
  55 H55           -0.0797    -6.0651    -2.0016 H       
@<TRIPOS>BOND
   1    1    2 1
   2    1    6 1
   3    1   29 1
   4    1   30 1
   5    2   10 1
   6    2    3 2
   7    3    4 1
   8    3    8 1
   9    4    7 1
  10    4   31 1
  11    4   32 1
  12    5    6 1
  13    5    7 1
  14    5   33 1
  15    5   34 1
  16    6   35 1
  17    6   36 1
  18    7   37 1
  19    7   38 1
  20    8    9 2
  21    8   12 1
  22    9   10 1
  23    9   11 1
  24   11   21 am
  25   11   39 1
  26   12   13 2
  27   12   14 am
  28   14   15 1
  29   14   40 1
  30   15   16 ar
  31   15   20 ar
  32   16   17 ar
  33   17   18 ar
  34   17   41 1
  35   18   19 ar
  36   18   42 1
  37   19   20 ar
  38   19   43 1
  39   20   44 1
  40   21   22 2
  41   21   23 1
  42   23   24 1
  43   23   28 1
  44   23   45 1
  45   24   25 1
  46   24   46 1
  47   24   47 1
  48   25   26 1
  49   25   48 1
  50   25   49 1
  51   26   27 1
  52   26   50 1
  53   26   51 1
  54   27   28 1
  55   27   52 1
  56   27   53 1
  57   28   54 1
  58   28   55 1

#	End of record

