#	Name: ASD14780001
#	Creating user name:	WinNT
#	Creation time:	15. 06. 2019 21:31

#	Modifying user name:	WinNT
#	Modification time:	15. 06. 2019 21:31

#	Program:	/corina/corina34_cracker 3.40 0067  02.08.2006

@<TRIPOS>MOLECULE
ASD14780001
  39   38    0    0    0
SMALL
NO_CHARGES


@<TRIPOS>ATOM
   1 O1            -0.0139     1.3256     0.3321 O.3     
   2 O2             1.0316    -0.6272     0.4924 O.2     
   3 C3             3.8599    -6.9133     2.5268 C.3     
   4 C4             3.4712    -6.0099     1.3548 C.3     
   5 C5             5.1770    -7.6236     2.2082 C.3     
   6 C6             2.1541    -5.2995     1.6733 C.3     
   7 C7             5.5657    -8.5270     3.3803 C.3     
   8 C8             1.7654    -4.3961     0.5013 C.3     
   9 C9             0.4482    -3.6858     0.8199 C.3     
  10 C10            4.5297    -9.6430     3.5294 C.3     
  11 C11            6.9421    -9.1408     3.1165 C.3     
  12 C12            0.0596    -2.7824    -0.3522 C.3     
  13 C13           -1.2378    -2.0827    -0.0384 C.2     
  14 C14           -1.2616    -0.7604     0.1105 C.2     
  15 C15           -0.0089    -0.0223     0.3237 C.2     
  16 H16            3.9809    -6.3096     3.4263 H       
  17 H17            3.0774    -7.6545     2.6893 H       
  18 H18            4.2537    -5.2687     1.1923 H       
  19 H19            3.3501    -6.6135     0.4553 H       
  20 H20            5.0559    -8.2273     1.3088 H       
  21 H21            5.9595    -6.8824     2.0458 H       
  22 H22            1.3716    -6.0407     1.8358 H       
  23 H23            2.2751    -4.6959     2.5728 H       
  24 H24            5.6000    -7.9383     4.2970 H       
  25 H25            2.5479    -3.6549     0.3388 H       
  26 H26            1.6443    -4.9998    -0.3982 H       
  27 H27           -0.3343    -4.4270     0.9824 H       
  28 H28            0.5693    -3.0821     1.7193 H       
  29 H29            4.4953   -10.2317     2.6127 H       
  30 H30            4.8066   -10.2866     4.3644 H       
  31 H31            3.5491    -9.2057     3.7174 H       
  32 H32            7.6801    -8.3458     3.0102 H       
  33 H33            7.2190    -9.7844     3.9515 H       
  34 H34            6.9077    -9.7296     2.1998 H       
  35 H35            0.8421    -2.0412    -0.5146 H       
  36 H36           -0.0615    -3.3860    -1.2516 H       
  37 H37           -2.1482    -2.6543     0.0657 H       
  38 H38           -2.2016    -0.2298     0.0746 H       
  39 H39            0.8344     1.7669     0.4761 H       
@<TRIPOS>BOND
   1    1   15 1
   2    1   39 1
   3    2   15 2
   4    3    4 1
   5    3    5 1
   6    3   16 1
   7    3   17 1
   8    4    6 1
   9    4   18 1
  10    4   19 1
  11    5    7 1
  12    5   20 1
  13    5   21 1
  14    6    8 1
  15    6   22 1
  16    6   23 1
  17    7   10 1
  18    7   11 1
  19    7   24 1
  20    8    9 1
  21    8   25 1
  22    8   26 1
  23    9   12 1
  24    9   27 1
  25    9   28 1
  26   10   29 1
  27   10   30 1
  28   10   31 1
  29   11   32 1
  30   11   33 1
  31   11   34 1
  32   12   13 1
  33   12   35 1
  34   12   36 1
  35   13   14 2
  36   13   37 1
  37   14   15 1
  38   14   38 1

#	End of record

