#	Name: ASD10410286
#	Creating user name:	WinNT
#	Creation time:	15. 06. 2019 21:27

#	Modifying user name:	WinNT
#	Modification time:	15. 06. 2019 21:27

#	Program:	/corina/corina34_cracker 3.40 0067  02.08.2006

@<TRIPOS>MOLECULE
ASD10410286
  84   90    0    0    0
SMALL
NO_CHARGES


@<TRIPOS>ATOM
   1 C1            -1.1233    -0.6221     0.5278 C.ar    
   2 C2            -0.0013    -0.0105     0.0308 C.ar    
   3 C3            -0.0678     1.2799    -0.4670 C.ar    
   4 C4            -1.2733     1.9545    -0.4627 C.ar    
   5 C5            -2.4123     1.3374     0.0399 C.ar    
   6 C6            -2.3348     0.0440     0.5423 C.ar    
   7 N7            -3.6325     2.0182     0.0451 N.pl3   
   8 C8            -4.8288     1.3069    -0.0539 C.2     
   9 N9            -6.0312     1.8220     0.0410 N.2     
  10 N10           -4.9343    -0.0099    -0.2667 N.2     
  11 C11           -6.2044    -0.3521    -0.3051 C.2     
  12 N12           -6.9431     0.7658    -0.1162 N.pl3   
  13 N13           -6.6971    -1.6279    -0.5060 N.pl3   
  14 C14           -8.3386     0.8522    -0.0840 C.ar    
  15 C15           -8.9388     1.8940     0.6088 C.ar    
  16 N16           -9.0627    -0.0631    -0.7227 N.ar    
  17 C17          -10.3630    -0.0091    -0.7112 C.ar    
  18 C18          -11.0492     1.0029    -0.0330 C.ar    
  19 C19          -10.3369     1.9826     0.6428 C.ar    
  20 C20          -11.2941    -0.9902    -1.3999 C.3     
  21 C21          -12.2216    -1.5457    -0.2996 C.3     
  22 C22          -12.8817    -0.3822     0.4436 C.3     
  23 N23          -12.4424     0.9085    -0.1223 N.3     
  24 C24          -12.8459     0.9748    -1.5407 C.3     
  25 C25          -12.1838    -0.1503    -2.3392 C.3     
  26 C26          -11.0252     3.0735     1.3746 C.ar    
  27 C27          -10.6742     3.3621     2.6922 C.ar    
  28 C28          -11.3178     4.3787     3.3682 C.ar    
  29 C29          -12.3099     5.1103     2.7406 C.ar    
  30 C30          -12.6627     4.8281     1.4332 C.ar    
  31 C31          -12.0216     3.8178     0.7454 C.ar    
  32 C32           -1.0427    -2.0335     1.0718 C.3     
  33 C33           -0.8307    -2.9938    -0.1011 C.3     
  34 C34            0.6412    -3.1148    -0.4428 C.3     
  35 C35            1.2547    -1.8573    -1.0264 C.3     
  36 C36            1.3238    -0.7445     0.0223 C.3     
  37 N37            0.8060    -4.2037    -1.4089 N.am    
  38 C38            1.9849    -4.8505    -1.5007 C.2     
  39 O39            2.1364    -5.8512    -2.3885 O.3     
  40 O40            2.9111    -4.5304    -0.7822 O.2     
  41 C41            3.4332    -6.5029    -2.4324 C.3     
  42 C42            3.7423    -7.1160    -1.0652 C.3     
  43 C43            3.4143    -7.6053    -3.4932 C.3     
  44 C44            4.5093    -5.4741    -2.7851 C.3     
  45 H45            0.8192     1.7571    -0.8568 H       
  46 H46           -1.3304     2.9612    -0.8494 H       
  47 H47           -3.2168    -0.4407     0.9342 H       
  48 H48           -3.6480     2.9854     0.1176 H       
  49 H49           -6.0852    -2.3694    -0.6346 H       
  50 H50           -7.6548    -1.7816    -0.5183 H       
  51 H51           -8.3337     2.6298     1.1176 H       
  52 H52          -10.7522    -1.7790    -1.9217 H       
  53 H53          -12.9908    -2.1703    -0.7536 H       
  54 H54          -11.6372    -2.1407     0.4023 H       
  55 H55          -13.9646    -0.4651     0.3521 H       
  56 H56          -12.6058    -0.4255     1.4972 H       
  57 H57          -13.9293     0.8778    -1.6119 H       
  58 H58          -12.5454     1.9366    -1.9562 H       
  59 H59          -11.5717     0.2786    -3.1326 H       
  60 H60          -12.9529    -0.7867    -2.7769 H       
  61 H61           -9.9002     2.7910     3.1834 H       
  62 H62          -11.0466     4.6031     4.3892 H       
  63 H63          -12.8112     5.9048     3.2735 H       
  64 H64          -13.4383     5.4023     0.9482 H       
  65 H65          -12.2978     3.5983    -0.2753 H       
  66 H66           -0.2053    -2.1115     1.7652 H       
  67 H67           -1.9717    -2.2817     1.5852 H       
  68 H68           -1.2183    -3.9768     0.1663 H       
  69 H69           -1.3710    -2.6212    -0.9713 H       
  70 H70            1.1863    -3.3766     0.4640 H       
  71 H71            2.2617    -2.0804    -1.3789 H       
  72 H72            0.6484    -1.5200    -1.8671 H       
  73 H73            2.1253    -0.0508    -0.2319 H       
  74 H74            1.5087    -1.1783     1.0051 H       
  75 H75            0.0667    -4.4592    -1.9825 H       
  76 H76            2.9757    -7.8490    -0.8139 H       
  77 H77            4.7158    -7.6052    -1.0981 H       
  78 H78            3.7558    -6.3307    -0.3094 H       
  79 H79            3.1941    -7.1685    -4.4673 H       
  80 H80            4.3878    -8.0945    -3.5261 H       
  81 H81            2.6477    -8.3382    -3.2419 H       
  82 H82            4.5227    -4.6887    -2.0294 H       
  83 H83            5.4828    -5.9633    -2.8180 H       
  84 H84            4.2890    -5.0373    -3.7592 H       
@<TRIPOS>BOND
   1    1    2 ar
   2    1   32 1
   3    1    6 ar
   4    2    3 ar
   5    2   36 1
   6    3    4 ar
   7    3   45 1
   8    4    5 ar
   9    4   46 1
  10    5    6 ar
  11    5    7 1
  12    6   47 1
  13    7    8 1
  14    7   48 1
  15    8    9 2
  16    8   10 1
  17    9   12 1
  18   10   11 2
  19   11   12 1
  20   11   13 1
  21   12   14 1
  22   13   49 1
  23   13   50 1
  24   14   15 ar
  25   14   16 ar
  26   15   19 ar
  27   15   51 1
  28   16   17 ar
  29   17   18 ar
  30   17   20 1
  31   18   19 ar
  32   18   23 1
  33   19   26 1
  34   20   21 1
  35   20   25 1
  36   20   52 1
  37   21   22 1
  38   21   53 1
  39   21   54 1
  40   22   23 1
  41   22   55 1
  42   22   56 1
  43   23   24 1
  44   24   25 1
  45   24   57 1
  46   24   58 1
  47   25   59 1
  48   25   60 1
  49   26   27 ar
  50   26   31 ar
  51   27   28 ar
  52   27   61 1
  53   28   29 ar
  54   28   62 1
  55   29   30 ar
  56   29   63 1
  57   30   31 ar
  58   30   64 1
  59   31   65 1
  60   32   33 1
  61   32   66 1
  62   32   67 1
  63   33   34 1
  64   33   68 1
  65   33   69 1
  66   34   35 1
  67   34   37 1
  68   34   70 1
  69   35   36 1
  70   35   71 1
  71   35   72 1
  72   36   73 1
  73   36   74 1
  74   37   38 am
  75   37   75 1
  76   38   39 1
  77   38   40 2
  78   39   41 1
  79   41   42 1
  80   41   43 1
  81   41   44 1
  82   42   76 1
  83   42   77 1
  84   42   78 1
  85   43   79 1
  86   43   80 1
  87   43   81 1
  88   44   82 1
  89   44   83 1
  90   44   84 1

#	End of record

