#	Name: ASD11920067
#	Creating user name:	WinNT
#	Creation time:	15. 06. 2019 21:29

#	Modifying user name:	WinNT
#	Modification time:	15. 06. 2019 21:29

#	Program:	/corina/corina34_cracker 3.40 0067  02.08.2006

@<TRIPOS>MOLECULE
ASD11920067
  45   48    0    0    0
SMALL
NO_CHARGES


@<TRIPOS>ATOM
   1 C1             0.2063     1.8329    -0.4624 C.2     
   2 C2             1.5106     4.6198     4.0708 C.ar    
   3 C3             5.7446     2.5092     4.1376 C.2     
   4 C4             1.2669     4.2690     1.4007 C.3     
   5 C5             1.3494     3.9693    -0.0974 C.3     
   6 C6             2.5601     1.8752    -0.3370 C.2     
   7 C7             1.4833    -0.1690    -0.6849 C.2     
   8 C8             0.2341     0.4964    -0.6528 C.2     
   9 C9             5.5466     1.4078     5.0083 C.2     
  10 C10            7.8497     1.4901     5.6173 C.2     
  11 C11            8.0481     2.5356     4.7938 C.2     
  12 C12            6.9859     3.0630     4.0361 C.2     
  13 N13            1.3794     2.5194    -0.3044 N.am    
  14 N14            2.6168     0.5436    -0.5252 N.am    
  15 N15            6.6066     0.9132     5.7377 N.pl3   
  16 O16            4.7103     3.0032     3.4089 O.3     
  17 O17            2.4620     3.8201     2.0428 O.3     
  18 O18            3.5905     2.5048    -0.1948 O.2     
  19 O19            1.5336    -1.3738    -0.8549 O.2     
  20 C20            1.6026     4.8151     5.4363 C.ar    
  21 C21            2.7313     4.4055     6.1219 C.ar    
  22 C22            3.7728     3.7989     5.4452 C.ar    
  23 C23            3.6871     3.6001     4.0761 C.ar    
  24 C24            2.5508     4.0125     3.3860 C.ar    
  25 C25            4.4273     0.6599     5.3104 C.2     
  26 C26            6.1716    -0.1297     6.4902 C.2     
  27 C27            4.8241    -0.3153     6.2504 C.2     
  28 C28            3.9852    -1.3115     6.8457 C.1     
  29 N29            3.3197    -2.1019     7.3179 N.1     
  30 H30           -0.7371     2.3582    -0.4394 H       
  31 H31            0.6259     4.9367     3.5384 H       
  32 H32            1.1552     5.3428     1.5508 H       
  33 H33            0.4083     3.7511     1.8281 H       
  34 H34            0.4789     4.3903    -0.6006 H       
  35 H35            2.2563     4.4138    -0.5074 H       
  36 H36           -0.6845    -0.0576    -0.7785 H       
  37 H37            8.6769     1.0988     6.1909 H       
  38 H38            9.0318     2.9742     4.7136 H       
  39 H39            7.1535     3.9022     3.3772 H       
  40 H40            3.4764     0.0948    -0.5460 H       
  41 H41            0.7912     5.2890     5.9686 H       
  42 H42            2.7994     4.5602     7.1886 H       
  43 H43            4.6534     3.4802     5.9831 H       
  44 H44            3.4356     0.7953     4.9048 H       
  45 H45            6.7782    -0.7167     7.1638 H       
@<TRIPOS>BOND
   1    1    8 2
   2    1   13 1
   3    1   30 1
   4    2   20 ar
   5    2   24 ar
   6    2   31 1
   7    3    9 1
   8    3   12 2
   9    3   16 1
  10    4    5 1
  11    4   17 1
  12    4   32 1
  13    4   33 1
  14    5   13 1
  15    5   34 1
  16    5   35 1
  17    6   13 am
  18    6   14 am
  19    6   18 2
  20    7    8 1
  21    7   14 am
  22    7   19 2
  23    8   36 1
  24    9   15 1
  25    9   25 2
  26   10   11 2
  27   10   15 1
  28   10   37 1
  29   11   12 1
  30   11   38 1
  31   12   39 1
  32   14   40 1
  33   15   26 1
  34   16   23 1
  35   17   24 1
  36   20   21 ar
  37   20   41 1
  38   21   22 ar
  39   21   42 1
  40   22   23 ar
  41   22   43 1
  42   23   24 ar
  43   25   27 1
  44   25   44 1
  45   26   27 2
  46   26   45 1
  47   27   28 1
  48   28   29 3

#	End of record

