#	Name: ASD14880002
#	Creating user name:	WinNT
#	Creation time:	15. 06. 2019 21:31

#	Modifying user name:	WinNT
#	Modification time:	15. 06. 2019 21:31

#	Program:	/corina/corina34_cracker 3.40 0067  02.08.2006

@<TRIPOS>MOLECULE
ASD14880002
  54   56    0    0    0
SMALL
NO_CHARGES


@<TRIPOS>ATOM
   1 C1            -0.0162     1.3449     0.0094 C.2     
   2 N2             0.0021    -0.0041     0.0020 N.am    
   3 C3             1.1811    -0.6565    -0.0121 C.2     
   4 N4             2.3152    -0.0119    -0.0154 N.2     
   5 C5             2.3663     1.3273    -0.0063 C.2     
   6 C6             1.2134     2.0415     0.0014 C.2     
   7 C7             1.1971     3.5451    -0.0035 C.3     
   8 C8             3.7150     1.9988     0.0001 C.3     
   9 C9             3.5709     3.4643    -0.4117 C.3     
  10 N10            2.5048     4.0747     0.3982 N.3     
  11 C11            1.1896    -2.1634    -0.0237 C.3     
  12 O12           -1.0742     1.9520     0.0178 O.2     
  13 C13            2.5351     5.5394     0.2910 C.3     
  14 C14            1.5827     6.1364     1.2949 C.ar    
  15 C15            0.3285     6.5548     0.8923 C.ar    
  16 C16            1.9642     6.2599     2.6235 C.ar    
  17 C17            1.0882     6.8085     3.5471 C.ar    
  18 C18           -0.1689     7.2331     3.1401 C.ar    
  19 C19           -0.5472     7.1024     1.8092 C.ar    
  20 O20            3.1957     5.8428     3.0188 O.3     
  21 C21            3.5211     6.0004     4.4013 C.3     
  22 N22           -1.0546     7.7860     4.0678 N.pl3   
  23 C23           -2.3813     8.2338     3.6371 C.3     
  24 C24           -0.6568     7.9182     5.4716 C.3     
  25 C25           -3.3752     7.0773     3.7615 C.3     
  26 C26            0.0137     9.2766     5.6859 C.3     
  27 H27           -0.8301    -0.5024     0.0071 H       
  28 H28            0.9585     3.8990    -1.0065 H       
  29 H29            0.4365     3.8989     0.6925 H       
  30 H30            4.1415     1.9446     1.0017 H       
  31 H31            4.3761     1.4893    -0.7010 H       
  32 H32            4.5103     3.9883    -0.2353 H       
  33 H33            3.3078     3.5238    -1.4678 H       
  34 H34            1.1837    -2.5188    -1.0541 H       
  35 H35            2.0855    -2.5256     0.4805 H       
  36 H36            0.3057    -2.5357     0.4941 H       
  37 H37            3.5450     5.8975     0.4907 H       
  38 H38            2.2364     5.8364    -0.7143 H       
  39 H39            0.0327     6.4537    -0.1415 H       
  40 H40            1.3833     6.9051     4.5815 H       
  41 H41           -1.5264     7.4292     1.4919 H       
  42 H42            4.5298     5.6288     4.5818 H       
  43 H43            3.4695     7.0558     4.6687 H       
  44 H44            2.8123     5.4368     5.0080 H       
  45 H45           -2.7072     9.0621     4.2662 H       
  46 H46           -2.3345     8.5626     2.5989 H       
  47 H47           -1.5389     7.8439     6.1077 H       
  48 H48            0.0435     7.1230     5.7272 H       
  49 H49           -4.3623     7.4104     3.4410 H       
  50 H50           -3.0494     6.2489     3.1324 H       
  51 H51           -3.4220     6.7485     4.7997 H       
  52 H52           -0.6866    10.0718     5.4303 H       
  53 H53            0.3096     9.3750     6.7304 H       
  54 H54            0.8957     9.3509     5.0498 H       
@<TRIPOS>BOND
   1    1    2 am
   2    1    6 1
   3    1   12 2
   4    2    3 1
   5    2   27 1
   6    3    4 2
   7    3   11 1
   8    4    5 1
   9    5    8 1
  10    5    6 2
  11    6    7 1
  12    7   10 1
  13    7   28 1
  14    7   29 1
  15    8    9 1
  16    8   30 1
  17    8   31 1
  18    9   10 1
  19    9   32 1
  20    9   33 1
  21   10   13 1
  22   11   34 1
  23   11   35 1
  24   11   36 1
  25   13   14 1
  26   13   37 1
  27   13   38 1
  28   14   16 ar
  29   14   15 ar
  30   15   19 ar
  31   15   39 1
  32   16   17 ar
  33   16   20 1
  34   17   18 ar
  35   17   40 1
  36   18   19 ar
  37   18   22 1
  38   19   41 1
  39   20   21 1
  40   21   42 1
  41   21   43 1
  42   21   44 1
  43   22   23 1
  44   22   24 1
  45   23   25 1
  46   23   45 1
  47   23   46 1
  48   24   26 1
  49   24   47 1
  50   24   48 1
  51   25   49 1
  52   25   50 1
  53   25   51 1
  54   26   52 1
  55   26   53 1
  56   26   54 1

#	End of record

