#	Name: ASD10610065
#	Creating user name:	WinNT
#	Creation time:	15. 06. 2019 21:27

#	Modifying user name:	WinNT
#	Modification time:	15. 06. 2019 21:27

#	Program:	/corina/corina34_cracker 3.40 0067  02.08.2006

@<TRIPOS>MOLECULE
ASD10610065
  61   65    0    0    0
SMALL
NO_CHARGES


@<TRIPOS>ATOM
   1 C1            -0.8924     2.5811     1.7251 C.2     
   2 N2            -0.1173     1.5588     2.0191 N.2     
   3 C3             0.7810     1.9397     2.9244 C.2     
   4 C4             0.5678     3.2469     3.2135 C.2     
   5 N5            -0.4825     3.6558     2.4631 N.pl3   
   6 C6            -2.0072     2.5703     0.7607 C.2     
   7 O7            -2.7116     3.5535     0.6346 O.2     
   8 N8            -2.2457     1.4708     0.0186 N.am    
   9 O9            -4.3756    -0.3548    -0.3810 O.3     
  10 C10           -3.6445     0.0643    -1.5407 C.3     
  11 C11           -3.4186     1.4187    -0.8576 C.3     
  12 C12           -4.7218     1.0179    -0.1552 C.3     
  13 C13           -3.5397     2.6099    -1.7726 C.2     
  14 N14           -2.4304     3.2089    -2.2494 N.am    
  15 O15           -4.6352     3.0295    -2.0801 O.2     
  16 C16           -2.5467     4.2977    -3.2226 C.3     
  17 C17           -2.7313     3.7116    -4.6238 C.3     
  18 C18           -1.2951     5.1365    -3.1899 C.ar    
  19 C19           -1.4003     6.5169    -3.1320 C.ar    
  20 C20           -0.2457     7.2831    -3.1016 C.ar    
  21 C21            0.9872     6.6248    -3.1310 C.ar    
  22 C22            1.0071     5.2325    -3.1893 C.ar    
  23 N23           -0.1165     4.5453    -3.2113 N.ar    
  24 F24           -2.6143     7.1091    -3.1059 F       
  25 C25            2.2533     7.3955    -3.1011 C.ar    
  26 C26            3.2003     7.1579    -2.0920 C.ar    
  27 C27            4.3873     7.8893    -2.0746 C.ar    
  28 C28            4.6256     8.8422    -3.0482 C.ar    
  29 C29            3.6903     9.0753    -4.0422 C.ar    
  30 C30            2.5116     8.3539    -4.0762 C.ar    
  31 O31            1.9396     4.7063     0.0579 O.3     
  32 N32            1.8283     5.4660    -0.8810 N.2     
  33 C33            2.9395     6.1359    -1.0510 C.2     
  34 N34            3.8056     5.7201    -0.0987 N.2     
  35 C35            3.1590     4.8164     0.5943 C.2     
  36 C36            3.6901     4.0452     1.7751 C.3     
  37 F37            5.3038     7.6675    -1.1071 F       
  38 Cl38           4.0031    10.2751    -5.2573 Cl      
  39 C39           -1.0687     4.9983     2.4450 C.3     
  40 H40            1.5484     1.3139     3.3556 H       
  41 H41            1.1299     3.8491     3.9119 H       
  42 H42           -1.6407     0.7140     0.0646 H       
  43 H43           -2.7249    -0.4990    -1.6995 H       
  44 H44           -4.2584     0.1297    -2.4390 H       
  45 H45           -5.6170     1.3323    -0.6918 H       
  46 H46           -4.7461     1.2901     0.8999 H       
  47 H47           -1.5552     2.9192    -1.9480 H       
  48 H48           -3.4069     4.9186    -2.9723 H       
  49 H49           -3.6366     3.1049    -4.6475 H       
  50 H50           -2.8178     4.5217    -5.3480 H       
  51 H51           -1.8712     3.0907    -4.8742 H       
  52 H52           -0.2972     8.3610    -3.0568 H       
  53 H53            1.9530     4.7117    -3.2125 H       
  54 H54            5.5457     9.4075    -3.0328 H       
  55 H55            1.7889     8.5374    -4.8575 H       
  56 H56            2.9205     3.3657     2.1412 H       
  57 H57            4.5658     3.4720     1.4706 H       
  58 H58            3.9682     4.7400     2.5676 H       
  59 H59           -1.9267     5.0292     3.1165 H       
  60 H60           -0.3245     5.7242     2.7728 H       
  61 H61           -1.3909     5.2404     1.4323 H       
@<TRIPOS>BOND
   1    1    2 2
   2    1    5 1
   3    1    6 1
   4    2    3 1
   5    3    4 2
   6    3   40 1
   7    4    5 1
   8    4   41 1
   9    5   39 1
  10    6    7 2
  11    6    8 am
  12    8   11 1
  13    8   42 1
  14    9   10 1
  15    9   12 1
  16   10   11 1
  17   10   43 1
  18   10   44 1
  19   11   12 1
  20   11   13 1
  21   12   45 1
  22   12   46 1
  23   13   14 am
  24   13   15 2
  25   14   16 1
  26   14   47 1
  27   16   17 1
  28   16   18 1
  29   16   48 1
  30   17   49 1
  31   17   50 1
  32   17   51 1
  33   18   19 ar
  34   18   23 ar
  35   19   20 ar
  36   19   24 1
  37   20   21 ar
  38   20   52 1
  39   21   22 ar
  40   21   25 1
  41   22   23 ar
  42   22   53 1
  43   25   26 ar
  44   25   30 ar
  45   26   27 ar
  46   26   33 1
  47   27   28 ar
  48   27   37 1
  49   28   29 ar
  50   28   54 1
  51   29   30 ar
  52   29   38 1
  53   30   55 1
  54   31   32 1
  55   31   35 1
  56   32   33 2
  57   33   34 1
  58   34   35 2
  59   35   36 1
  60   36   56 1
  61   36   57 1
  62   36   58 1
  63   39   59 1
  64   39   60 1
  65   39   61 1

#	End of record

