#	Name: ASD10420133
#	Creating user name:	WinNT
#	Creation time:	15. 06. 2019 21:27

#	Modifying user name:	WinNT
#	Modification time:	15. 06. 2019 21:27

#	Program:	/corina/corina34_cracker 3.40 0067  02.08.2006

@<TRIPOS>MOLECULE
ASD10420133
  25   27    0    0    0
SMALL
NO_CHARGES


@<TRIPOS>ATOM
   1 C1            -0.0167     1.3825     0.0096 C.ar    
   2 C2             0.0021    -0.0041     0.0020 C.ar    
   3 C3             1.1612     2.0960     0.0022 C.ar    
   4 C4             1.2006    -0.6881    -0.0131 C.ar    
   5 C5             6.6468    -0.4077    -0.0620 C.ar    
   6 C6             6.6033     2.0089    -0.0491 C.ar    
   7 C7             8.0252    -0.3788    -0.0750 C.ar    
   8 C8             7.9818     2.0298    -0.0621 C.ar    
   9 C9             5.9251     0.7880    -0.0490 C.ar    
  10 C10            8.6965     0.8380    -0.0750 C.ar    
  11 C11            4.4485     0.7613    -0.0356 C.2     
  12 C12            2.3819     1.4174    -0.0130 C.ar    
  13 C13            2.3960     0.0129    -0.0207 C.ar    
  14 N14            3.6786     1.8205    -0.0228 N.2     
  15 O15           10.0545     0.8625    -0.0878 O.3     
  16 O16            3.6965    -0.3557    -0.0341 O.3     
  17 Br17           9.0035    -1.9970    -0.0920 Br      
  18 Br18           8.9013     3.6822    -0.0622 Br      
  19 H19           -0.9612     1.9062     0.0169 H       
  20 H20           -0.9281    -0.5528     0.0083 H       
  21 H21            1.1411     3.1758     0.0078 H       
  22 H22            1.2069    -1.7680    -0.0186 H       
  23 H23            6.1257    -1.3537    -0.0665 H       
  24 H24            6.0486     2.9355    -0.0387 H       
  25 H25           10.4393     0.8742    -0.9749 H       
@<TRIPOS>BOND
   1    1    2 ar
   2    1    3 ar
   3    1   19 1
   4    2    4 ar
   5    2   20 1
   6    3   12 ar
   7    3   21 1
   8    4   13 ar
   9    4   22 1
  10    5    7 ar
  11    5    9 ar
  12    5   23 1
  13    6    8 ar
  14    6    9 ar
  15    6   24 1
  16    7   10 ar
  17    7   17 1
  18    8   10 ar
  19    8   18 1
  20    9   11 1
  21   10   15 1
  22   11   14 2
  23   11   16 1
  24   12   13 ar
  25   12   14 1
  26   13   16 1
  27   15   25 1

#	End of record

