#	Name: ASD11000024
#	Creating user name:	WinNT
#	Creation time:	15. 06. 2019 21:28

#	Modifying user name:	WinNT
#	Modification time:	15. 06. 2019 21:28

#	Program:	/corina/corina34_cracker 3.40 0067  02.08.2006

@<TRIPOS>MOLECULE
ASD11000024
  39   40    0    0    0
SMALL
NO_CHARGES


@<TRIPOS>ATOM
   1 C1            -0.0185     1.3819    -0.0193 C.ar    
   2 C2            -0.0165     0.0223    -0.2761 C.ar    
   3 C3            -1.1994    -0.6873    -0.2607 C.ar    
   4 C4            -2.4001    -0.0307     0.0152 C.ar    
   5 C5            -2.3948     1.3411     0.2739 C.ar    
   6 C6            -1.2043     2.0379     0.2601 C.ar    
   7 C7            -3.6712    -0.7845     0.0329 C.2     
   8 O8            -3.6603    -1.9963    -0.0580 O.2     
   9 N9            -4.8424    -0.1279     0.1498 N.am    
  10 C10            1.2776     2.1506    -0.0378 C.3     
  11 C11            1.9196     2.0347    -1.4217 C.3     
  12 C12            1.0019     3.6228     0.2748 C.3     
  13 C13            2.2271     1.5749     1.0148 C.3     
  14 C14           -5.0016     1.3176     0.3806 C.3     
  15 C15           -6.5312     1.5032     0.4268 C.3     
  16 N16           -7.0630     0.1496     0.2182 N.2     
  17 C17           -6.0932    -0.6919     0.0681 C.2     
  18 S18           -6.3520    -2.4133    -0.2043 S.3     
  19 C19           -8.1611    -2.4662    -0.1841 C.3     
  20 H20            0.9131    -0.4844    -0.4894 H       
  21 H21           -1.1966    -1.7484    -0.4620 H       
  22 H22           -3.3203     1.8551     0.4877 H       
  23 H23           -1.1987     3.0991     0.4604 H       
  24 H24            1.2432     2.4449    -2.1716 H       
  25 H25            2.8571     2.5907    -1.4351 H       
  26 H26            2.1160     0.9859    -1.6444 H       
  27 H27            0.5446     3.7054     1.2608 H       
  28 H28            1.9394     4.1788     0.2614 H       
  29 H29            0.3255     4.0329    -0.4750 H       
  30 H30            2.4235     0.5261     0.7921 H       
  31 H31            3.1646     2.1309     1.0014 H       
  32 H32            1.7697     1.6575     2.0007 H       
  33 H33           -4.5504     1.6074     1.3295 H       
  34 H34           -4.5698     1.8880    -0.4418 H       
  35 H35           -6.8397     1.8890     1.3984 H       
  36 H36           -6.8592     2.1694    -0.3712 H       
  37 H37           -8.5243    -2.1109     0.7802 H       
  38 H38           -8.5521    -1.8286    -0.9770 H       
  39 H39           -8.4964    -3.4911    -0.3434 H       
@<TRIPOS>BOND
   1    1    2 ar
   2    1   10 1
   3    1    6 ar
   4    2    3 ar
   5    2   20 1
   6    3    4 ar
   7    3   21 1
   8    4    5 ar
   9    4    7 1
  10    5    6 ar
  11    5   22 1
  12    6   23 1
  13    7    8 2
  14    7    9 am
  15    9   14 1
  16    9   17 1
  17   10   11 1
  18   10   12 1
  19   10   13 1
  20   11   24 1
  21   11   25 1
  22   11   26 1
  23   12   27 1
  24   12   28 1
  25   12   29 1
  26   13   30 1
  27   13   31 1
  28   13   32 1
  29   14   15 1
  30   14   33 1
  31   14   34 1
  32   15   16 1
  33   15   35 1
  34   15   36 1
  35   16   17 2
  36   17   18 1
  37   18   19 1
  38   19   37 1
  39   19   38 1
  40   19   39 1

#	End of record

