#	Name: ASD11340002
#	Creating user name:	WinNT
#	Creation time:	15. 06. 2019 21:29

#	Modifying user name:	WinNT
#	Modification time:	15. 06. 2019 21:29

#	Program:	/corina/corina34_cracker 3.40 0067  02.08.2006

@<TRIPOS>MOLECULE
ASD11340002
  36   38    0    0    0
SMALL
NO_CHARGES


@<TRIPOS>ATOM
   1 C1            -0.0187     1.5258     0.0104 C.3     
   2 C2             0.0021    -0.0041     0.0020 C.3     
   3 C3            -1.4117    -0.5257     0.0127 C.2     
   4 C4            -2.1288    -0.7806    -1.0703 C.2     
   5 C5            -3.4656    -1.2763    -0.7803 C.2     
   6 C6            -3.6965    -1.3734     0.5632 C.2     
   7 S7            -2.3315    -0.8859     1.4615 S.3     
   8 C8            -5.1123    -1.8969     0.7089 C.3     
   9 N9            -5.6091    -2.0680    -0.6595 N.2     
  10 C10           -4.6875    -1.7207    -1.4878 C.2     
  11 C11           -6.9408    -2.5568    -1.0255 C.3     
  12 C12           -7.1384    -3.9667    -0.4653 C.3     
  13 C13           -8.5291    -4.4772    -0.8475 C.3     
  14 C14           -9.5927    -3.5436    -0.2659 C.3     
  15 C15           -9.3951    -2.1337    -0.8261 C.3     
  16 C16           -8.0044    -1.6232    -0.4439 C.3     
  17 H17            1.0039     1.9031     0.0027 H       
  18 H18           -0.5459     1.8868    -0.8726 H       
  19 H19           -0.5289     1.8773     0.9072 H       
  20 H20            0.5123    -0.3556    -0.8948 H       
  21 H21            0.5293    -0.3651     0.8851 H       
  22 H22           -1.7571    -0.6339    -2.0737 H       
  23 H23           -5.1088    -2.8536     1.2313 H       
  24 H24           -5.7278    -1.1754     1.2462 H       
  25 H25           -4.7921    -1.7501    -2.5623 H       
  26 H26           -7.0332    -2.5810    -2.1113 H       
  27 H27           -6.3807    -4.6318    -0.8797 H       
  28 H28           -7.0460    -3.9425     0.6205 H       
  29 H29           -8.6215    -4.5014    -1.9333 H       
  30 H30           -8.6699    -5.4817    -0.4484 H       
  31 H31          -10.5835    -3.9073    -0.5382 H       
  32 H32           -9.5003    -3.5194     0.8199 H       
  33 H33           -9.4875    -2.1579    -1.9119 H       
  34 H34          -10.1528    -1.4686    -0.4118 H       
  35 H35           -7.9120    -1.5990     0.6419 H       
  36 H36           -7.8636    -0.6188    -0.8430 H       
@<TRIPOS>BOND
   1    1    2 1
   2    1   17 1
   3    1   18 1
   4    1   19 1
   5    2    3 1
   6    2   20 1
   7    2   21 1
   8    3    4 2
   9    3    7 1
  10    4    5 1
  11    4   22 1
  12    5    6 2
  13    5   10 1
  14    6    7 1
  15    6    8 1
  16    8    9 1
  17    8   23 1
  18    8   24 1
  19    9   10 2
  20    9   11 1
  21   10   25 1
  22   11   12 1
  23   11   16 1
  24   11   26 1
  25   12   13 1
  26   12   27 1
  27   12   28 1
  28   13   14 1
  29   13   29 1
  30   13   30 1
  31   14   15 1
  32   14   31 1
  33   14   32 1
  34   15   16 1
  35   15   33 1
  36   15   34 1
  37   16   35 1
  38   16   36 1

#	End of record

