#	Name: ASD10420109
#	Creating user name:	WinNT
#	Creation time:	15. 06. 2019 21:27

#	Modifying user name:	WinNT
#	Modification time:	15. 06. 2019 21:27

#	Program:	/corina/corina34_cracker 3.40 0067  02.08.2006

@<TRIPOS>MOLECULE
ASD10420109
  87   91    0    0    0
SMALL
NO_CHARGES


@<TRIPOS>ATOM
   1 N1             0.4442     0.1704     0.9128 N.pl3   
   2 C2             0.1677    -1.1524     0.6767 C.2     
   3 C3            -1.1783    -1.2526     0.2799 C.2     
   4 C4            -1.7033     0.0387     0.2831 C.2     
   5 C5            -0.6925     0.9013     0.6804 C.2     
   6 N6             1.7270     0.5545     1.3252 N.2     
   7 C7             2.6735    -0.3265     1.4913 C.2     
   8 C8             2.4330    -1.6985     1.2597 C.2     
   9 C9             1.1718    -2.1120     0.8500 C.2     
  10 C10           -0.8163     2.3537     0.8198 C.2     
  11 O11           -1.1659     2.8356     1.8816 O.2     
  12 C12           -3.1149     0.4265    -0.0746 C.3     
  13 C13           -3.9513     0.4889     1.1775 C.ar    
  14 C14           -4.3239     1.7135     1.6990 C.ar    
  15 C15           -4.3502    -0.6785     1.8008 C.ar    
  16 C16           -5.1176    -0.6228     2.9496 C.ar    
  17 C17           -5.4869     0.6004     3.4757 C.ar    
  18 C18           -1.9010    -2.4956    -0.0748 C.ar    
  19 C19           -2.1192    -3.4786     0.8906 C.ar    
  20 C20           -2.7932    -4.6345     0.5539 C.ar    
  21 C21           -3.2518    -4.8199    -0.7381 C.ar    
  22 C22           -3.0385    -3.8486    -1.7001 C.ar    
  23 C23           -2.3714    -2.6857    -1.3742 C.ar    
  24 C24           -3.8943     2.9861     1.0155 C.3     
  25 C25           -5.0922     1.7706     2.8492 C.ar    
  26 F26           -5.4523     2.9671     3.3629 F       
  27 C27            3.5139    -2.6859     1.4511 C.2     
  28 N28            4.1323    -3.2240     0.3812 N.am    
  29 O29            3.8461    -3.0137     2.5738 O.2     
  30 C30            5.1286    -4.2820     0.5664 C.3     
  31 C31            3.8084    -2.7507    -0.9668 C.3     
  32 N32           -0.5432     3.1569    -0.2274 N.am    
  33 C33           -0.5545     4.6202    -0.0795 C.3     
  34 C34            0.7598     5.1761    -0.6379 C.3     
  35 N35            0.9479     4.6921    -2.0121 N.3     
  36 C36            1.0754     3.2291    -2.0490 C.3     
  37 C37           -0.2200     2.5933    -1.5469 C.3     
  38 C38            0.7085     6.7052    -0.6377 C.3     
  39 C39            2.0440     7.2527    -1.0707 C.2     
  40 N40            2.2340     8.5849    -1.1456 N.am    
  41 O41            2.9480     6.4946    -1.3517 O.2     
  42 C42            1.1421     9.5008    -0.8061 C.3     
  43 C43            3.5323     9.1172    -1.5665 C.3     
  44 C44            3.5450     9.2879    -3.0869 C.3     
  45 O45            2.5892    10.2816    -3.4626 O.3     
  46 C46            2.5206    10.5193    -4.8700 C.3     
  47 H47            3.6536    -0.0030     1.8096 H       
  48 H48            0.9692    -3.1572     0.6683 H       
  49 H49           -3.1119     1.4031    -0.5586 H       
  50 H50           -3.5341    -0.3149    -0.7549 H       
  51 H51           -4.0626    -1.6350     1.3899 H       
  52 H52           -5.4287    -1.5356     3.4358 H       
  53 H53           -6.0869     0.6437     4.3727 H       
  54 H54           -1.7610    -3.3354     1.8994 H       
  55 H55           -2.9628    -5.3963     1.3005 H       
  56 H56           -3.7782    -5.7267    -0.9970 H       
  57 H57           -3.3990    -3.9991    -2.7070 H       
  58 H58           -2.2054    -1.9282    -2.1260 H       
  59 H59           -4.6587     3.2903     0.3004 H       
  60 H60           -3.7603     3.7709     1.7599 H       
  61 H61           -2.9534     2.8175     0.4918 H       
  62 H62            4.6355    -5.2538     0.5412 H       
  63 H63            5.8679    -4.2289    -0.2328 H       
  64 H64            5.6236    -4.1506     1.5286 H       
  65 H65            3.1218    -1.9067    -0.9004 H       
  66 H66            4.7223    -2.4368    -1.4711 H       
  67 H67            3.3399    -3.5565    -1.5320 H       
  68 H68           -1.3941     5.0379    -0.6351 H       
  69 H69           -0.6436     4.8810     0.9751 H       
  70 H70            1.5901     4.8396    -0.0169 H       
  71 H71            0.1988     5.0050    -2.6113 H       
  72 H72            1.2677     2.9065    -3.0722 H       
  73 H73            1.9013     2.9197    -1.4084 H       
  74 H74           -0.0880     1.5147    -1.4620 H       
  75 H75           -1.0268     2.8124    -2.2462 H       
  76 H76           -0.0639     7.0429    -1.3287 H       
  77 H77            0.4782     7.0609     0.3666 H       
  78 H78            1.1843     9.7383     0.2569 H       
  79 H79            1.2425    10.4173    -1.3875 H       
  80 H80            0.1870     9.0281    -1.0351 H       
  81 H81            3.7003    10.0836    -1.0910 H       
  82 H82            4.3214     8.4253    -1.2720 H       
  83 H83            4.5386     9.5992    -3.4093 H       
  84 H84            3.2893     8.3403    -3.5610 H       
  85 H85            3.4929    10.8561    -5.2294 H       
  86 H86            2.2437     9.5973    -5.3811 H       
  87 H87            1.7728    11.2859    -5.0730 H       
@<TRIPOS>BOND
   1    1    2 1
   2    1    6 1
   3    1    5 1
   4    2    3 2
   5    2    9 1
   6    3    4 1
   7    3   18 1
   8    4    5 2
   9    4   12 1
  10    5   10 1
  11    6    7 2
  12    7    8 1
  13    7   47 1
  14    8    9 2
  15    8   27 1
  16    9   48 1
  17   10   11 2
  18   10   32 am
  19   12   13 1
  20   12   49 1
  21   12   50 1
  22   13   14 ar
  23   13   15 ar
  24   14   24 1
  25   14   25 ar
  26   15   16 ar
  27   15   51 1
  28   16   17 ar
  29   16   52 1
  30   17   25 ar
  31   17   53 1
  32   18   19 ar
  33   18   23 ar
  34   19   20 ar
  35   19   54 1
  36   20   21 ar
  37   20   55 1
  38   21   22 ar
  39   21   56 1
  40   22   23 ar
  41   22   57 1
  42   23   58 1
  43   24   59 1
  44   24   60 1
  45   24   61 1
  46   25   26 1
  47   27   28 am
  48   27   29 2
  49   28   30 1
  50   28   31 1
  51   30   62 1
  52   30   63 1
  53   30   64 1
  54   31   65 1
  55   31   66 1
  56   31   67 1
  57   32   33 1
  58   32   37 1
  59   33   34 1
  60   33   68 1
  61   33   69 1
  62   34   35 1
  63   34   38 1
  64   34   70 1
  65   35   36 1
  66   35   71 1
  67   36   37 1
  68   36   72 1
  69   36   73 1
  70   37   74 1
  71   37   75 1
  72   38   39 1
  73   38   76 1
  74   38   77 1
  75   39   40 am
  76   39   41 2
  77   40   42 1
  78   40   43 1
  79   42   78 1
  80   42   79 1
  81   42   80 1
  82   43   44 1
  83   43   81 1
  84   43   82 1
  85   44   45 1
  86   44   83 1
  87   44   84 1
  88   45   46 1
  89   46   85 1
  90   46   86 1
  91   46   87 1

#	End of record

