#	Name: ASD10610032
#	Creating user name:	WinNT
#	Creation time:	15. 06. 2019 21:27

#	Modifying user name:	WinNT
#	Modification time:	15. 06. 2019 21:27

#	Program:	/corina/corina34_cracker 3.40 0067  02.08.2006

@<TRIPOS>MOLECULE
ASD10610032
  65   69    0    0    0
SMALL
NO_CHARGES


@<TRIPOS>ATOM
   1 C1            -0.6264    -0.7679     1.4914 C.2     
   2 N2            -0.0423    -0.2458     0.3947 N.am    
   3 O3            -0.0546    -1.6263     2.1339 O.2     
   4 O4            -1.8409    -0.3345     1.8782 O.3     
   5 C5             1.3250    -0.6327     0.0385 C.3     
   6 C6             1.6022    -2.1203    -0.1876 C.3     
   7 C7             1.5639    -1.1597    -1.3779 C.3     
   8 C8             2.4185     0.1909     0.6686 C.2     
   9 N9             2.2308     1.5079     0.8846 N.am    
  10 O10            3.4675    -0.3314     0.9813 O.2     
  11 C11            3.3306     2.3307     1.3943 C.3     
  12 C12            3.1296     3.8055     0.9865 C.3     
  13 C13            2.3706     4.3844     2.1992 C.3     
  14 C14            2.7742     3.5150     3.3711 C.ar    
  15 C15            2.6657     3.7410     4.7309 C.ar    
  16 C16            3.1110     2.7812     5.6365 C.ar    
  17 C17            3.6666     1.5927     5.1647 C.ar    
  18 C18            3.7710     1.3766     3.8073 C.ar    
  19 C19            3.3263     2.3339     2.9085 C.ar    
  20 C20            2.9952     3.0222     7.0946 C.ar    
  21 C21            2.4211     2.0482     7.9274 C.ar    
  22 C22            2.3178     2.2866     9.2973 C.ar    
  23 C23            2.7796     3.4774     9.8277 C.ar    
  24 C24            3.3454     4.4367     9.0048 C.ar    
  25 C25            3.4599     4.2123     7.6456 C.ar    
  26 O26            1.4803    -0.6795     5.9535 O.3     
  27 N27            1.9630     0.4244     6.0930 N.2     
  28 C28            1.9275     0.7742     7.3535 C.2     
  29 N29            1.3561    -0.2455     8.0344 N.2     
  30 C30            1.0789    -1.1569     7.1358 C.2     
  31 C31            0.4290    -2.4931     7.3873 C.3     
  32 F32            1.7665     1.3552    10.1059 F       
  33 Cl33           3.9202     5.9269     9.6849 Cl      
  34 C34           -2.4091    -0.9414     3.0686 C.3     
  35 C35           -1.4838    -0.6896     4.2608 C.3     
  36 C36           -3.7816    -0.3262     3.3493 C.3     
  37 C37           -2.5608    -2.4481     2.8501 C.3     
  38 H38           -0.5273     0.3861    -0.1588 H       
  39 H39            2.5755    -2.5032     0.1190 H       
  40 H40            0.7671    -2.8111    -0.0714 H       
  41 H41            0.7037    -1.2186    -2.0447 H       
  42 H42            2.5121    -0.9106    -1.8543 H       
  43 H43            1.3675     1.9111     0.7026 H       
  44 H44            4.2853     1.9614     1.0196 H       
  45 H45            4.0893     4.3055     0.8554 H       
  46 H46            2.5267     3.8784     0.0813 H       
  47 H47            2.6697     5.4179     2.3744 H       
  48 H48            1.2946     4.3237     2.0361 H       
  49 H49            2.2346     4.6633     5.0914 H       
  50 H50            4.0145     0.8437     5.8607 H       
  51 H51            4.2017     0.4561     3.4418 H       
  52 H52            2.6983     3.6603    10.8890 H       
  53 H53            3.9064     4.9631     7.0104 H       
  54 H54            0.3291    -3.0317     6.4449 H       
  55 H55            1.0453    -3.0734     8.0739 H       
  56 H56           -0.5576    -2.3406     7.8250 H       
  57 H57           -1.3758     0.3838     4.4165 H       
  58 H58           -1.9104    -1.1452     5.1544 H       
  59 H59           -0.5061    -1.1279     4.0608 H       
  60 H60           -4.4408    -0.5056     2.5000 H       
  61 H61           -4.2081    -0.7818     4.2429 H       
  62 H62           -3.6736     0.7472     3.5050 H       
  63 H63           -1.5830    -2.8865     2.6501 H       
  64 H64           -2.9873    -2.9038     3.7437 H       
  65 H65           -3.2200    -2.6276     2.0008 H       
@<TRIPOS>BOND
   1    1    2 am
   2    1    3 2
   3    1    4 1
   4    2    5 1
   5    2   38 1
   6    4   34 1
   7    5    6 1
   8    5    7 1
   9    5    8 1
  10    6    7 1
  11    6   39 1
  12    6   40 1
  13    7   41 1
  14    7   42 1
  15    8    9 am
  16    8   10 2
  17    9   11 1
  18    9   43 1
  19   11   12 1
  20   11   19 1
  21   11   44 1
  22   12   13 1
  23   12   45 1
  24   12   46 1
  25   13   14 1
  26   13   47 1
  27   13   48 1
  28   14   15 ar
  29   14   19 ar
  30   15   16 ar
  31   15   49 1
  32   16   17 ar
  33   16   20 1
  34   17   18 ar
  35   17   50 1
  36   18   19 ar
  37   18   51 1
  38   20   21 ar
  39   20   25 ar
  40   21   22 ar
  41   21   28 1
  42   22   23 ar
  43   22   32 1
  44   23   24 ar
  45   23   52 1
  46   24   25 ar
  47   24   33 1
  48   25   53 1
  49   26   27 1
  50   26   30 1
  51   27   28 2
  52   28   29 1
  53   29   30 2
  54   30   31 1
  55   31   54 1
  56   31   55 1
  57   31   56 1
  58   34   35 1
  59   34   37 1
  60   34   36 1
  61   35   57 1
  62   35   58 1
  63   35   59 1
  64   36   60 1
  65   36   61 1
  66   36   62 1
  67   37   63 1
  68   37   64 1
  69   37   65 1

#	End of record

