#	Name: ASD11650001
#	Creating user name:	WinNT
#	Creation time:	15. 06. 2019 21:29

#	Modifying user name:	WinNT
#	Modification time:	15. 06. 2019 21:29

#	Program:	/corina/corina34_cracker 3.40 0067  02.08.2006

@<TRIPOS>MOLECULE
ASD11650001
  28   30    0    0    0
SMALL
NO_CHARGES


@<TRIPOS>ATOM
   1 C1            -0.0202     1.3955    -0.1235 C.ar    
   2 C2             0.0020     0.0048    -0.0779 C.ar    
   3 C3            -1.1687    -0.6985    -0.0208 C.ar    
   4 C4            -2.3878    -0.0197    -0.0084 C.ar    
   5 C5            -2.4232     1.3837    -0.0541 C.ar    
   6 C6            -1.2254     2.0831    -0.1060 C.ar    
   7 C7            -3.7906    -0.4687     0.0468 C.2     
   8 C8            -4.5788     0.7841     0.0278 C.2     
   9 O9            -3.7052     1.8112    -0.0315 O.3     
  10 O10            1.1470     2.0853    -0.1800 O.3     
  11 *11           -1.2343     3.6422    -0.1570 Du      
  12 O12           -4.2068    -1.6113     0.0964 O.2     
  13 C13           -5.9363     0.8823     0.0635 C.2     
  14 C14           -6.5719     2.1944     0.1871 C.2     
  15 C15           -7.9440     2.2906     0.0950 C.2     
  16 C16           -8.5791     3.5481     0.2114 C.2     
  17 C17           -7.7365     4.7650     0.4358 C.2     
  18 C18           -6.2779     4.6060     0.5267 C.2     
  19 C19           -5.7335     3.3819     0.4129 C.2     
  20 O20           -8.2474     5.8611     0.5402 O.2     
  21 O21           -9.7884     3.6398     0.1304 O.2     
  22 H22            0.9460    -0.5198    -0.0879 H       
  23 H23           -1.1502    -1.7778     0.0142 H       
  24 H24            1.4599     2.2559    -1.0789 H       
  25 H25           -6.5440    -0.0083     0.0006 H       
  26 H26           -8.5359     1.4019    -0.0670 H       
  27 H27           -5.6470     5.4676     0.6878 H       
  28 H28           -4.6615     3.2694     0.4806 H       
@<TRIPOS>BOND
   1    1    2 ar
   2    1   10 1
   3    1    6 ar
   4    2    3 ar
   5    2   22 1
   6    3    4 ar
   7    3   23 1
   8    4    5 ar
   9    4    7 1
  10    5    6 ar
  11    5    9 1
  12    6   11 1
  13    7    8 1
  14    7   12 2
  15    8    9 1
  16    8   13 2
  17   10   24 1
  18   13   14 1
  19   13   25 1
  20   14   15 2
  21   14   19 1
  22   15   16 1
  23   15   26 1
  24   16   17 1
  25   16   21 2
  26   17   18 1
  27   17   20 2
  28   18   19 2
  29   18   27 1
  30   19   28 1

#	End of record

