#	Name: ASD15280025
#	Creating user name:	WinNT
#	Creation time:	15. 06. 2019 21:31

#	Modifying user name:	WinNT
#	Modification time:	15. 06. 2019 21:31

#	Program:	/corina/corina34_cracker 3.40 0067  02.08.2006

@<TRIPOS>MOLECULE
ASD15280025
  50   53    0    0    0
SMALL
NO_CHARGES


@<TRIPOS>ATOM
   1 C1             0.1059     1.4594     0.7300 C.3     
   2 N2             0.0906     0.0358     0.3845 N.am    
   3 C3            -1.1650    -0.6624     0.0592 C.3     
   4 H4            -1.1383    -0.9949    -0.9785 H       
   5 C5            -1.3216    -1.8730     0.9791 C.3     
   6 C6            -0.2155    -2.8955     0.7200 C.3     
   7 H7            -0.2134    -3.1700    -0.3348 H       
   8 N8             1.0857    -2.3047     1.0771 N.am    
   9 S9             1.4946    -0.8627     0.3356 S.o2    
  10 O10            1.7479    -1.1562    -1.0315 O.2     
  11 O11            2.4289    -0.2127     1.1864 O.2     
  12 C12           -0.4588    -4.1235     1.5591 C.2     
  13 C13           -1.0045    -5.2601     1.1176 C.2     
  14 C14           -1.1309    -6.2547     2.0657 C.2     
  15 C15           -0.6829    -5.9232     3.2929 C.2     
  16 S16           -0.0603    -4.2784     3.2649 S.3     
  17 C17           -0.7061    -6.8072     4.4778 C.ar    
  18 C18           -1.2168    -8.1021     4.3756 C.ar    
  19 C19           -1.2361    -8.9225     5.4842 C.ar    
  20 C20           -0.7501    -8.4632     6.6978 C.ar    
  21 F21           -0.7717    -9.2708     7.7807 F       
  22 C22           -0.2415    -7.1786     6.8047 C.ar    
  23 C23           -0.2121    -6.3518     5.7011 C.ar    
  24 C24           -2.3281     0.2751     0.2574 C.2     
  25 O25           -2.3243     1.0589     1.1831 O.2     
  26 N26           -3.3725     0.2427    -0.5939 N.am    
  27 C27           -4.5065     1.0242    -0.3409 C.ar    
  28 C28           -5.2325     1.5578    -1.3970 C.ar    
  29 C29           -6.3514     2.3283    -1.1460 C.ar    
  30 C30           -6.7494     2.5687     0.1578 C.ar    
  31 F31           -7.8442     3.3220     0.4010 F       
  32 C32           -6.0263     2.0371     1.2141 C.ar    
  33 Cl33          -6.5279     2.3396     2.8483 Cl      
  34 C34           -4.9096     1.2615     0.9666 C.ar    
  35 H35            1.1371     1.7972     0.8331 H       
  36 H36           -0.3862     2.0298    -0.0578 H       
  37 H37           -0.4218     1.6105     1.6717 H       
  38 H38           -1.2705    -1.5441     2.0171 H       
  39 H39           -2.2904    -2.3385     0.7981 H       
  40 H40            1.6796    -2.7349     1.7121 H       
  41 H41           -1.3235    -5.3909     0.0941 H       
  42 H42           -1.5557    -7.2222     1.8422 H       
  43 H43           -1.5965    -8.4608     3.4303 H       
  44 H44           -1.6311    -9.9247     5.4063 H       
  45 H45            0.1360    -6.8256     7.7530 H       
  46 H46            0.1886    -5.3523     5.7844 H       
  47 H47           -3.3385    -0.3220    -1.3818 H       
  48 H48           -4.9225     1.3711    -2.4146 H       
  49 H49           -6.9159     2.7437    -1.9677 H       
  50 H50           -4.3487     0.8435     1.7894 H       
@<TRIPOS>BOND
   1    1    2 1
   2    1   35 1
   3    1   36 1
   4    1   37 1
   5    2    9 am
   6    2    3 1
   7    3    4 1
   8    3    5 1
   9    3   24 1
  10    5    6 1
  11    5   38 1
  12    5   39 1
  13    6    7 1
  14    6    8 1
  15    6   12 1
  16    8    9 am
  17    8   40 1
  18    9   10 2
  19    9   11 2
  20   12   16 1
  21   12   13 2
  22   13   14 1
  23   13   41 1
  24   14   15 2
  25   14   42 1
  26   15   16 1
  27   15   17 1
  28   17   23 ar
  29   17   18 ar
  30   18   19 ar
  31   18   43 1
  32   19   20 ar
  33   19   44 1
  34   20   21 1
  35   20   22 ar
  36   22   23 ar
  37   22   45 1
  38   23   46 1
  39   24   25 2
  40   24   26 am
  41   26   27 1
  42   26   47 1
  43   27   34 ar
  44   27   28 ar
  45   28   29 ar
  46   28   48 1
  47   29   30 ar
  48   29   49 1
  49   30   31 1
  50   30   32 ar
  51   32   33 1
  52   32   34 ar
  53   34   50 1

#	End of record

