#	Name: ASD14640029
#	Creating user name:	WinNT
#	Creation time:	15. 06. 2019 21:31

#	Modifying user name:	WinNT
#	Modification time:	15. 06. 2019 21:31

#	Program:	/corina/corina34_cracker 3.40 0067  02.08.2006

@<TRIPOS>MOLECULE
ASD14640029
  55   59    0    0    0
SMALL
NO_CHARGES


@<TRIPOS>ATOM
   1 C1             0.1288     1.9053     0.3267 C.2     
   2 C2             0.2271     4.6185    -0.3282 C.2     
   3 C3             1.4914     6.7301    -0.7020 C.ar    
   4 C4            -2.1897     4.5985    -0.8254 C.3     
   5 C5             1.5212     8.0861    -0.9623 C.ar    
   6 C6             0.3254     8.7900    -1.1139 C.ar    
   7 C7             4.9985     0.3349     0.3517 C.ar    
   8 C8            -0.8899     8.1319    -0.9988 C.ar    
   9 C9             3.0280     1.2001     1.4223 C.ar    
  10 C10            4.2085     0.4848     1.4900 C.ar    
  11 C11           -2.2590     6.0920    -0.5988 C.3     
  12 C12            2.0029    10.1104    -1.7702 C.3     
  13 C13            3.4315     1.6271    -0.9222 C.ar    
  14 C14            4.6051     0.9077    -0.8498 C.ar    
  15 C15            6.9816    -0.3771    -0.7487 C.3     
  16 C16            3.7408     0.1205     3.7932 C.3     
  17 N17           -0.9941     3.9898    -0.2649 N.pl3   
  18 C18           -1.0712     2.7606     0.3704 C.2     
  19 C19            1.3706     2.5427     0.1358 C.2     
  20 C20            1.3944     3.9218    -0.1275 C.2     
  21 C21            0.2653     6.0704    -0.5908 C.ar    
  22 C22            2.6297     1.7714     0.2119 C.ar    
  23 C23           -0.9305     6.7756    -0.7344 C.ar    
  24 C24            0.0366     0.4843     0.4782 C.1     
  25 N25           -0.0366    -0.6429     0.5985 N.1     
  26 N26           -2.1656     2.3742     0.9842 N.2     
  27 O27            2.5618     8.9558    -1.1161 O.3     
  28 O28            0.6213    10.0980    -1.3660 O.3     
  29 O29            6.1589    -0.3685     0.4196 O.3     
  30 O30            4.5990    -0.0731     2.6671 O.3     
  31 C31            8.4351    -0.6361    -0.3471 C.3     
  32 C32            6.5099    -1.4817    -1.6966 C.3     
  33 H33            2.4140     6.1810    -0.5852 H       
  34 H34           -3.0697     4.1348    -0.3798 H       
  35 H35           -2.1997     4.4056    -1.8981 H       
  36 H36           -1.8113     8.6830    -1.1162 H       
  37 H37            2.4146     1.3168     2.3036 H       
  38 H38           -2.9571     6.5233    -1.3163 H       
  39 H39           -2.6335     6.2767     0.4080 H       
  40 H40            2.4943    11.0205    -1.4264 H       
  41 H41            2.0859    10.0147    -2.8528 H       
  42 H42            3.1256     2.0683    -1.8593 H       
  43 H43            5.2201     0.7897    -1.7297 H       
  44 H44            6.9098     0.5877    -1.2508 H       
  45 H45            4.1683    -0.3744     4.6652 H       
  46 H46            3.6398     1.1871     3.9939 H       
  47 H47            2.7597    -0.3035     3.5794 H       
  48 H48            2.3408     4.4398    -0.1772 H       
  49 H49           -2.1965     1.5093     1.4222 H       
  50 H50            9.0627    -0.6426    -1.2382 H       
  51 H51            8.7711     0.1508     0.3282 H       
  52 H52            8.5069    -1.6009     0.1550 H       
  53 H53            5.4745    -1.2972    -1.9828 H       
  54 H54            7.1375    -1.4882    -2.5878 H       
  55 H55            6.5818    -2.4465    -1.1945 H       
@<TRIPOS>BOND
   1    1   24 1
   2    1   19 2
   3    1   18 1
   4    2   20 2
   5    2   17 1
   6    2   21 1
   7    3   21 ar
   8    3   33 1
   9    3    5 ar
  10    4   11 1
  11    4   17 1
  12    4   34 1
  13    4   35 1
  14    5    6 ar
  15    5   27 1
  16    6    8 ar
  17    6   28 1
  18    7   10 ar
  19    7   29 1
  20    7   14 ar
  21    8   23 ar
  22    8   36 1
  23    9   10 ar
  24    9   37 1
  25    9   22 ar
  26   10   30 1
  27   11   38 1
  28   11   39 1
  29   11   23 1
  30   12   28 1
  31   12   27 1
  32   12   40 1
  33   12   41 1
  34   13   22 ar
  35   13   14 ar
  36   13   42 1
  37   14   43 1
  38   15   32 1
  39   15   31 1
  40   15   44 1
  41   15   29 1
  42   16   45 1
  43   16   46 1
  44   16   47 1
  45   16   30 1
  46   17   18 1
  47   18   26 2
  48   19   22 1
  49   19   20 1
  50   20   48 1
  51   21   23 ar
  52   24   25 3
  53   26   49 1
  54   31   50 1
  55   31   51 1
  56   31   52 1
  57   32   53 1
  58   32   54 1
  59   32   55 1

#	End of record

