#	Name: ASD10160198
#	Creating user name:	WinNT
#	Creation time:	15. 06. 2019 21:25

#	Modifying user name:	WinNT
#	Modification time:	15. 06. 2019 21:25

#	Program:	/corina/corina34_cracker 3.40 0067  02.08.2006

@<TRIPOS>MOLECULE
ASD10160198
  40   42    0    0    0
SMALL
NO_CHARGES


@<TRIPOS>ATOM
   1 C1            -0.0385     1.4700     0.0144 C.2     
   2 C2            -0.0131    -0.0043     0.0052 C.ar    
   3 C3             1.2025    -0.6847    -0.1324 C.ar    
   4 C4             1.2210    -2.0650    -0.1400 C.ar    
   5 C5             0.0366    -2.7778    -0.0118 C.ar    
   6 C6            -1.1747    -2.1047     0.1248 C.ar    
   7 C7            -1.2024    -0.7270     0.1397 C.ar    
   8 O8             0.9976     2.0967    -0.0977 O.2     
   9 N9            -1.2106     2.1230     0.1414 N.am    
  10 S10           -1.2391     3.7788     0.1517 S.o2    
  11 O11           -2.6115     4.1045     0.3244 O.2     
  12 O12           -0.2720     4.1398     1.1282 O.2     
  13 C13           -0.6765     4.2515    -1.5068 C.3     
  14 O14            0.0594    -4.1351    -0.0202 O.3     
  15 N15           -0.4622    -4.0663    -2.2718 N.ar    
  16 C16           -0.1514    -4.7680    -1.2005 C.ar    
  17 C17           -0.0363    -6.1658    -1.2714 C.ar    
  18 N18           -0.2355    -6.7961    -2.4042 N.ar    
  19 C19           -0.5521    -6.1030    -3.5050 C.ar    
  20 C20           -0.7703    -6.7528    -4.7314 C.ar    
  21 C21           -1.0907    -6.0227    -5.8349 C.ar    
  22 C22           -1.2063    -4.6360    -5.7677 C.ar    
  23 C23           -1.0020    -3.9725    -4.5966 C.ar    
  24 C24           -0.6696    -4.6924    -3.4367 C.ar    
  25 C25            0.3200    -6.9490    -0.0342 C.3     
  26 F26           -2.3243    -2.8037     0.2482 F       
  27 F27            2.3554     0.0083    -0.2580 F       
  28 H28            2.1582    -2.5912    -0.2460 H       
  29 H29           -2.1420    -0.2061     0.2505 H       
  30 H30           -2.0375     1.6232     0.2267 H       
  31 H31           -1.3552     3.8375    -2.2525 H       
  32 H32           -0.6642     5.3382    -1.5902 H       
  33 H33            0.3280     3.8629    -1.6741 H       
  34 H34           -0.6838    -7.8273    -4.7985 H       
  35 H35           -1.2573    -6.5257    -6.7759 H       
  36 H36           -1.4612    -4.0794    -6.6574 H       
  37 H37           -1.0946    -2.8971    -4.5594 H       
  38 H38           -0.5918    -7.2316     0.4920 H       
  39 H39            0.8688    -7.8470    -0.3182 H       
  40 H40            0.9407    -6.3350     0.6183 H       
@<TRIPOS>BOND
   1    1    2 1
   2    1    8 2
   3    1    9 am
   4    2    3 ar
   5    2    7 ar
   6    3    4 ar
   7    3   27 1
   8    4    5 ar
   9    4   28 1
  10    5    6 ar
  11    5   14 1
  12    6    7 ar
  13    6   26 1
  14    7   29 1
  15    9   10 am
  16    9   30 1
  17   10   11 2
  18   10   12 2
  19   10   13 1
  20   13   31 1
  21   13   32 1
  22   13   33 1
  23   14   16 1
  24   15   16 ar
  25   15   24 ar
  26   16   17 ar
  27   17   18 ar
  28   17   25 1
  29   18   19 ar
  30   19   20 ar
  31   19   24 ar
  32   20   21 ar
  33   20   34 1
  34   21   22 ar
  35   21   35 1
  36   22   23 ar
  37   22   36 1
  38   23   24 ar
  39   23   37 1
  40   25   38 1
  41   25   39 1
  42   25   40 1

#	End of record

