#	Name: ASD10160053
#	Creating user name:	WinNT
#	Creation time:	15. 06. 2019 21:25

#	Modifying user name:	WinNT
#	Modification time:	15. 06. 2019 21:25

#	Program:	/corina/corina34_cracker 3.40 0067  02.08.2006

@<TRIPOS>MOLECULE
ASD10160053
  42   43    0    0    0
SMALL
NO_CHARGES


@<TRIPOS>ATOM
   1 C1             0.1099     1.3989     0.8725 C.2     
   2 C2             0.0956    -0.0568     0.6382 C.ar    
   3 C3             0.2787    -0.9422     1.7075 C.ar    
   4 C4             0.2644    -2.3036     1.4819 C.ar    
   5 C5             0.0688    -2.7941     0.1971 C.ar    
   6 C6            -0.1129    -1.9168    -0.8669 C.ar    
   7 C7            -0.1064    -0.5575    -0.6512 C.ar    
   8 O8             0.2809     1.8323     1.9957 O.2     
   9 N9            -0.0610     2.2492    -0.1591 N.am    
  10 S10           -0.0449     3.8841     0.1040 S.o2    
  11 O11           -0.2763     4.4479    -1.1796 O.2     
  12 O12           -0.9688     4.0771     1.1663 O.2     
  13 C13            1.6458     4.2367     0.6589 C.3     
  14 F14            0.4694    -0.4648     2.9568 F       
  15 O15            0.0553    -4.1333    -0.0208 O.3     
  16 C16           -1.1857    -6.1670    -0.0138 C.ar    
  17 C17           -1.1320    -4.7864     0.0916 C.ar    
  18 C18           -2.3085    -4.0763     0.3146 C.ar    
  19 C19           -3.4944    -4.7829     0.4229 C.ar    
  20 C20           -3.4706    -6.1674     0.3062 C.ar    
  21 N21           -2.3338    -6.8083     0.0945 N.ar    
  22 O22           -4.6277    -6.8699     0.4113 O.3     
  23 C23           -4.5383    -8.2903     0.2825 C.3     
  24 C24           -5.6411    -8.9482     1.1143 C.3     
  25 C25           -4.7064    -8.6807    -1.1873 C.3     
  26 Cl26          -4.9918    -3.9498     0.7014 Cl      
  27 H27            0.4057    -2.9884     2.3050 H       
  28 H28           -0.2642    -2.3033    -1.8640 H       
  29 H29           -0.2525     0.1217    -1.4780 H       
  30 H30           -0.1934     1.9036    -1.0557 H       
  31 H31            2.3518     3.9426    -0.1178 H       
  32 H32            1.7479     5.3035     0.8576 H       
  33 H33            1.8535     3.6758     1.5701 H       
  34 H34           -0.2778    -6.7244    -0.1912 H       
  35 H35           -2.2964    -2.9998     0.4013 H       
  36 H36           -3.5647    -8.6269     0.6388 H       
  37 H37           -6.6147    -8.6117     0.7581 H       
  38 H38           -5.5729   -10.0316     1.0161 H       
  39 H39           -5.5213    -8.6701     2.1614 H       
  40 H40           -5.6800    -8.3441    -1.5435 H       
  41 H41           -3.9208    -8.2120    -1.7798 H       
  42 H42           -4.6382    -9.7641    -1.2855 H       
@<TRIPOS>BOND
   1    1    2 1
   2    1    8 2
   3    1    9 am
   4    2    3 ar
   5    2    7 ar
   6    3    4 ar
   7    3   14 1
   8    4    5 ar
   9    4   27 1
  10    5    6 ar
  11    5   15 1
  12    6    7 ar
  13    6   28 1
  14    7   29 1
  15    9   10 am
  16    9   30 1
  17   10   11 2
  18   10   12 2
  19   10   13 1
  20   13   31 1
  21   13   32 1
  22   13   33 1
  23   15   17 1
  24   16   17 ar
  25   16   21 ar
  26   16   34 1
  27   17   18 ar
  28   18   19 ar
  29   18   35 1
  30   19   20 ar
  31   19   26 1
  32   20   21 ar
  33   20   22 1
  34   22   23 1
  35   23   24 1
  36   23   25 1
  37   23   36 1
  38   24   37 1
  39   24   38 1
  40   24   39 1
  41   25   40 1
  42   25   41 1
  43   25   42 1

#	End of record

