#	Name: ASD10160152
#	Creating user name:	WinNT
#	Creation time:	15. 06. 2019 21:25

#	Modifying user name:	WinNT
#	Modification time:	15. 06. 2019 21:25

#	Program:	/corina/corina34_cracker 3.40 0067  02.08.2006

@<TRIPOS>MOLECULE
ASD10160152
  47   49    0    0    0
SMALL
NO_CHARGES


@<TRIPOS>ATOM
   1 C1            -2.2494    -2.6001     4.8236 C.2     
   2 C2            -1.6478    -3.0178     3.5439 C.ar    
   3 C3            -0.3217    -3.4644     3.5042 C.ar    
   4 C4             0.2370    -3.8543     2.3037 C.ar    
   5 C5            -0.5143    -3.8035     1.1372 C.ar    
   6 C6            -1.8339    -3.3598     1.1725 C.ar    
   7 C7            -2.4020    -2.9745     2.3673 C.ar    
   8 O8            -1.5934    -2.6433     5.8466 O.2     
   9 N9            -3.5246    -2.1653     4.8587 N.am    
  10 S10           -4.2002    -1.6961     6.2959 S.o2    
  11 O11           -5.5312    -1.3332     5.9555 O.2     
  12 O12           -3.9390    -2.7804     7.1764 O.2     
  13 C13           -3.2474    -0.2330     6.7878 C.3     
  14 F14           -2.5601    -3.3125     0.0343 F       
  15 F15            0.4102    -3.5132     4.6387 F       
  16 O16            0.0392    -4.1870    -0.0414 O.3     
  17 C17            2.3980    -3.8834    -0.1770 C.ar    
  18 C18            1.2955    -4.7069    -0.0174 C.ar    
  19 C19            1.4889    -6.0735     0.1684 C.ar    
  20 C20            2.7846    -6.5595     0.1865 C.ar    
  21 C21            3.8436    -5.6722     0.0195 C.ar    
  22 N22            3.6208    -4.3793    -0.1543 N.ar    
  23 N23            5.1520    -6.1498     0.0359 N.3     
  24 C24            5.8018    -5.9498    -1.2663 C.3     
  25 C25            5.9282    -5.5220     1.1135 C.3     
  26 C26            7.2700    -6.2420     1.2619 C.3     
  27 C27            8.2765    -5.6624     2.2577 C.3     
  28 C28            7.5418    -6.9644     2.5829 C.3     
  29 Cl29           3.0850    -8.2540     0.4150 Cl      
  30 H30            1.2600    -4.1990     2.2716 H       
  31 H31           -3.4270    -2.6352     2.3942 H       
  32 H32           -4.0466    -2.1271     4.0420 H       
  33 H33           -3.3434     0.5372     6.0225 H       
  34 H34           -3.6287     0.1471     7.7356 H       
  35 H35           -2.1978    -0.5040     6.9009 H       
  36 H36            2.2549    -2.8234    -0.3260 H       
  37 H37            0.6474    -6.7384     0.2957 H       
  38 H38            5.9115    -4.8823    -1.4575 H       
  39 H39            6.7850    -6.4203    -1.2578 H       
  40 H40            5.1911    -6.3984    -2.0498 H       
  41 H41            6.1032    -4.4736     0.8719 H       
  42 H42            5.3732    -5.5914     2.0491 H       
  43 H43            7.6652    -6.6921     0.3512 H       
  44 H44            9.3339    -5.7314     2.0024 H       
  45 H45            7.9828    -4.7680     2.8072 H       
  46 H46            6.7647    -6.9267     3.3463 H       
  47 H47            8.1159    -7.8901     2.5415 H       
@<TRIPOS>BOND
   1    1    2 1
   2    1    8 2
   3    1    9 am
   4    2    3 ar
   5    2    7 ar
   6    3    4 ar
   7    3   15 1
   8    4    5 ar
   9    4   30 1
  10    5    6 ar
  11    5   16 1
  12    6    7 ar
  13    6   14 1
  14    7   31 1
  15    9   10 am
  16    9   32 1
  17   10   11 2
  18   10   12 2
  19   10   13 1
  20   13   33 1
  21   13   34 1
  22   13   35 1
  23   16   18 1
  24   17   18 ar
  25   17   22 ar
  26   17   36 1
  27   18   19 ar
  28   19   20 ar
  29   19   37 1
  30   20   21 ar
  31   20   29 1
  32   21   22 ar
  33   21   23 1
  34   23   24 1
  35   23   25 1
  36   24   38 1
  37   24   39 1
  38   24   40 1
  39   25   26 1
  40   25   41 1
  41   25   42 1
  42   26   27 1
  43   26   28 1
  44   26   43 1
  45   27   28 1
  46   27   44 1
  47   27   45 1
  48   28   46 1
  49   28   47 1

#	End of record

