#	Name: ASD10220171
#	Creating user name:	WinNT
#	Creation time:	15. 06. 2019 21:26

#	Modifying user name:	WinNT
#	Modification time:	15. 06. 2019 21:26

#	Program:	/corina/corina34_cracker 3.40 0067  02.08.2006

@<TRIPOS>MOLECULE
ASD10220171
  32   34    0    0    0
SMALL
NO_CHARGES


@<TRIPOS>ATOM
   1 C1            -3.6255     0.4343    -3.7487 C.ar    
   2 C2            -3.0433    -0.7854    -3.4225 C.ar    
   3 C3            -2.7621    -1.1002    -2.1093 C.ar    
   4 C4            -3.0606    -0.1952    -1.0972 C.ar    
   5 C5            -3.6474     1.0349    -1.4265 C.ar    
   6 C6            -3.9238     1.3490    -2.7533 C.ar    
   7 O7            -2.9036    -0.2280     0.2433 O.3     
   8 C8            -3.3479     0.8974     0.8137 C.2     
   9 C9            -3.8280     1.7414    -0.1422 C.2     
  10 C10           -4.4047     3.0778     0.0623 C.2     
  11 O11           -3.6786     4.0223     0.3108 O.2     
  12 C12           -5.8646     3.2743    -0.0339 C.ar    
  13 O13           -3.8972     0.7314    -5.0476 O.3     
  14 C14           -6.4084     4.5565     0.0841 C.ar    
  15 C15           -7.7706     4.7354    -0.0061 C.ar    
  16 C16           -8.6049     3.6430    -0.2142 C.ar    
  17 C17           -8.0681     2.3661    -0.3315 C.ar    
  18 C18           -6.7064     2.1793    -0.2487 C.ar    
  19 Br19          -4.7152     3.0092    -3.1930 Br      
  20 Br20          -1.9706    -2.7645    -1.6854 Br      
  21 O21           -9.9470     3.8236    -0.3025 O.3     
  22 C22          -10.7457     2.6582    -0.5168 C.3     
  23 H23           -2.8094    -1.4928    -4.2043 H       
  24 H24           -3.3289     1.1058     1.8732 H       
  25 H25           -4.7779     0.4573    -5.3378 H       
  26 H26           -5.7610     5.4056     0.2460 H       
  27 H27           -8.1917     5.7258     0.0852 H       
  28 H28           -8.7196     1.5200    -0.4927 H       
  29 H29           -6.2901     1.1870    -0.3403 H       
  30 H30          -10.5977     1.9598     0.3068 H       
  31 H31          -11.7968     2.9425    -0.5678 H       
  32 H32          -10.4519     2.1835    -1.4530 H       
@<TRIPOS>BOND
   1    1    2 ar
   2    1   13 1
   3    1    6 ar
   4    2    3 ar
   5    2   23 1
   6    3    4 ar
   7    3   20 1
   8    4    5 ar
   9    4    7 1
  10    5    6 ar
  11    5    9 1
  12    6   19 1
  13    7    8 1
  14    8    9 2
  15    8   24 1
  16    9   10 1
  17   10   11 2
  18   10   12 1
  19   12   14 ar
  20   12   18 ar
  21   13   25 1
  22   14   15 ar
  23   14   26 1
  24   15   16 ar
  25   15   27 1
  26   16   17 ar
  27   16   21 1
  28   17   18 ar
  29   17   28 1
  30   18   29 1
  31   21   22 1
  32   22   30 1
  33   22   31 1
  34   22   32 1

#	End of record

