#	Name: ASD11030018
#	Creating user name:	WinNT
#	Creation time:	15. 06. 2019 21:29

#	Modifying user name:	WinNT
#	Modification time:	15. 06. 2019 21:29

#	Program:	/corina/corina34_cracker 3.40 0067  02.08.2006

@<TRIPOS>MOLECULE
ASD11030018
  37   40    0    0    0
SMALL
NO_CHARGES


@<TRIPOS>ATOM
   1 Cl1           -0.0686     0.1268     1.9065 Cl      
   2 C2            -0.0815     1.8435     1.6485 C.ar    
   3 C3             1.1046     2.5567     1.6946 C.ar    
   4 C4             1.1009     3.9206     1.4900 C.ar    
   5 C5            -0.1021     4.5822     1.2359 C.ar    
   6 C6            -1.2946     3.8576     1.1906 C.ar    
   7 C7            -1.2772     2.4932     1.3917 C.ar    
   8 C8            -0.1131     6.0432     1.0163 C.2     
   9 N9             0.9272     6.8290     1.0328 N.2     
  10 N10            0.7381     8.0582     0.8244 N.2     
  11 C11           -0.4926     8.4530     0.6067 C.2     
  12 S12           -1.5354     7.0311     0.6779 S.3     
  13 N13           -0.8929     9.7270     0.3649 N.2     
  14 C14           -0.0066    10.7013     0.3333 C.2     
  15 N15            1.3411    10.5838     0.5242 N.am    
  16 C16            2.0906    11.6714     0.4576 C.2     
  17 O17            3.2969    11.6422     0.6167 O.2     
  18 C18            1.3651    12.9154     0.1780 C.2     
  19 C19            1.8770    14.1663     0.0560 C.2     
  20 C20            0.9760    15.3225    -0.0404 C.ar    
  21 C21           -0.3542    15.2152     0.3807 C.ar    
  22 C22           -1.1932    16.3049     0.2874 C.ar    
  23 C23           -0.7247    17.5042    -0.2216 C.ar    
  24 C24            0.5884    17.6213    -0.6413 C.ar    
  25 C25            1.4452    16.5416    -0.5494 C.ar    
  26 F26            2.7273    16.6567    -0.9594 F       
  27 S27           -0.3307    12.4163     0.0275 S.3     
  28 H28            2.0345     2.0438     1.8916 H       
  29 H29            2.0266     4.4758     1.5266 H       
  30 H30           -2.2283     4.3638     0.9946 H       
  31 H31           -2.1991     1.9315     1.3569 H       
  32 H32            1.7407     9.7188     0.7055 H       
  33 H33            2.9469    14.3118     0.0298 H       
  34 H34           -0.7227    14.2808     0.7776 H       
  35 H35           -2.2199    16.2228     0.6123 H       
  36 H36           -1.3884    18.3533    -0.2918 H       
  37 H37            0.9456    18.5603    -1.0378 H       
@<TRIPOS>BOND
   1    1    2 1
   2    2    3 ar
   3    2    7 ar
   4    3    4 ar
   5    3   28 1
   6    4    5 ar
   7    4   29 1
   8    5    6 ar
   9    5    8 1
  10    6    7 ar
  11    6   30 1
  12    7   31 1
  13    8    9 2
  14    8   12 1
  15    9   10 1
  16   10   11 2
  17   11   12 1
  18   11   13 1
  19   13   14 2
  20   14   15 1
  21   14   27 1
  22   15   16 am
  23   15   32 1
  24   16   17 2
  25   16   18 1
  26   18   19 2
  27   18   27 1
  28   19   20 1
  29   19   33 1
  30   20   21 ar
  31   20   25 ar
  32   21   22 ar
  33   21   34 1
  34   22   23 ar
  35   22   35 1
  36   23   24 ar
  37   23   36 1
  38   24   25 ar
  39   24   37 1
  40   25   26 1

#	End of record

