#	Name: ASD10220177
#	Creating user name:	WinNT
#	Creation time:	15. 06. 2019 21:26

#	Modifying user name:	WinNT
#	Modification time:	15. 06. 2019 21:26

#	Program:	/corina/corina34_cracker 3.40 0067  02.08.2006

@<TRIPOS>MOLECULE
ASD10220177
  36   38    0    0    0
SMALL
NO_CHARGES


@<TRIPOS>ATOM
   1 C1             0.0083     1.4870     0.3967 C.ar    
   2 C2             0.0602     0.2193     0.9677 C.ar    
   3 C3            -1.0972    -0.4215     1.3602 C.ar    
   4 C4            -2.3289     0.1992     1.1870 C.ar    
   5 C5            -2.3798     1.4769     0.6119 C.ar    
   6 C6            -1.2094     2.1198     0.2227 C.ar    
   7 O7            -3.5956    -0.1739     1.4681 O.3     
   8 C8            -4.4721     0.7731     1.1159 C.2     
   9 C9            -3.8120     1.8357     0.5756 C.2     
  10 C10           -4.4026     3.0805     0.0639 C.2     
  11 O11           -3.6821     3.9943    -0.2923 O.2     
  12 C12           -5.8697     3.2224    -0.0180 C.ar    
  13 C13           -6.6718     2.0963    -0.2191 C.ar    
  14 C14           -8.0414     2.2304    -0.2948 C.ar    
  15 C15           -8.6271     3.4829    -0.1716 C.ar    
  16 C16           -7.8324     4.6112     0.0289 C.ar    
  17 C17           -6.4599     4.4831     0.1114 C.ar    
  18 O18            1.1565     2.1071     0.0144 O.3     
  19 Br19           1.7310    -0.6331     1.2074 Br      
  20 Br20          -1.0076    -2.1449     2.1333 Br      
  21 O21           -9.9771     3.6097    -0.2470 O.3     
  22 C22          -10.7306     2.4133    -0.4540 C.3     
  23 O23           -8.4094     5.8369     0.1488 O.3     
  24 C24           -7.5349     6.9485     0.3525 C.3     
  25 H25           -1.2517     3.1041    -0.2197 H       
  26 H26           -5.5428     0.7055     1.2406 H       
  27 H27           -6.2186     1.1208    -0.3156 H       
  28 H28           -8.6602     1.3592    -0.4507 H       
  29 H29           -5.8433     5.3560     0.2670 H       
  30 H30            1.4182     1.9225    -0.8980 H       
  31 H31          -11.7926     2.6553    -0.4947 H       
  32 H32          -10.4271     1.9507    -1.3931 H       
  33 H33          -10.5469     1.7214     0.3680 H       
  34 H34           -6.8478     7.0294    -0.4898 H       
  35 H35           -8.1223     7.8633     0.4313 H       
  36 H36           -6.9674     6.8008     1.2713 H       
@<TRIPOS>BOND
   1    1    2 ar
   2    1   18 1
   3    1    6 ar
   4    2    3 ar
   5    2   19 1
   6    3    4 ar
   7    3   20 1
   8    4    5 ar
   9    4    7 1
  10    5    6 ar
  11    5    9 1
  12    6   25 1
  13    7    8 1
  14    8    9 2
  15    8   26 1
  16    9   10 1
  17   10   11 2
  18   10   12 1
  19   12   13 ar
  20   12   17 ar
  21   13   14 ar
  22   13   27 1
  23   14   15 ar
  24   14   28 1
  25   15   16 ar
  26   15   21 1
  27   16   17 ar
  28   16   23 1
  29   17   29 1
  30   18   30 1
  31   21   22 1
  32   22   31 1
  33   22   32 1
  34   22   33 1
  35   23   24 1
  36   24   34 1
  37   24   35 1
  38   24   36 1

#	End of record

