#	Name: ASD11940005
#	Creating user name:	WinNT
#	Creation time:	15. 06. 2019 21:29

#	Modifying user name:	WinNT
#	Modification time:	15. 06. 2019 21:29

#	Program:	/corina/corina34_cracker 3.40 0067  02.08.2006

@<TRIPOS>MOLECULE
ASD11940005
  34   35    0    0    0
SMALL
NO_CHARGES


@<TRIPOS>ATOM
   1 C1            -0.0157     1.3088     0.0092 C.2     
   2 N2             0.0021    -0.0041     0.0020 N.2     
   3 C3             1.4256     1.6502    -0.0027 C.2     
   4 N4             1.9988     0.4654    -0.0145 N.2     
   5 O5             1.1466    -0.3916    -0.0110 O.3     
   6 N6            -1.1101     2.1623     0.0194 N.pl3   
   7 C7             2.0612     2.9870    -0.0020 C.2     
   8 C8             3.5335     3.1048    -0.0153 C.ar    
   9 O9             1.3717     3.9876     0.0096 O.2     
  10 C10            4.3288     1.9562    -0.0286 C.ar    
  11 C11            5.7036     2.0705    -0.0416 C.ar    
  12 C12            6.2982     3.3189    -0.0414 C.ar    
  13 C13            5.5163     4.4667    -0.0282 C.ar    
  14 C14            4.1360     4.3648    -0.0206 C.ar    
  15 O15            6.1068     5.6908    -0.0277 O.3     
  16 C16            7.5354     5.7219    -0.0411 C.3     
  17 C17            8.0068     7.1533    -0.0384 C.2     
  18 O18            9.3207     7.4272    -0.0495 O.3     
  19 O19            7.2019     8.0543    -0.0263 O.2     
  20 C20            9.7021     8.8282    -0.0461 C.3     
  21 C21           11.2278     8.9415    -0.0600 C.3     
  22 H22           -2.0092     1.7982     0.0223 H       
  23 H23           -0.9760     3.1230     0.0236 H       
  24 H24            3.8676     0.9796    -0.0284 H       
  25 H25            6.3174     1.1819    -0.0515 H       
  26 H26            7.3750     3.4017    -0.0512 H       
  27 H27            3.5269     5.2566    -0.0103 H       
  28 H28            7.9182     5.2116     0.8428 H       
  29 H29            7.9014     5.2206    -0.9371 H       
  30 H30            9.2933     9.3182    -0.9298 H       
  31 H31            9.3102     9.3093     0.8501 H       
  32 H32           11.5141     9.9933    -0.0574 H       
  33 H33           11.6366     8.4516     0.8237 H       
  34 H34           11.6197     8.4605    -0.9561 H       
@<TRIPOS>BOND
   1    1    2 2
   2    1    3 1
   3    1    6 1
   4    2    5 1
   5    3    4 2
   6    3    7 1
   7    4    5 1
   8    6   22 1
   9    6   23 1
  10    7    8 1
  11    7    9 2
  12    8   10 ar
  13    8   14 ar
  14   10   11 ar
  15   10   24 1
  16   11   12 ar
  17   11   25 1
  18   12   13 ar
  19   12   26 1
  20   13   14 ar
  21   13   15 1
  22   14   27 1
  23   15   16 1
  24   16   17 1
  25   16   28 1
  26   16   29 1
  27   17   18 1
  28   17   19 2
  29   18   20 1
  30   20   21 1
  31   20   30 1
  32   20   31 1
  33   21   32 1
  34   21   33 1
  35   21   34 1

#	End of record

