#	Name: ASD10238001
#	Creating user name:	WinNT
#	Creation time:	15. 06. 2019 21:26

#	Modifying user name:	WinNT
#	Modification time:	15. 06. 2019 21:26

#	Program:	/corina/corina34_cracker 3.40 0067  02.08.2006

@<TRIPOS>MOLECULE
ASD10238001
  45   48    0    0    0
SMALL
NO_CHARGES


@<TRIPOS>ATOM
   1 P1            -0.0180     1.4758     0.0102 P.3     
   2 O2             0.0021    -0.0041     0.0020 O.2     
   3 O3             1.4924     2.0330    -0.0013 O.3     
   4 O4            -1.6956     0.2531     3.0739 O.3     
   5 O5            -0.7967     2.0091    -1.2942 O.3     
   6 O6            -0.7716     1.9950     1.3348 O.3     
   7 P7            -2.0773     1.5092     2.1417 P.3     
   8 O8            -3.1301     1.1090     1.1816 O.2     
   9 O9            -2.6194     2.7146     3.0611 O.3     
  10 C10           -3.8270     2.6317     3.8206 C.3     
  11 O11           -5.1431     5.8541     6.7922 O.3     
  12 P12           -5.2772     4.5430     7.7562 P.3     
  13 O13           -5.0551     3.3194     6.7047 O.3     
  14 C14           -5.3411     3.8789     5.4182 C.3     
  15 C15           -5.7235     5.3729     5.5553 C.3     
  16 O16           -4.2983     5.0260     3.6532 O.3     
  17 C17           -4.0455     3.9443     4.5759 C.3     
  18 C18           -4.9789     6.0560     4.3890 C.3     
  19 O19           -4.2245     4.5427     8.7964 O.2     
  20 O20           -6.7406     4.4681     8.4233 O.3     
  21 N21           -7.3119     7.1071     1.8635 N.2     
  22 C22           -6.5088     6.2282     2.3881 C.2     
  23 N23           -5.9383     6.7392     3.5178 N.pl3   
  24 C24           -6.4263     8.0064     3.6880 C.2     
  25 N25           -6.2305     8.9670     4.5987 N.2     
  26 C26           -6.8505    10.1226     4.5112 C.2     
  27 N27           -7.7177    10.3999     3.4968 N.am    
  28 C28           -7.9661     9.4782     2.5401 C.2     
  29 C29           -7.3051     8.2303     2.6220 C.2     
  30 O30           -8.7407     9.7164     1.6293 O.2     
  31 N31           -6.6184    11.0775     5.4691 N.pl3   
  32 H32           -6.1240     3.3160     4.9100 H       
  33 H33           -6.8015     5.5300     5.5170 H       
  34 H34            2.0070     1.7589    -0.7727 H       
  35 H35           -1.0099     0.4433     3.7286 H       
  36 H36           -0.8486     2.9728    -1.3546 H       
  37 H37           -4.6671     2.4547     3.1491 H       
  38 H38           -3.7522     1.8105     4.5334 H       
  39 H39           -3.1874     4.1718     5.2084 H       
  40 H40           -4.2556     6.7717     4.7798 H       
  41 H41           -6.9625     5.2332     8.9716 H       
  42 H42           -6.3217     5.2421     1.9894 H       
  43 H43           -8.1589    11.2630     3.4615 H       
  44 H44           -6.0041    10.8947     6.1972 H       
  45 H45           -7.0685    11.9352     5.4180 H       
@<TRIPOS>BOND
   1    1    2 2
   2    1    3 1
   3    1    5 1
   4    1    6 1
   5    3   34 1
   6    4    7 1
   7    4   35 1
   8    5   36 1
   9    6    7 1
  10    7    8 2
  11    7    9 1
  12    9   10 1
  13   10   17 1
  14   10   37 1
  15   10   38 1
  16   11   12 1
  17   11   15 1
  18   12   13 1
  19   12   19 2
  20   12   20 1
  21   13   14 1
  22   14   15 1
  23   14   32 1
  24   14   17 1
  25   15   33 1
  26   15   18 1
  27   16   17 1
  28   16   18 1
  29   17   39 1
  30   18   23 1
  31   18   40 1
  32   20   41 1
  33   21   22 2
  34   21   29 1
  35   22   23 1
  36   22   42 1
  37   23   24 1
  38   24   25 1
  39   24   29 2
  40   25   26 2
  41   26   27 1
  42   26   31 1
  43   27   28 am
  44   27   43 1
  45   28   29 1
  46   28   30 2
  47   31   44 1
  48   31   45 1

#	End of record

