#	Name: ASD10410108
#	Creating user name:	WinNT
#	Creation time:	15. 06. 2019 21:26

#	Modifying user name:	WinNT
#	Modification time:	15. 06. 2019 21:26

#	Program:	/corina/corina34_cracker 3.40 0067  02.08.2006

@<TRIPOS>MOLECULE
ASD10410108
  67   73    0    0    0
SMALL
NO_CHARGES


@<TRIPOS>ATOM
   1 C1             0.1290     1.0966     0.4353 C.ar    
   2 C2             0.1931    -0.2820     0.2812 C.ar    
   3 C3             1.4203    -0.9031     0.0896 C.ar    
   4 C4             2.5769    -0.1498     0.0524 C.ar    
   5 C5             2.5129     1.2289     0.2065 C.ar    
   6 C6             1.2856     1.8500     0.3981 C.ar    
   7 N7             3.6859     1.9929     0.1687 N.pl3   
   8 C8             3.6554     3.2929    -0.3352 C.2     
   9 N9             4.6616     4.1337    -0.3305 N.2     
  10 N10            2.5962     3.8790    -0.9057 N.2     
  11 C11            2.9091     5.1043    -1.2689 C.2     
  12 N12            4.2077     5.3205    -0.9283 N.pl3   
  13 C13            4.9413     6.4871    -1.1313 C.ar    
  14 N14            2.0691     6.0087    -1.8893 N.pl3   
  15 N15           -0.9793    -1.0457     0.3195 N.3     
  16 C16           -0.6839    -2.4736     0.1364 C.3     
  17 C17           -1.9785    -3.2800     0.2638 C.3     
  18 N18           -2.9447    -2.8122    -0.7398 N.3     
  19 C19           -3.2401    -1.3843    -0.5567 C.3     
  20 C20           -1.9455    -0.5779    -0.6841 C.3     
  21 N21            4.3837     7.5418    -1.7119 N.ar    
  22 C22            5.0752     8.6515    -1.9065 C.ar    
  23 N23            6.3291     8.7733    -1.5447 N.ar    
  24 C24            6.9851     7.7542    -0.9456 C.ar    
  25 C25            6.2797     6.5681    -0.7200 C.ar    
  26 C26            8.3105     7.6857    -0.4884 C.2     
  27 C27            8.6707     6.5377     0.0633 C.2     
  28 S28            7.3334     5.4001     0.0637 S.3     
  29 C29            9.2635     8.8459    -0.6180 C.3     
  30 Cl30           4.2926     9.9992    -2.6713 Cl      
  31 C31           -5.1780    -3.1152    -1.7651 C.3     
  32 C32           -5.3896    -4.3376    -2.7098 C.3     
  33 C33           -6.1997    -5.3576    -1.8526 C.3     
  34 C34           -5.1969    -5.8561    -0.7871 C.3     
  35 C35           -4.1751    -3.6137    -0.6996 C.3     
  36 C36           -3.8753    -5.0903    -1.1008 C.3     
  37 C37           -3.9627    -4.9895    -2.6647 C.3     
  38 H38           -0.8259     1.5800     0.5799 H       
  39 H39            1.4702    -1.9753    -0.0298 H       
  40 H40            3.5314    -0.6328    -0.0963 H       
  41 H41            1.2357     2.9222     0.5176 H       
  42 H42            4.5196     1.6179     0.4930 H       
  43 H43            1.1545     5.7592    -2.0947 H       
  44 H44            2.3938     6.8933    -2.1194 H       
  45 H45           -0.2526    -2.6319    -0.8520 H       
  46 H46            0.0238    -2.7992     0.8988 H       
  47 H47           -1.7664    -4.3365     0.0996 H       
  48 H48           -2.3955    -3.1432     1.2615 H       
  49 H49           -3.9478    -1.0587    -1.3191 H       
  50 H50           -3.6714    -1.2260     0.4317 H       
  51 H51           -2.1576     0.4786    -0.5199 H       
  52 H52           -1.5286    -0.7147    -1.6818 H       
  53 H53            9.6529     6.3299     0.4613 H       
  54 H54            9.1941     9.4740     0.2701 H       
  55 H55           10.2817     8.4702    -0.7187 H       
  56 H56            9.0039     9.4326    -1.4992 H       
  57 H57           -4.7581    -2.2754    -2.3188 H       
  58 H58           -6.1197    -2.8296    -1.2964 H       
  59 H59           -5.7978    -4.1132    -3.6952 H       
  60 H60           -7.0471    -4.8649    -1.3758 H       
  61 H61           -6.5406    -6.1877    -2.4714 H       
  62 H62           -5.5512    -5.6085     0.2135 H       
  63 H63           -5.0447    -6.9313    -0.8821 H       
  64 H64           -4.6231    -3.5713     0.2931 H       
  65 H65           -2.9646    -5.5215    -0.6851 H       
  66 H66           -3.9463    -5.9707    -3.1391 H       
  67 H67           -3.1985    -4.3294    -3.0751 H       
@<TRIPOS>BOND
   1    1    2 ar
   2    1    6 ar
   3    1   38 1
   4    2    3 ar
   5    2   15 1
   6    3    4 ar
   7    3   39 1
   8    4    5 ar
   9    4   40 1
  10    5    6 ar
  11    5    7 1
  12    6   41 1
  13    7    8 1
  14    7   42 1
  15    8    9 2
  16    8   10 1
  17    9   12 1
  18   10   11 2
  19   11   12 1
  20   11   14 1
  21   12   13 1
  22   13   21 ar
  23   13   25 ar
  24   14   43 1
  25   14   44 1
  26   15   16 1
  27   15   20 1
  28   16   17 1
  29   16   45 1
  30   16   46 1
  31   17   18 1
  32   17   47 1
  33   17   48 1
  34   18   19 1
  35   18   35 1
  36   19   20 1
  37   19   49 1
  38   19   50 1
  39   20   51 1
  40   20   52 1
  41   21   22 ar
  42   22   23 ar
  43   22   30 1
  44   23   24 ar
  45   24   25 ar
  46   24   26 1
  47   25   28 1
  48   26   27 2
  49   26   29 1
  50   27   28 1
  51   27   53 1
  52   29   54 1
  53   29   55 1
  54   29   56 1
  55   31   35 1
  56   31   32 1
  57   31   57 1
  58   31   58 1
  59   32   33 1
  60   32   37 1
  61   32   59 1
  62   33   34 1
  63   33   60 1
  64   33   61 1
  65   34   36 1
  66   34   62 1
  67   34   63 1
  68   35   36 1
  69   35   64 1
  70   36   37 1
  71   36   65 1
  72   37   66 1
  73   37   67 1

#	End of record

