#	Name: ASD10160412
#	Creating user name:	WinNT
#	Creation time:	15. 06. 2019 21:25

#	Modifying user name:	WinNT
#	Modification time:	15. 06. 2019 21:25

#	Program:	/corina/corina34_cracker 3.40 0067  02.08.2006

@<TRIPOS>MOLECULE
ASD10160412
  47   48    0    0    0
SMALL
NO_CHARGES


@<TRIPOS>ATOM
   1 C1             0.3943     1.3996     0.7840 C.2     
   2 C2             0.3060    -0.0540     0.5727 C.ar    
   3 C3             0.8465    -0.9364     1.5176 C.ar    
   4 C4             0.7602    -2.2979     1.3140 C.ar    
   5 C5             0.1391    -2.7950     0.1744 C.ar    
   6 C6            -0.3990    -1.9250    -0.7665 C.ar    
   7 C7            -0.3241    -0.5616    -0.5715 C.ar    
   8 O8             1.3515     2.0181     0.3616 O.2     
   9 O9            -0.5891     2.0460     1.4412 O.3     
  10 F10           -0.8521     0.2828    -1.4844 F       
  11 F11            1.4513    -0.4546     2.6254 F       
  12 O12            0.0580    -4.1353    -0.0207 O.3     
  13 C13           -1.0963    -6.1728     0.4181 C.ar    
  14 C14           -1.0161    -4.7914     0.4937 C.ar    
  15 C15           -2.0485    -4.0838     1.1030 C.ar    
  16 C16           -3.1226    -4.7934     1.6133 C.ar    
  17 C17           -3.1337    -6.1785     1.5007 C.ar    
  18 N18           -2.1351    -6.8169     0.9152 N.ar    
  19 O19           -4.1820    -6.8839     1.9976 O.3     
  20 C20           -4.1355    -8.3047     1.8514 C.3     
  21 C21           -3.4437    -8.9204     3.0693 C.3     
  22 C22           -5.5597    -8.8530     1.7424 C.3     
  23 Cl23          -4.4381    -3.9635     2.3843 Cl      
  24 C24           -0.4354     3.4796     1.6130 C.3     
  25 C25           -0.3474     4.1511     0.2410 C.3     
  26 C26           -1.6404     4.0338     2.3758 C.3     
  27 C27            0.8434     3.7644     2.4032 C.3     
  28 H28            1.1763    -2.9790     2.0415 H       
  29 H29           -0.8801    -2.3174    -1.6502 H       
  30 H30           -0.3014    -6.7283    -0.0571 H       
  31 H31           -2.0125    -3.0069     1.1764 H       
  32 H32           -3.5783    -8.5591     0.9498 H       
  33 H33           -2.4291    -8.5297     3.1469 H       
  34 H34           -4.0010    -8.6660     3.9709 H       
  35 H35           -3.4083   -10.0041     2.9577 H       
  36 H36           -6.0525    -8.4144     0.8748 H       
  37 H37           -5.5243    -9.9367     1.6309 H       
  38 H38           -6.1170    -8.5986     2.6440 H       
  39 H39           -1.2585     3.9482    -0.3219 H       
  40 H40           -0.2321     5.2273     0.3700 H       
  41 H41            0.5110     3.7562    -0.3024 H       
  42 H42           -1.7030     3.5555     3.3532 H       
  43 H43           -1.5250     5.1100     2.5047 H       
  44 H44           -2.5514     3.8309     1.8128 H       
  45 H45            1.7018     3.3695     1.8598 H       
  46 H46            0.9587     4.8406     2.5321 H       
  47 H47            0.7807     3.2860     3.3806 H       
@<TRIPOS>BOND
   1    1    2 1
   2    1    8 2
   3    1    9 1
   4    2    3 ar
   5    2    7 ar
   6    3    4 ar
   7    3   11 1
   8    4    5 ar
   9    4   28 1
  10    5    6 ar
  11    5   12 1
  12    6    7 ar
  13    6   29 1
  14    7   10 1
  15    9   24 1
  16   12   14 1
  17   13   14 ar
  18   13   18 ar
  19   13   30 1
  20   14   15 ar
  21   15   16 ar
  22   15   31 1
  23   16   17 ar
  24   16   23 1
  25   17   18 ar
  26   17   19 1
  27   19   20 1
  28   20   21 1
  29   20   22 1
  30   20   32 1
  31   21   33 1
  32   21   34 1
  33   21   35 1
  34   22   36 1
  35   22   37 1
  36   22   38 1
  37   24   25 1
  38   24   27 1
  39   24   26 1
  40   25   39 1
  41   25   40 1
  42   25   41 1
  43   26   42 1
  44   26   43 1
  45   26   44 1
  46   27   45 1
  47   27   46 1
  48   27   47 1

#	End of record

