#	Name: ASD11000267
#	Creating user name:	WinNT
#	Creation time:	15. 06. 2019 21:29

#	Modifying user name:	WinNT
#	Modification time:	15. 06. 2019 21:29

#	Program:	/corina/corina34_cracker 3.40 0067  02.08.2006

@<TRIPOS>MOLECULE
ASD11000267
  38   39    0    0    0
SMALL
NO_CHARGES


@<TRIPOS>ATOM
   1 O1            -0.0161     1.3380     0.0094 O.3     
   2 C2             0.0021    -0.0041     0.0020 C.2     
   3 N3             1.2787    -0.4359    -0.0125 N.am    
   4 C4             2.1026     0.6918    -0.0143 C.ar    
   5 C5             1.2577     1.8017    -0.0003 C.ar    
   6 C6             1.7978     3.0777     0.0010 C.ar    
   7 C7             3.1735     3.2450    -0.0116 C.ar    
   8 C8             4.0114     2.1384    -0.0256 C.ar    
   9 C9             3.4774     0.8643    -0.0261 C.ar    
  10 O10           -0.9811    -0.7196     0.0079 O.2     
  11 C11            1.7211    -1.8325    -0.0235 C.3     
  12 O12            1.5204    -2.3855    -1.3258 O.3     
  13 C13            2.5356    -2.0355    -2.2686 C.3     
  14 C14            2.2198    -2.6790    -3.6204 C.3     
  15 Si15           3.5433    -2.2227    -4.8496 Si      
  16 C16            5.1941    -2.8352    -4.2407 C.3     
  17 C17            3.1589    -3.0062    -6.4955 C.3     
  18 C18            3.6005    -0.3705    -5.0417 C.3     
  19 O19            3.7040     4.4969    -0.0108 O.3     
  20 H20            1.1479     3.9402     0.0115 H       
  21 H21            5.0828     2.2737    -0.0357 H       
  22 H22            4.1303     0.0042    -0.0367 H       
  23 H23            2.7795    -1.8804     0.2324 H       
  24 H24            1.1449    -2.4019     0.7058 H       
  25 H25            2.5690    -0.9519    -2.3810 H       
  26 H26            3.5014    -2.3939    -1.9124 H       
  27 H27            2.1864    -3.7627    -3.5080 H       
  28 H28            1.2540    -2.3207    -3.9766 H       
  29 H29            5.1606    -3.9188    -4.1283 H       
  30 H30            5.9684    -2.5682    -4.9599 H       
  31 H31            5.4190    -2.3768    -3.2777 H       
  32 H32            2.1931    -2.6479    -6.8517 H       
  33 H33            3.9332    -2.7393    -7.2147 H       
  34 H34            3.1254    -4.0899    -6.3831 H       
  35 H35            3.8254     0.0879    -4.0787 H       
  36 H36            4.3748    -0.1036    -5.7609 H       
  37 H37            2.6347    -0.0122    -5.3979 H       
  38 H38            3.8661     4.8549     0.8728 H       
@<TRIPOS>BOND
   1    1    2 1
   2    1    5 1
   3    2    3 am
   4    2   10 2
   5    3    4 1
   6    3   11 1
   7    4    5 ar
   8    4    9 ar
   9    5    6 ar
  10    6    7 ar
  11    6   20 1
  12    7    8 ar
  13    7   19 1
  14    8    9 ar
  15    8   21 1
  16    9   22 1
  17   11   12 1
  18   11   23 1
  19   11   24 1
  20   12   13 1
  21   13   14 1
  22   13   25 1
  23   13   26 1
  24   14   15 1
  25   14   27 1
  26   14   28 1
  27   15   16 1
  28   15   17 1
  29   15   18 1
  30   16   29 1
  31   16   30 1
  32   16   31 1
  33   17   32 1
  34   17   33 1
  35   17   34 1
  36   18   35 1
  37   18   36 1
  38   18   37 1
  39   19   38 1

#	End of record

