#	Name: ASD16580001
#	Creating user name:	WinNT
#	Creation time:	15. 06. 2019 21:31

#	Modifying user name:	WinNT
#	Modification time:	15. 06. 2019 21:31

#	Program:	/corina/corina34_cracker 3.40 0067  02.08.2006

@<TRIPOS>MOLECULE
ASD16580001
  51   53    0    0    0
SMALL
NO_CHARGES


@<TRIPOS>ATOM
   1 O1            -6.4423    -2.5026     1.3622 O.2     
   2 O2            -7.0646    -1.3875    -0.7864 O.2     
   3 O3            -3.5873    -4.4788    -3.3431 O.2     
   4 C4            -1.2014     2.3400     0.0645 C.3     
   5 C5            -0.9297     0.8345     0.0438 C.3     
   6 C6            -0.1311     0.4777    -1.2115 C.3     
   7 C7            -0.1277     0.4438     1.2868 C.3     
   8 C8            -2.2388     0.0879     0.0354 C.ar    
   9 C9            -3.1371     0.2794    -0.9976 C.ar    
  10 C10           -4.3381    -0.4051    -1.0050 C.ar    
  11 C11           -4.6407    -1.2810     0.0206 C.ar    
  12 C12           -3.7422    -1.4729     1.0534 C.ar    
  13 C13           -2.5387    -0.7927     1.0579 C.ar    
  14 C14           -4.9839    -4.4852    -0.3303 C.ar    
  15 C15           -4.7949    -4.6525     1.0360 C.ar    
  16 C16           -3.8622    -5.5571     1.4995 C.ar    
  17 C17           -3.1063    -6.3062     0.6089 C.ar    
  18 C18           -3.2790    -6.1548    -0.7497 C.ar    
  19 C19           -4.2252    -5.2462    -1.2354 C.ar    
  20 C20           -4.4158    -5.0791    -2.6862 C.2     
  21 C21           -5.6154    -5.6417    -3.3442 C.ar    
  22 C22           -5.8679    -5.4076    -4.7010 C.ar    
  23 C23           -6.9986    -5.9520    -5.2747 C.ar    
  24 C24           -7.6317    -6.9330    -3.2820 C.ar    
  25 C25           -6.5263    -6.4278    -2.6287 C.ar    
  26 N26           -5.9219    -3.5749    -0.7988 N.am    
  27 N27           -7.8352    -6.6834    -4.5622 N.ar    
  28 O28           -8.9836    -7.2216    -5.1920 O.3     
  29 S29           -6.1720    -2.1526     0.0118 S.o2    
  30 Cl30          -1.9366    -7.4396     1.2095 Cl      
  31 H31           -0.2546     2.8801     0.0706 H       
  32 H32           -1.7728     2.6184    -0.8210 H       
  33 H33           -1.7704     2.5943     0.9588 H       
  34 H34            0.8157     1.0177    -1.2054 H       
  35 H35            0.0625    -0.5949    -1.2263 H       
  36 H36           -0.7024     0.7560    -2.0970 H       
  37 H37           -0.6967     0.6980     2.1810 H       
  38 H38            0.0659    -0.6288     1.2720 H       
  39 H39            0.8191     0.9838     1.2928 H       
  40 H40           -2.9008     0.9641    -1.7988 H       
  41 H41           -5.0401    -0.2552    -1.8120 H       
  42 H42           -3.9787    -2.1570     1.8549 H       
  43 H43           -1.8367    -0.9426     1.8648 H       
  44 H44           -5.3787    -4.0733     1.7361 H       
  45 H45           -3.7191    -5.6829     2.5625 H       
  46 H46           -2.6879    -6.7400    -1.4385 H       
  47 H47           -5.1882    -4.8096    -5.2899 H       
  48 H48           -7.2021    -5.7771    -6.3209 H       
  49 H49           -8.3400    -7.5408    -2.7387 H       
  50 H50           -6.3661    -6.6360    -1.5811 H       
  51 H51           -6.4306    -3.7720    -1.6008 H       
@<TRIPOS>BOND
   1    1   29 2
   2    2   29 2
   3    3   20 2
   4    4    5 1
   5    4   31 1
   6    4   32 1
   7    4   33 1
   8    5    7 1
   9    5    6 1
  10    5    8 1
  11    6   34 1
  12    6   35 1
  13    6   36 1
  14    7   37 1
  15    7   38 1
  16    7   39 1
  17    8    9 ar
  18    8   13 ar
  19    9   40 1
  20    9   10 ar
  21   10   41 1
  22   10   11 ar
  23   11   12 ar
  24   11   29 1
  25   12   13 ar
  26   12   42 1
  27   13   43 1
  28   14   15 ar
  29   14   26 1
  30   14   19 ar
  31   15   44 1
  32   15   16 ar
  33   16   45 1
  34   16   17 ar
  35   17   18 ar
  36   17   30 1
  37   18   19 ar
  38   18   46 1
  39   19   20 1
  40   20   21 1
  41   21   25 ar
  42   21   22 ar
  43   22   23 ar
  44   22   47 1
  45   23   27 ar
  46   23   48 1
  47   24   49 1
  48   24   25 ar
  49   24   27 ar
  50   25   50 1
  51   26   29 am
  52   26   51 1
  53   27   28 1

#	End of record

