#	Name: ASD10340013
#	Creating user name:	WinNT
#	Creation time:	15. 06. 2019 21:26

#	Modifying user name:	WinNT
#	Modification time:	15. 06. 2019 21:26

#	Program:	/corina/corina34_cracker 3.40 0067  02.08.2006

@<TRIPOS>MOLECULE
ASD10340013
  61   63    0    0    0
SMALL
NO_CHARGES


@<TRIPOS>ATOM
   1 N1            -0.0159     1.3199     0.0093 N.ar    
   2 C2             0.0021    -0.0041     0.0020 C.ar    
   3 C3             1.2040    -0.6826    -0.0131 C.ar    
   4 N4             2.3477    -0.0137    -0.0200 N.ar    
   5 C5             2.3406     1.3088    -0.0128 C.ar    
   6 C6             1.1221     1.9973     0.0021 C.ar    
   7 O7             3.5112     1.9962    -0.0194 O.3     
   8 C8             4.7153     1.2268    -0.0341 C.3     
   9 C9             5.9036     2.1536    -0.0396 C.ar    
  10 C10            6.4580     2.5713     1.1561 C.ar    
  11 C11            7.5481     3.4215     1.1564 C.ar    
  12 C12            8.0875     3.8568    -0.0435 C.ar    
  13 C13            7.5295     3.4364    -1.2469 C.ar    
  14 C14            6.4404     2.5797    -1.2401 C.ar    
  15 N15            1.1063     3.3895     0.0092 N.am    
  16 S16           -0.3370     4.2012     0.0268 S.o2    
  17 C17           -1.1260     3.8292     1.5578 C.ar    
  18 O18           -0.0185     5.5855     0.0656 O.2     
  19 O19           -1.1387     3.6163    -0.9903 O.2     
  20 C20           -0.8989     4.6264     2.6640 C.ar    
  21 C21           -1.5179     4.3345     3.8651 C.ar    
  22 C22           -2.3642     3.2456     3.9598 C.ar    
  23 C23           -2.5920     2.4489     2.8533 C.ar    
  24 C24           -1.9764     2.7434     1.6511 C.ar    
  25 Br25           1.2183    -2.5735    -0.0234 Br      
  26 O26            8.0551     3.8613    -2.4270 O.3     
  27 C27            7.4308     3.3891    -3.6226 C.3     
  28 C28            8.1547     3.9693    -4.8393 C.3     
  29 N29            9.5278     3.4491    -4.8862 N.3     
  30 C30            9.5340     2.0011    -5.1335 C.3     
  31 C31           10.3254     4.1589    -5.8950 C.3     
  32 O32            9.1596     4.6935    -0.0449 O.3     
  33 C33            9.6796     5.0840     1.2276 C.3     
  34 C34           -3.0382     2.9268     5.2695 C.3     
  35 H35           -0.9269    -0.5549     0.0083 H       
  36 H36            4.7526     0.5934     0.8522 H       
  37 H37            4.7370     0.6030    -0.9277 H       
  38 H38            6.0383     2.2330     2.0919 H       
  39 H39            7.9791     3.7466     2.0917 H       
  40 H40            6.0084     2.2481    -2.1728 H       
  41 H41            1.9408     3.8840     0.0039 H       
  42 H42           -0.2377     5.4771     2.5900 H       
  43 H43           -1.3399     4.9569     4.7296 H       
  44 H44           -3.2529     1.5980     2.9274 H       
  45 H45           -2.1572     2.1231     0.7857 H       
  46 H46            7.4825     2.3007    -3.6540 H       
  47 H47            6.3874     3.7039    -3.6364 H       
  48 H48            7.6260     3.6816    -5.7480 H       
  49 H49            8.1804     5.0563    -4.7625 H       
  50 H50            9.0488     1.7933    -6.0872 H       
  51 H51           10.5627     1.6420    -5.1634 H       
  52 H52            8.9951     1.4935    -4.3334 H       
  53 H53           10.3619     5.2201    -5.6486 H       
  54 H54           11.3374     3.7541    -5.9088 H       
  55 H55            9.8689     4.0293    -6.8763 H       
  56 H56            8.9049     5.6016     1.7933 H       
  57 H57            9.9999     4.1984     1.7765 H       
  58 H58           10.5305     5.7498     1.0836 H       
  59 H59           -3.9958     3.4450     5.3209 H       
  60 H60           -3.2025     1.8517     5.3413 H       
  61 H61           -2.4037     3.2533     6.0935 H       
@<TRIPOS>BOND
   1    1    2 ar
   2    1    6 ar
   3    2    3 ar
   4    2   35 1
   5    3    4 ar
   6    3   25 1
   7    4    5 ar
   8    5    6 ar
   9    5    7 1
  10    6   15 1
  11    7    8 1
  12    8    9 1
  13    8   36 1
  14    8   37 1
  15    9   10 ar
  16    9   14 ar
  17   10   11 ar
  18   10   38 1
  19   11   12 ar
  20   11   39 1
  21   12   13 ar
  22   12   32 1
  23   13   14 ar
  24   13   26 1
  25   14   40 1
  26   15   16 am
  27   15   41 1
  28   16   17 1
  29   16   18 2
  30   16   19 2
  31   17   20 ar
  32   17   24 ar
  33   20   21 ar
  34   20   42 1
  35   21   22 ar
  36   21   43 1
  37   22   23 ar
  38   22   34 1
  39   23   24 ar
  40   23   44 1
  41   24   45 1
  42   26   27 1
  43   27   28 1
  44   27   46 1
  45   27   47 1
  46   28   29 1
  47   28   48 1
  48   28   49 1
  49   29   30 1
  50   29   31 1
  51   30   50 1
  52   30   51 1
  53   30   52 1
  54   31   53 1
  55   31   54 1
  56   31   55 1
  57   32   33 1
  58   33   56 1
  59   33   57 1
  60   33   58 1
  61   34   59 1
  62   34   60 1
  63   34   61 1

#	End of record

