#	Name: ASD10410010
#	Creating user name:	WinNT
#	Creation time:	15. 06. 2019 21:26

#	Modifying user name:	WinNT
#	Modification time:	15. 06. 2019 21:26

#	Program:	/corina/corina34_cracker 3.40 0067  02.08.2006

@<TRIPOS>MOLECULE
ASD10410010
  65   68    0    0    0
SMALL
NO_CHARGES


@<TRIPOS>ATOM
   1 N1             0.6553     0.4102     0.1737 N.pl3   
   2 C2             0.3611    -0.9508     0.2967 C.ar    
   3 C3            -0.7812    -1.3575     0.9740 C.ar    
   4 C4             1.9747     0.8299     0.0927 C.ar    
   5 N5             2.9690    -0.0404     0.2342 N.ar    
   6 C6             2.2783     2.1734    -0.1445 C.ar    
   7 C7             3.6070     2.5455    -0.2172 C.ar    
   8 N8             4.5474     1.6248    -0.0609 N.ar    
   9 C9             4.2302     0.3575     0.1574 C.ar    
  10 Cl10           1.0151     3.3473    -0.3440 Cl      
  11 N11            5.2433    -0.5747     0.3155 N.pl3   
  12 C12            6.5771    -0.1575     0.3548 C.ar    
  13 C13            6.9048     1.0761     0.9027 C.ar    
  14 C14            8.2233     1.4851     0.9400 C.ar    
  15 C15            9.2169     0.6682     0.4322 C.ar    
  16 C16            8.8941    -0.5604    -0.1144 C.ar    
  17 C17            7.5782    -0.9783    -0.1487 C.ar    
  18 C18           10.6546     1.1180     0.4741 C.3     
  19 N19           11.2706     0.6725     1.7311 N.3     
  20 C20           12.7250     0.8821     1.7081 C.3     
  21 C21           13.3170     0.4805     3.0611 C.3     
  22 N22           12.9949    -0.9268     3.3356 N.3     
  23 C23           11.5406    -1.1364     3.3586 C.3     
  24 C24           10.9485    -0.7349     2.0055 C.3     
  25 C25           13.6110    -1.3724     4.5925 C.3     
  26 C26            1.2077    -1.8994    -0.2633 C.ar    
  27 C27            0.9138    -3.2430    -0.1404 C.ar    
  28 C28           -0.2218    -3.6448     0.5393 C.ar    
  29 C29           -1.0692    -2.7031     1.0932 C.ar    
  30 S30           -1.8614    -0.1583     1.6808 S.o2    
  31 O31           -2.0996     0.8122     0.6706 O.2     
  32 O32           -2.9014    -0.8837     2.3223 O.2     
  33 N33           -1.0200     0.6127     2.8808 N.am    
  34 C34           -0.3970     1.9126     2.6196 C.3     
  35 C35           -0.8985    -0.0053     4.2035 C.3     
  36 H36           -0.0634     1.0607     0.1410 H       
  37 H37            3.8762     3.5754    -0.3997 H       
  38 H38            5.0270    -1.5166     0.3988 H       
  39 H39            6.1292     1.7148     1.2988 H       
  40 H40            8.4787     2.4442     1.3659 H       
  41 H41            9.6723    -1.1957    -0.5107 H       
  42 H42            7.3268    -1.9381    -0.5754 H       
  43 H43           11.1950     0.6865    -0.3684 H       
  44 H44           10.6969     2.2056     0.4143 H       
  45 H45           13.1680     0.2712     0.9216 H       
  46 H46           12.9378     1.9336     1.5157 H       
  47 H47           14.3993     0.6078     3.0367 H       
  48 H48           12.8941     1.1098     3.8443 H       
  49 H49           11.3277    -2.1880     3.5510 H       
  50 H50           11.0975    -0.5255     4.1451 H       
  51 H51            9.8662    -0.8621     2.0300 H       
  52 H52           11.3714    -1.3641     1.2224 H       
  53 H53           13.2395    -0.7619     5.4156 H       
  54 H54           13.3566    -2.4171     4.7714 H       
  55 H55           14.6938    -1.2688     4.5232 H       
  56 H56            2.0944    -1.5863    -0.7945 H       
  57 H57            1.5713    -3.9810    -0.5758 H       
  58 H58           -0.4495    -4.6963     0.6336 H       
  59 H59           -1.9551    -3.0202     1.6233 H       
  60 H60           -1.0690     2.7086     2.9406 H       
  61 H61            0.5403     1.9838     3.1715 H       
  62 H62           -0.1988     2.0127     1.5525 H       
  63 H63           -1.4222    -0.9613     4.2074 H       
  64 H64            0.1545    -0.1670     4.4337 H       
  65 H65           -1.3376     0.6525     4.9536 H       
@<TRIPOS>BOND
   1    1    2 1
   2    1    4 1
   3    1   36 1
   4    2    3 ar
   5    2   26 ar
   6    3   30 1
   7    3   29 ar
   8    4    5 ar
   9    4    6 ar
  10    5    9 ar
  11    6    7 ar
  12    6   10 1
  13    7    8 ar
  14    7   37 1
  15    8    9 ar
  16    9   11 1
  17   11   12 1
  18   11   38 1
  19   12   13 ar
  20   12   17 ar
  21   13   14 ar
  22   13   39 1
  23   14   15 ar
  24   14   40 1
  25   15   16 ar
  26   15   18 1
  27   16   17 ar
  28   16   41 1
  29   17   42 1
  30   18   19 1
  31   18   43 1
  32   18   44 1
  33   19   20 1
  34   19   24 1
  35   20   21 1
  36   20   45 1
  37   20   46 1
  38   21   22 1
  39   21   47 1
  40   21   48 1
  41   22   23 1
  42   22   25 1
  43   23   24 1
  44   23   49 1
  45   23   50 1
  46   24   51 1
  47   24   52 1
  48   25   53 1
  49   25   54 1
  50   25   55 1
  51   26   27 ar
  52   26   56 1
  53   27   28 ar
  54   27   57 1
  55   28   29 ar
  56   28   58 1
  57   29   59 1
  58   30   31 2
  59   30   32 2
  60   30   33 am
  61   33   34 1
  62   33   35 1
  63   34   60 1
  64   34   61 1
  65   34   62 1
  66   35   63 1
  67   35   64 1
  68   35   65 1

#	End of record

