#	Name: ASD10800059
#	Creating user name:	WinNT
#	Creation time:	15. 06. 2019 21:28

#	Modifying user name:	WinNT
#	Modification time:	15. 06. 2019 21:28

#	Program:	/corina/corina34_cracker 3.40 0067  02.08.2006

@<TRIPOS>MOLECULE
ASD10800059
  60   63    0    0    0
SMALL
NO_CHARGES


@<TRIPOS>ATOM
   1 C1            -0.0168     1.3891     0.0097 C.ar    
   2 C2             0.0021    -0.0041     0.0020 C.ar    
   3 C3             1.1887    -0.7007    -0.0415 C.ar    
   4 C4             2.3744     0.0056    -0.0798 C.ar    
   5 C5             2.3576     1.3822    -0.0587 C.ar    
   6 C6             1.1573     2.1014     0.0023 C.ar    
   7 C7             3.6768     2.1116    -0.1047 C.3     
   8 C8             4.1240     2.4471     1.3195 C.3     
   9 N9             4.6831     1.2609    -0.7449 N.2     
  10 C10            5.2802     1.6628    -1.8326 C.2     
  11 S11            4.9860     3.2008    -2.6509 S.3     
  12 C12            6.1830     2.9386    -3.9963 C.3     
  13 C13            6.7875     1.5606    -3.7045 C.3     
  14 N14            6.2304     0.9664    -2.5107 N.pl3   
  15 C15            5.3777     3.2817     1.2689 C.ar    
  16 C16            5.2888     4.6603     1.2196 C.ar    
  17 C17            6.4388     5.4259     1.1731 C.ar    
  18 C18            7.6778     4.8129     1.1763 C.ar    
  19 C19            7.7668     3.4344     1.2266 C.ar    
  20 C20            6.6168     2.6689     1.2774 C.ar    
  21 C21            1.3350     3.6008     0.0922 C.3     
  22 C22           -1.3884     2.0079    -0.0075 C.3     
  23 C23            6.3418     6.9288     1.1183 C.3     
  24 F24            6.3323     7.4432     2.4193 F       
  25 F25            7.4414     7.4420     0.4220 F       
  26 F26            5.1618     7.2964     0.4628 F       
  27 C27            9.1175     2.7661     1.2296 C.3     
  28 F28           10.1200     3.7405     1.1768 F       
  29 F29            9.2618     2.0115     2.3988 F       
  30 F30            9.2247     1.9259     0.1162 F       
  31 C31            0.0770     4.4733     0.1750 C.3     
  32 C32           -0.6223     4.5349    -1.1798 C.3     
  33 C33           -0.5802     3.2770    -2.0290 C.3     
  34 C34           -1.7281     2.4814    -1.4201 C.3     
  35 H35           -0.9352    -0.5411     0.0322 H       
  36 H36            1.1934    -1.7807    -0.0450 H       
  37 H37            3.3166    -0.5210    -0.1266 H       
  38 H38            3.5629     3.0328    -0.6763 H       
  39 H39            3.3363     3.0051     1.8257 H       
  40 H40            4.3235     1.5245     1.8645 H       
  41 H41            5.6766     2.9357    -4.9615 H       
  42 H42            6.9563     3.7064    -3.9731 H       
  43 H43            6.5978     0.9034    -4.5531 H       
  44 H44            7.8646     1.6662    -3.5748 H       
  45 H45            6.5216     0.0929    -2.2056 H       
  46 H46            4.3208     5.1393     1.2170 H       
  47 H47            8.5763     5.4111     1.1393 H       
  48 H48            6.6863     1.5919     1.3167 H       
  49 H49            1.9306     3.8177     0.9785 H       
  50 H50            1.8886     3.9300    -0.7870 H       
  51 H51           -2.1161     1.2280     0.2758 H       
  52 H52           -1.4779     2.8064     0.7119 H       
  53 H53           -0.5829     4.1267     0.9516 H       
  54 H54            0.3965     5.4938     0.4346 H       
  55 H55           -1.6669     4.7984    -1.0064 H       
  56 H56           -0.1690     5.3473    -1.7521 H       
  57 H57           -0.7885     3.5134    -3.0798 H       
  58 H58            0.3697     2.7565    -1.9502 H       
  59 H59           -1.9343     1.6110    -2.0503 H       
  60 H60           -2.6253     3.1038    -1.3882 H       
@<TRIPOS>BOND
   1    1    2 ar
   2    1    6 ar
   3    1   22 1
   4    2    3 ar
   5    2   35 1
   6    3    4 ar
   7    3   36 1
   8    4    5 ar
   9    4   37 1
  10    5    6 ar
  11    5    7 1
  12    6   21 1
  13    7    8 1
  14    7    9 1
  15    7   38 1
  16    8   15 1
  17    8   39 1
  18    8   40 1
  19    9   10 2
  20   10   11 1
  21   10   14 1
  22   11   12 1
  23   12   13 1
  24   12   41 1
  25   12   42 1
  26   13   14 1
  27   13   43 1
  28   13   44 1
  29   14   45 1
  30   15   16 ar
  31   15   20 ar
  32   16   17 ar
  33   16   46 1
  34   17   18 ar
  35   17   23 1
  36   18   19 ar
  37   18   47 1
  38   19   20 ar
  39   19   27 1
  40   20   48 1
  41   21   31 1
  42   21   49 1
  43   21   50 1
  44   22   34 1
  45   22   51 1
  46   22   52 1
  47   23   24 1
  48   23   25 1
  49   23   26 1
  50   27   28 1
  51   27   29 1
  52   27   30 1
  53   31   32 1
  54   31   53 1
  55   31   54 1
  56   32   33 1
  57   32   55 1
  58   32   56 1
  59   33   34 1
  60   33   57 1
  61   33   58 1
  62   34   59 1
  63   34   60 1

#	End of record

