#	Name: ASD12130001
#	Creating user name:	WinNT
#	Creation time:	15. 06. 2019 21:30

#	Modifying user name:	WinNT
#	Modification time:	15. 06. 2019 21:30

#	Program:	/corina/corina34_cracker 3.40 0067  02.08.2006

@<TRIPOS>MOLECULE
ASD12130001
  67   70    0    0    0
SMALL
NO_CHARGES


@<TRIPOS>ATOM
   1 C1            -0.3558    -1.6463     0.8313 C.3     
   2 C2             0.4464    -2.8939     1.2066 C.3     
   3 C3             1.4353    -2.5481     2.3217 C.3     
   4 C4             2.3896    -1.4551     1.8362 C.3     
   5 C5             1.5874    -0.2075     1.4609 C.3     
   6 C6             0.5985    -0.5533     0.3458 C.3     
   7 C7             3.3785    -1.1093     2.9513 C.3     
   8 C8             4.3939    -0.1231     2.4342 C.ar    
   9 N9             5.0884    -0.4126     1.3559 N.ar    
  10 C10            4.5788     1.0793     3.0985 C.ar    
  11 C11            5.5133     1.9835     2.6192 C.ar    
  12 C12            6.2347     1.6495     1.4836 C.ar    
  13 C13            5.9929     0.4256     0.8641 C.ar    
  14 C14            6.7557     0.0535    -0.3498 C.2     
  15 O15            7.5884     0.8147    -0.8013 O.2     
  16 N16            6.5262    -1.1294    -0.9537 N.am    
  17 C17            7.1787    -1.4418    -2.1446 C.ar    
  18 C18            6.5560    -2.2578    -3.0839 C.ar    
  19 C19            8.4495    -0.9323    -2.3945 C.ar    
  20 C20            9.0963    -1.2383    -3.5703 C.ar    
  21 C21            8.4757    -2.0620    -4.5137 C.ar    
  22 C22            7.1977    -2.5680    -4.2618 C.ar    
  23 C23            5.1777    -2.8030    -2.8115 C.3     
  24 C24            4.1447    -1.7858    -3.2230 C.ar    
  25 C25            3.6415    -1.7938    -4.5105 C.ar    
  26 C26            3.6963    -0.8484    -2.3114 C.ar    
  27 C27            2.7487     0.0846    -2.6889 C.ar    
  28 C28            2.2500     0.0805    -3.9781 C.ar    
  29 C29            2.6939    -0.8607    -4.8880 C.ar    
  30 C30            9.1662    -2.3918    -5.7757 C.2     
  31 N31           10.3965    -1.8985    -6.0195 N.am    
  32 O32            8.6252    -3.1085    -6.5954 O.2     
  33 S33           11.1713    -2.2685    -7.4356 S.o2    
  34 O34           11.0940    -3.6850    -7.5175 O.2     
  35 C35           10.1514    -1.4998    -8.7238 C.3     
  36 O36           12.4252    -1.6080    -7.3320 O.2     
  37 H37           -1.0603    -1.8927     0.0369 H       
  38 H38           -0.9026    -1.2898     1.7042 H       
  39 H39           -0.2334    -3.6726     1.5524 H       
  40 H40            0.9933    -3.2505     0.3337 H       
  41 H41            0.8885    -2.1916     3.1946 H       
  42 H42            2.0068    -3.4369     2.5890 H       
  43 H43            2.9364    -1.8117     0.9633 H       
  44 H44            1.0406     0.1490     2.3338 H       
  45 H45            2.2672     0.5711     1.1151 H       
  46 H46            1.1453    -0.9099    -0.5271 H       
  47 H47            0.0270     0.3355     0.0785 H       
  48 H48            2.8401    -0.6699     3.7910 H       
  49 H49            3.8870    -2.0157     3.2800 H       
  50 H50            4.0000     1.3094     3.9808 H       
  51 H51            5.6755     2.9271     3.1189 H       
  52 H52            6.9707     2.3305     1.0824 H       
  53 H53            5.9069    -1.7632    -0.5593 H       
  54 H54            8.9285    -0.2959    -1.6652 H       
  55 H55           10.0822    -0.8420    -3.7639 H       
  56 H56            6.7155    -3.2048    -4.9888 H       
  57 H57            5.0309    -3.7208    -3.3810 H       
  58 H58            5.0748    -3.0153    -1.7474 H       
  59 H59            3.9888    -2.5287    -5.2215 H       
  60 H60            4.0860    -0.8452    -1.3042 H       
  61 H61            2.3979     0.8165    -1.9764 H       
  62 H62            1.5094     0.8093    -4.2729 H       
  63 H63            2.3042    -0.8639    -5.8952 H       
  64 H64           10.8282    -1.3267    -5.3656 H       
  65 H65           10.1033    -0.4240    -8.5554 H       
  66 H66           10.5925    -1.6952    -9.7012 H       
  67 H67            9.1456    -1.9184    -8.6889 H       
@<TRIPOS>BOND
   1    1    2 1
   2    1    6 1
   3    1   37 1
   4    1   38 1
   5    2    3 1
   6    2   39 1
   7    2   40 1
   8    3    4 1
   9    3   41 1
  10    3   42 1
  11    4    5 1
  12    4    7 1
  13    4   43 1
  14    5    6 1
  15    5   44 1
  16    5   45 1
  17    6   46 1
  18    6   47 1
  19    7    8 1
  20    7   48 1
  21    7   49 1
  22    8    9 ar
  23    8   10 ar
  24    9   13 ar
  25   10   11 ar
  26   10   50 1
  27   11   12 ar
  28   11   51 1
  29   12   13 ar
  30   12   52 1
  31   13   14 1
  32   14   15 2
  33   14   16 am
  34   16   17 1
  35   16   53 1
  36   17   18 ar
  37   17   19 ar
  38   18   23 1
  39   18   22 ar
  40   19   20 ar
  41   19   54 1
  42   20   21 ar
  43   20   55 1
  44   21   22 ar
  45   21   30 1
  46   22   56 1
  47   23   24 1
  48   23   57 1
  49   23   58 1
  50   24   25 ar
  51   24   26 ar
  52   25   29 ar
  53   25   59 1
  54   26   27 ar
  55   26   60 1
  56   27   28 ar
  57   27   61 1
  58   28   29 ar
  59   28   62 1
  60   29   63 1
  61   30   31 am
  62   30   32 2
  63   31   33 am
  64   31   64 1
  65   33   34 2
  66   33   35 1
  67   33   36 2
  68   35   65 1
  69   35   66 1
  70   35   67 1

#	End of record

