#	Name: ASD10310003
#	Creating user name:	WinNT
#	Creation time:	15. 06. 2019 21:26

#	Modifying user name:	WinNT
#	Modification time:	15. 06. 2019 21:26

#	Program:	/corina/corina34_cracker 3.40 0067  02.08.2006

@<TRIPOS>MOLECULE
ASD10310003
  65   68    0    0    0
SMALL
NO_CHARGES


@<TRIPOS>ATOM
   1 N1            -0.0771     1.2399    -0.2015 N.ar    
   2 C2             0.3491     0.6570    -1.2927 C.ar    
   3 C3             1.5775    -0.0220    -1.3328 C.ar    
   4 C4             2.3691    -0.0782    -0.1756 C.ar    
   5 C5             1.8824     0.5610     0.9884 C.ar    
   6 C6             2.6186     0.5472     2.1821 C.ar    
   7 C7             2.1257     1.1726     3.2911 C.ar    
   8 C8             0.8885     1.8300     3.2491 C.ar    
   9 C9             0.1462     1.8578     2.0903 C.ar    
  10 C10            0.6317     1.2227     0.9370 C.ar    
  11 C11            2.0176    -0.6509    -2.5416 C.1     
  12 N12            2.3667    -1.1498    -3.5007 N.1     
  13 O13            0.4166     2.4460     4.3642 O.3     
  14 C14           -0.8501     3.0987     4.2580 C.3     
  15 C15           -1.2130     3.7300     5.6036 C.3     
  16 C16           -2.5693     4.4289     5.4899 C.3     
  17 N17           -2.9177     5.0351     6.7819 N.3     
  18 C18           -4.0904     5.9113     6.6534 C.3     
  19 C19           -4.4682     6.4590     8.0317 C.3     
  20 N20           -3.3257     7.1921     8.5946 N.3     
  21 C21           -2.1530     6.3159     8.7231 C.3     
  22 C22           -1.7752     5.7682     7.3448 C.3     
  23 C23           -3.6741     7.7983     9.8866 C.3     
  24 O24            2.8415     1.1571     4.4473 O.3     
  25 C25            4.0943     0.4701     4.4255 C.3     
  26 N26            3.5828    -0.7360    -0.1731 N.pl3   
  27 C27            3.6600    -2.0590     0.2729 C.ar    
  28 C28            4.8566    -2.7596     0.1698 C.ar    
  29 C29            4.9325    -4.0672     0.6108 C.ar    
  30 C30            3.8192    -4.6815     1.1552 C.ar    
  31 C31            2.6221    -3.9861     1.2598 C.ar    
  32 C32            2.5439    -2.6727     0.8243 C.ar    
  33 O33            1.5287    -4.5914     1.7947 O.3     
  34 C34            0.3670    -3.7813     1.9854 C.3     
  35 Cl35           3.9188    -6.3241     1.7080 Cl      
  36 Cl36           6.2556    -1.9917    -0.5135 Cl      
  37 H37           -0.2590     0.6988    -2.1843 H       
  38 H38            3.5726     0.0428     2.2240 H       
  39 H39           -0.8062     2.3665     2.0687 H       
  40 H40           -0.7958     3.8754     3.4952 H       
  41 H41           -1.6122     2.3702     3.9812 H       
  42 H42           -1.2673     2.9534     6.3665 H       
  43 H43           -0.4509     4.4586     5.8804 H       
  44 H44           -2.5150     5.2056     4.7270 H       
  45 H45           -3.3313     3.7004     5.2131 H       
  46 H46           -3.8541     6.7395     5.9853 H       
  47 H47           -4.9264     5.3426     6.2464 H       
  48 H48           -5.3200     7.1320     7.9346 H       
  49 H49           -4.7308     5.6324     8.6919 H       
  50 H50           -1.3169     6.8846     9.1301 H       
  51 H51           -2.3893     5.4877     9.3912 H       
  52 H52           -0.9233     5.0951     7.4419 H       
  53 H53           -1.5125     6.5948     6.6845 H       
  54 H54           -3.9673     7.0166    10.5873 H       
  55 H55           -2.8109     8.3346    10.2808 H       
  56 H56           -4.5025     8.4934     9.7502 H       
  57 H57            4.5609     0.5341     5.4085 H       
  58 H58            3.9304    -0.5764     4.1686 H       
  59 H59            4.7473     0.9286     3.6829 H       
  60 H60            4.3820    -0.2805    -0.4809 H       
  61 H61            5.8625    -4.6104     0.5298 H       
  62 H62            1.6145    -2.1291     0.9095 H       
  63 H63            0.0041    -3.4332     1.0184 H       
  64 H64           -0.4096    -4.3693     2.4747 H       
  65 H65            0.6204    -2.9237     2.6087 H       
@<TRIPOS>BOND
   1    1    2 ar
   2    1   10 ar
   3    2    3 ar
   4    2   37 1
   5    3    4 ar
   6    3   11 1
   7    4    5 ar
   8    4   26 1
   9    5    6 ar
  10    5   10 ar
  11    6    7 ar
  12    6   38 1
  13    7    8 ar
  14    7   24 1
  15    8    9 ar
  16    8   13 1
  17    9   10 ar
  18    9   39 1
  19   11   12 3
  20   13   14 1
  21   14   15 1
  22   14   40 1
  23   14   41 1
  24   15   16 1
  25   15   42 1
  26   15   43 1
  27   16   17 1
  28   16   44 1
  29   16   45 1
  30   17   18 1
  31   17   22 1
  32   18   19 1
  33   18   46 1
  34   18   47 1
  35   19   20 1
  36   19   48 1
  37   19   49 1
  38   20   21 1
  39   20   23 1
  40   21   22 1
  41   21   50 1
  42   21   51 1
  43   22   52 1
  44   22   53 1
  45   23   54 1
  46   23   55 1
  47   23   56 1
  48   24   25 1
  49   25   57 1
  50   25   58 1
  51   25   59 1
  52   26   27 1
  53   26   60 1
  54   27   28 ar
  55   27   32 ar
  56   28   29 ar
  57   28   36 1
  58   29   30 ar
  59   29   61 1
  60   30   31 ar
  61   30   35 1
  62   31   32 ar
  63   31   33 1
  64   32   62 1
  65   33   34 1
  66   34   63 1
  67   34   64 1
  68   34   65 1

#	End of record

