#	Name: ASD11740016
#	Creating user name:	WinNT
#	Creation time:	15. 06. 2019 21:29

#	Modifying user name:	WinNT
#	Modification time:	15. 06. 2019 21:29

#	Program:	/corina/corina34_cracker 3.40 0067  02.08.2006

@<TRIPOS>MOLECULE
ASD11740016
  45   47    0    0    0
SMALL
NO_CHARGES


@<TRIPOS>ATOM
   1 C1             0.1716     1.8924    -0.5779 C.3     
   2 C2             1.0407     4.1405     1.9633 C.ar    
   3 C3             0.4863     4.4214     3.1950 C.ar    
   4 C4            -0.5701     5.3124     3.3025 C.ar    
   5 C5            -1.0783     5.9281     2.1800 C.ar    
   6 C6            -0.5276     5.6547     0.9251 C.ar    
   7 C7             0.5417     4.7517     0.8196 C.ar    
   8 N8             1.0984     4.4709    -0.4215 N.am    
   9 S9             1.6394     2.9427    -0.7596 S.o2    
  10 O10            2.5797     2.6681     0.2698 O.2     
  11 O11            2.0414     3.0066    -2.1211 O.2     
  12 C12           -1.0670     6.3097    -0.2803 C.2     
  13 N13           -2.0944     7.1754    -0.1741 N.am    
  14 O14           -0.5848     6.0690    -1.3705 O.2     
  15 C15           -2.5320     7.8844    -1.3000 C.ar    
  16 C16           -3.8304     8.3881    -1.3474 C.ar    
  17 C17           -4.2576     9.0883    -2.4634 C.ar    
  18 C18           -3.3965     9.2863    -3.5273 C.ar    
  19 C19           -2.1083     8.7869    -3.4810 C.ar    
  20 C20           -1.6723     8.0919    -2.3685 C.ar    
  21 O21           -4.6761     8.1923    -0.3007 O.3     
  22 C22           -5.9919     8.7369    -0.4191 C.3     
  23 C23           -6.7916     8.4180     0.8457 C.3     
  24 C24            0.3638     0.3805    -0.7128 C.3     
  25 C25            0.0922     0.9976     0.6606 C.3     
  26 H26           -0.7596     2.3168    -0.9531 H       
  27 H27            1.8663     3.4482     1.8886 H       
  28 H28            0.8777     3.9438     4.0811 H       
  29 H29           -0.9972     5.5247     4.2715 H       
  30 H30           -1.9017     6.6212     2.2696 H       
  31 H31            1.1703     5.1699    -1.0901 H       
  32 H32           -2.5309     7.3075     0.6820 H       
  33 H33           -5.2634     9.4795    -2.5030 H       
  34 H34           -3.7315     9.8323    -4.3968 H       
  35 H35           -1.4396     8.9438    -4.3144 H       
  36 H36           -0.6653     7.7031    -2.3349 H       
  37 H37           -5.9277     9.8177    -0.5455 H       
  38 H38           -6.4900     8.2989    -1.2840 H       
  39 H39           -6.8557     7.3373     0.9721 H       
  40 H40           -6.2935     8.8560     1.7106 H       
  41 H41           -7.7952     8.8335     0.7554 H       
  42 H42           -0.4412    -0.1898    -1.1764 H       
  43 H43            1.3721     0.0170    -0.9108 H       
  44 H44            0.9219     1.0400     1.3662 H       
  45 H45           -0.8914     0.8333     1.1006 H       
@<TRIPOS>BOND
   1    1   24 1
   2    1    9 1
   3    1   25 1
   4    1   26 1
   5    2    3 ar
   6    2    7 ar
   7    2   27 1
   8    3    4 ar
   9    3   28 1
  10    4    5 ar
  11    4   29 1
  12    5    6 ar
  13    5   30 1
  14    6    7 ar
  15    6   12 1
  16    7    8 1
  17    8    9 am
  18    8   31 1
  19    9   10 2
  20    9   11 2
  21   12   13 am
  22   12   14 2
  23   13   15 1
  24   13   32 1
  25   15   16 ar
  26   15   20 ar
  27   16   17 ar
  28   16   21 1
  29   17   18 ar
  30   17   33 1
  31   18   19 ar
  32   18   34 1
  33   19   20 ar
  34   19   35 1
  35   20   36 1
  36   21   22 1
  37   22   23 1
  38   22   37 1
  39   22   38 1
  40   23   39 1
  41   23   40 1
  42   23   41 1
  43   24   25 1
  44   24   42 1
  45   24   43 1
  46   25   44 1
  47   25   45 1

#	End of record

