#	Name: ASD15510001
#	Creating user name:	WinNT
#	Creation time:	15. 06. 2019 21:31

#	Modifying user name:	WinNT
#	Modification time:	15. 06. 2019 21:31

#	Program:	/corina/corina34_cracker 3.40 0067  02.08.2006

@<TRIPOS>MOLECULE
ASD15510001
  39   42    0    0    0
SMALL
NO_CHARGES


@<TRIPOS>ATOM
   1 O1            -3.2648     2.2937    -2.7865 O.2     
   2 N2            -0.0295     1.1424     0.1062 N.pl3   
   3 N3            -2.1758     0.4607    -2.1727 N.am    
   4 C4            -0.1538    -0.2335     0.0896 C.ar    
   5 C5             1.1289    -0.7954     0.1285 C.ar    
   6 C6             2.0781     0.3324     0.1711 C.ar    
   7 C7            -1.2711    -1.0803     0.0442 C.ar    
   8 C8             1.3050     1.5031     0.1551 C.ar    
   9 C9            -2.6373    -0.5069     0.0020 C.ar    
  10 C10            1.2869    -2.1803     0.1220 C.ar    
  11 C11           -1.0929    -2.4589     0.0384 C.ar    
  12 C12            3.4673     0.4143     0.2194 C.ar    
  13 C13            0.1797    -3.0014     0.0767 C.ar    
  14 C14            1.9414     2.7399     0.1888 C.ar    
  15 C15           -3.0504     0.2460    -1.1037 C.ar    
  16 C16           -3.5183    -0.7194     1.0597 C.ar    
  17 C17            4.0796     1.6490     0.2514 C.ar    
  18 C18            3.3174     2.8067     0.2374 C.ar    
  19 C19           -4.3305     0.7783    -1.1338 C.ar    
  20 C20           -4.7897    -0.1833     1.0157 C.ar    
  21 C21           -5.1936     0.5653    -0.0756 C.ar    
  22 C22           -2.3272     1.5441    -2.9601 C.2     
  23 C23           -1.3316     1.8240    -4.0561 C.3     
  24 H24           -0.7718     1.7664     0.0826 H       
  25 H25            2.2770    -2.6106     0.1521 H       
  26 H26           -1.9532    -3.1109     0.0034 H       
  27 H27            4.0631    -0.4864     0.2322 H       
  28 H28            0.3066    -4.0739     0.0714 H       
  29 H29            1.3571     3.6480     0.1766 H       
  30 H30           -3.2072    -1.3034     1.9133 H       
  31 H31            5.1570     1.7145     0.2893 H       
  32 H32            3.8060     3.7696     0.2631 H       
  33 H33           -4.6531     1.3600    -1.9846 H       
  34 H34           -5.4720    -0.3491     1.8363 H       
  35 H35           -1.4600    -0.1699    -2.3479 H       
  36 H36           -6.1899     0.9815    -0.1027 H       
  37 H37           -0.5266     2.4465    -3.6654 H       
  38 H38           -0.9191     0.8834    -4.4212 H       
  39 H39           -1.8289     2.3446    -4.8745 H       
@<TRIPOS>BOND
   1    1   22 2
   2    2    4 1
   3    2    8 1
   4    2   24 1
   5    3   15 1
   6    3   22 am
   7    3   35 1
   8    4    5 ar
   9    4    7 ar
  10    5    6 1
  11    5   10 ar
  12    6    8 ar
  13    6   12 ar
  14    7    9 1
  15    7   11 ar
  16    8   14 ar
  17    9   15 ar
  18    9   16 ar
  19   10   13 ar
  20   10   25 1
  21   11   13 ar
  22   11   26 1
  23   12   17 ar
  24   12   27 1
  25   13   28 1
  26   14   18 ar
  27   14   29 1
  28   15   19 ar
  29   16   20 ar
  30   16   30 1
  31   17   18 ar
  32   17   31 1
  33   18   32 1
  34   19   21 ar
  35   19   33 1
  36   20   21 ar
  37   20   34 1
  38   21   36 1
  39   22   23 1
  40   23   37 1
  41   23   38 1
  42   23   39 1

#	End of record

