#	Name: ASD10160037
#	Creating user name:	WinNT
#	Creation time:	15. 06. 2019 21:25

#	Modifying user name:	WinNT
#	Modification time:	15. 06. 2019 21:25

#	Program:	/corina/corina34_cracker 3.40 0067  02.08.2006

@<TRIPOS>MOLECULE
ASD10160037
  45   47    0    0    0
SMALL
NO_CHARGES


@<TRIPOS>ATOM
   1 C1             1.7455    -1.5373     3.5502 C.ar    
   2 C2             1.3161    -2.1473     2.3674 C.ar    
   3 C3             2.8003    -0.6179     3.5152 C.ar    
   4 C4             3.4113    -0.3179     2.3141 C.ar    
   5 C5             2.9805    -0.9269     1.1432 C.ar    
   6 C6             1.9316    -1.8418     1.1743 C.ar    
   7 C7             1.0851    -1.8570     4.8291 C.2     
   8 N8             0.0660    -2.7385     4.8595 N.am    
   9 O9             1.4600    -1.3254     5.8565 O.2     
  10 S10           -0.6757    -3.0975     6.2959 S.o2    
  11 O11           -1.6621    -4.0601     5.9500 O.2     
  12 O12            0.3949    -3.4273     7.1702 O.2     
  13 O13            3.5837    -0.6293    -0.0355 O.3     
  14 C14            4.6725     0.1846    -0.0078 C.ar    
  15 C15            5.9309    -0.3583     0.1484 C.ar    
  16 C16            4.5114     1.5625    -0.1431 C.ar    
  17 C17            5.5913     2.3977    -0.1180 C.ar    
  18 C18            6.8725     1.8770     0.0436 C.ar    
  19 C19            7.0465     0.4860     0.1760 C.ar    
  20 Cl20           1.3992    -2.5994    -0.2941 Cl      
  21 F21            3.2194    -0.0249     4.6545 F       
  22 N22            8.1228     2.4385     0.1076 N.pl3   
  23 N23            9.0704     1.4247     0.2822 N.2     
  24 C24            8.4811     0.2641     0.3267 C.2     
  25 C25            8.4179     3.8701     0.0090 C.3     
  26 C26           -1.4560    -1.5408     6.8040 C.3     
  27 C27            9.1119     4.3373     1.2900 C.3     
  28 C28            9.3363     4.1201    -1.1889 C.3     
  29 H29            0.5028    -2.8576     2.3897 H       
  30 H30            4.2251     0.3915     2.2852 H       
  31 H31           -0.2331    -3.1625     4.0399 H       
  32 H32            6.0542    -1.4265     0.2490 H       
  33 H33            3.5210     1.9743    -0.2695 H       
  34 H34            5.4516     3.4634    -0.2240 H       
  35 H35            8.9672    -0.6919     0.4536 H       
  36 H36            7.4887     4.4243    -0.1237 H       
  37 H37           -2.1716    -1.2279     6.0436 H       
  38 H38           -1.9737    -1.6864     7.7521 H       
  39 H39           -0.6916    -0.7726     6.9216 H       
  40 H40           10.0411     3.7831     1.4227 H       
  41 H41            9.3314     5.4024     1.2166 H       
  42 H42            8.4576     4.1591     2.1434 H       
  43 H43            9.5558     5.1853    -1.2623 H       
  44 H44           10.2655     3.5660    -1.0562 H       
  45 H45            8.8419     3.7873    -2.1015 H       
@<TRIPOS>BOND
   1    1    2 ar
   2    1    3 ar
   3    1    7 1
   4    2    6 ar
   5    2   29 1
   6    3    4 ar
   7    3   21 1
   8    4    5 ar
   9    4   30 1
  10    5    6 ar
  11    5   13 1
  12    6   20 1
  13    7    8 am
  14    7    9 2
  15    8   10 am
  16    8   31 1
  17   10   11 2
  18   10   12 2
  19   10   26 1
  20   13   14 1
  21   14   15 ar
  22   14   16 ar
  23   15   19 ar
  24   15   32 1
  25   16   17 ar
  26   16   33 1
  27   17   18 ar
  28   17   34 1
  29   18   19 ar
  30   18   22 1
  31   19   24 1
  32   22   23 1
  33   22   25 1
  34   23   24 2
  35   24   35 1
  36   25   27 1
  37   25   28 1
  38   25   36 1
  39   26   37 1
  40   26   38 1
  41   26   39 1
  42   27   40 1
  43   27   41 1
  44   27   42 1
  45   28   43 1
  46   28   44 1
  47   28   45 1

#	End of record

