#	Name: ASD13210008
#	Creating user name:	WinNT
#	Creation time:	15. 06. 2019 21:30

#	Modifying user name:	WinNT
#	Modification time:	15. 06. 2019 21:30

#	Program:	/corina/corina34_cracker 3.40 0067  02.08.2006

@<TRIPOS>MOLECULE
ASD13210008
  60   61    0    0    0
SMALL
NO_CHARGES


@<TRIPOS>ATOM
   1 C1            -0.0712     1.4086    -0.0505 C.3     
   2 O2            -0.0504    -0.0203    -0.0477 O.3     
   3 P3            -1.3870    -0.9167    -0.0035 P.3     
   4 O4            -2.3147    -0.3694     1.0114 O.2     
   5 N5            -2.1294    -0.8916    -1.5137 N.3     
   6 C6            -1.2359    -1.4289    -2.5486 C.3     
   7 H7            -0.1998    -1.3090    -2.2320 H       
   8 C8            -1.5358    -2.9142    -2.7603 C.3     
   9 C9            -1.4564    -0.6830    -3.8393 C.2     
  10 O10           -2.2740     0.2051    -3.8918 O.2     
  11 O11           -0.7445    -1.0052    -4.9307 O.3     
  12 C12           -1.0096    -0.2446    -6.1389 C.3     
  13 C13           -0.0899     0.9772    -6.1845 C.3     
  14 C14           -0.7494    -1.1248    -7.3630 C.3     
  15 O15           -1.0042    -2.4324     0.3812 O.3     
  16 C16           -1.9813    -3.4241     0.7035 C.3     
  17 O17           -1.3268    -4.6599     0.9975 O.3     
  18 C18           -0.7023    -4.7558     2.1981 C.ar    
  19 C19           -0.7219    -3.6864     3.0804 C.ar    
  20 C20           -0.0860    -3.7848     4.3023 C.ar    
  21 C21            0.5751    -4.9503     4.6566 C.ar    
  22 Cl22           1.3700    -5.0594     6.1960 Cl      
  23 C23            0.6037    -6.0240     3.7912 C.ar    
  24 C24           -0.0395    -5.9385     2.5542 C.ar    
  25 C25           -0.0170    -7.0845     1.6257 C.2     
  26 O26           -0.5744    -7.0048     0.5479 O.2     
  27 N27            0.6214    -8.2198     1.9719 N.am    
  28 C28            0.5721    -9.3351     1.1286 C.ar    
  29 C29            0.3584    -9.1689    -0.2330 C.ar    
  30 C30            0.3107   -10.2721    -1.0632 C.ar    
  31 C31            0.4753   -11.5412    -0.5399 C.ar    
  32 C32            0.6879   -11.7113     0.8161 C.ar    
  33 C33            0.7426   -10.6119     1.6514 C.ar    
  34 Cl34           1.0167   -10.8253     3.3523 Cl      
  35 N35            0.4235   -12.7206    -1.4329 N.pl3   
  36 O36            0.2359   -12.5724    -2.6272 O.2     
  37 O37            0.5684   -13.8392    -0.9733 O.2     
  38 H38            0.9505     1.7868    -0.0835 H       
  39 H39           -0.6180     1.7622    -0.9246 H       
  40 H40           -0.5621     1.7666     0.8545 H       
  41 H41           -3.0043    -1.3940    -1.4950 H       
  42 H42           -2.5719    -3.0341    -3.0768 H       
  43 H43           -0.8729    -3.3129    -3.5282 H       
  44 H44           -1.3764    -3.4537    -1.8267 H       
  45 H45           -2.0493     0.0829    -6.1413 H       
  46 H46           -0.2754     1.6043    -5.3124 H       
  47 H47            0.9497     0.6497    -6.1821 H       
  48 H48           -0.2889     1.5481    -7.0914 H       
  49 H49           -1.4046    -1.9953    -7.3305 H       
  50 H50           -0.9484    -0.5539    -8.2699 H       
  51 H51            0.2903    -1.4523    -7.3606 H       
  52 H52           -2.5542    -3.1006     1.5726 H       
  53 H53           -2.6530    -3.5613    -0.1439 H       
  54 H54           -1.2350    -2.7749     2.8114 H       
  55 H55           -0.1036    -2.9486     4.9856 H       
  56 H56            1.1199    -6.9305     4.0709 H       
  57 H57            1.1151    -8.2637     2.8057 H       
  58 H58            0.2293    -8.1780    -0.6428 H       
  59 H59            0.1441   -10.1431    -2.1225 H       
  60 H60            0.8155   -12.7040     1.2218 H       
@<TRIPOS>BOND
   1    1    2 1
   2    1   38 1
   3    1   39 1
   4    1   40 1
   5    2    3 1
   6    3    4 2
   7    3    5 1
   8    3   15 1
   9    5    6 1
  10    5   41 1
  11    6    7 1
  12    6    8 1
  13    6    9 1
  14    8   42 1
  15    8   43 1
  16    8   44 1
  17    9   10 2
  18    9   11 1
  19   11   12 1
  20   12   13 1
  21   12   14 1
  22   12   45 1
  23   13   46 1
  24   13   47 1
  25   13   48 1
  26   14   49 1
  27   14   50 1
  28   14   51 1
  29   15   16 1
  30   16   17 1
  31   16   52 1
  32   16   53 1
  33   17   18 1
  34   18   24 ar
  35   18   19 ar
  36   19   20 ar
  37   19   54 1
  38   20   21 ar
  39   20   55 1
  40   21   22 1
  41   21   23 ar
  42   23   24 ar
  43   23   56 1
  44   24   25 1
  45   25   26 2
  46   25   27 am
  47   27   28 1
  48   27   57 1
  49   28   33 ar
  50   28   29 ar
  51   29   30 ar
  52   29   58 1
  53   30   31 ar
  54   30   59 1
  55   31   32 ar
  56   31   35 1
  57   32   33 ar
  58   32   60 1
  59   33   34 1
  60   35   36 2
  61   35   37 2

#	End of record

