#	Name: ASD11030067
#	Creating user name:	WinNT
#	Creation time:	15. 06. 2019 21:29

#	Modifying user name:	WinNT
#	Modification time:	15. 06. 2019 21:29

#	Program:	/corina/corina34_cracker 3.40 0067  02.08.2006

@<TRIPOS>MOLECULE
ASD11030067
  31   31    0    0    0
SMALL
NO_CHARGES


@<TRIPOS>ATOM
   1 C1            -0.0802     1.4796    -0.1105 C.ar    
   2 C2            -0.0373     0.0904    -0.0065 C.ar    
   3 C3            -1.1928    -0.6353     0.0241 C.ar    
   4 C4            -2.4319     0.0140    -0.0495 C.ar    
   5 C5            -2.4793     1.4161    -0.1546 C.ar    
   6 C6            -1.3016     2.1401    -0.1784 C.ar    
   7 C7            -3.6739    -0.7642    -0.0177 C.2     
   8 C8            -3.7391    -1.9608    -0.6470 C.2     
   9 N9             1.1039     2.2086    -0.1408 N.pl3   
  10 C10            2.3926     1.5162    -0.0635 C.3     
  11 C11           -2.5878    -2.4270    -1.5004 C.3     
  12 O12           -3.6743     2.0547    -0.2265 O.3     
  13 C13           -3.6431     3.4795    -0.3317 C.3     
  14 C14           -4.8882    -2.7738    -0.5037 C.2     
  15 O15           -5.8177    -2.3974     0.1854 O.2     
  16 O16           -4.9532    -3.9669    -1.1312 O.3     
  17 H17            0.9157    -0.4147     0.0498 H       
  18 H18           -1.1518    -1.7115     0.1049 H       
  19 H19           -1.3303     3.2168    -0.2585 H       
  20 H20           -4.5368    -0.3828     0.5079 H       
  21 H21            1.0765     3.1755    -0.2132 H       
  22 H22            2.4502     0.9591     0.8717 H       
  23 H23            2.4860     0.8274    -0.9031 H       
  24 H24            3.2006     2.2469    -0.1015 H       
  25 H25           -1.8695    -2.9631    -0.8801 H       
  26 H26           -2.9597    -3.0902    -2.2814 H       
  27 H27           -2.1015    -1.5649    -1.9569 H       
  28 H28           -3.1398     3.8972     0.5403 H       
  29 H29           -3.1034     3.7655    -1.2344 H       
  30 H30           -4.6624     3.8626    -0.3810 H       
  31 H31           -5.7759    -4.4499    -0.9736 H       
@<TRIPOS>BOND
   1    1    2 ar
   2    1    9 1
   3    1    6 ar
   4    2    3 ar
   5    2   17 1
   6    3    4 ar
   7    3   18 1
   8    4    5 ar
   9    4    7 1
  10    5    6 ar
  11    5   12 1
  12    6   19 1
  13    7    8 2
  14    7   20 1
  15    8   11 1
  16    8   14 1
  17    9   10 1
  18    9   21 1
  19   10   22 1
  20   10   23 1
  21   10   24 1
  22   11   25 1
  23   11   26 1
  24   11   27 1
  25   12   13 1
  26   13   28 1
  27   13   29 1
  28   13   30 1
  29   14   15 2
  30   14   16 1
  31   16   31 1

#	End of record

