#	Name: ASD10160363
#	Creating user name:	WinNT
#	Creation time:	15. 06. 2019 21:25

#	Modifying user name:	WinNT
#	Modification time:	15. 06. 2019 21:25

#	Program:	/corina/corina34_cracker 3.40 0067  02.08.2006

@<TRIPOS>MOLECULE
ASD10160363
  24   24    0    0    0
SMALL
NO_CHARGES


@<TRIPOS>ATOM
   1 C1            -0.0167     1.3834     0.0096 C.ar    
   2 C2             0.0021    -0.0041     0.0020 C.ar    
   3 C3             1.2267    -0.6631    -0.0133 C.ar    
   4 C4             2.3851     0.0993    -0.0203 C.ar    
   5 C5             2.2850     1.4791    -0.0119 C.ar    
   6 N6             1.1072     2.0719     0.0026 N.ar    
   7 O7            -1.1599    -0.7091     0.0098 O.3     
   8 C8             3.5385     2.3156    -0.0194 C.3     
   9 C9             3.1621     3.7985    -0.0079 C.3     
  10 C10            2.4582     4.1358     1.3081 C.3     
  11 C11            4.4281     4.6471    -0.1412 C.3     
  12 F12            4.3034     2.0198     1.1140 F       
  13 F13            4.2815     2.0320    -1.1704 F       
  14 Cl14           3.9420    -0.6684    -0.0388 Cl      
  15 H15           -0.9625     1.9047     0.0170 H       
  16 H16            1.2743    -1.7420    -0.0192 H       
  17 H17           -1.5049    -0.9084    -0.8713 H       
  18 H18            2.4933     4.0101    -0.8422 H       
  19 H19            3.1270     3.9242     2.1424 H       
  20 H20            2.1901     5.1922     1.3164 H       
  21 H21            1.5563     3.5312     1.4031 H       
  22 H22            4.9295     4.4069    -1.0787 H       
  23 H23            4.1599     5.7036    -0.1329 H       
  24 H24            5.0969     4.4355     0.6931 H       
@<TRIPOS>BOND
   1    1    2 ar
   2    1    6 ar
   3    1   15 1
   4    2    3 ar
   5    2    7 1
   6    3    4 ar
   7    3   16 1
   8    4    5 ar
   9    4   14 1
  10    5    6 ar
  11    5    8 1
  12    7   17 1
  13    8    9 1
  14    8   12 1
  15    8   13 1
  16    9   10 1
  17    9   11 1
  18    9   18 1
  19   10   19 1
  20   10   20 1
  21   10   21 1
  22   11   22 1
  23   11   23 1
  24   11   24 1

#	End of record

