#	Name: ASD13010027
#	Creating user name:	WinNT
#	Creation time:	15. 06. 2019 21:30

#	Modifying user name:	WinNT
#	Modification time:	15. 06. 2019 21:30

#	Program:	/corina/corina34_cracker 3.40 0067  02.08.2006

@<TRIPOS>MOLECULE
ASD13010027
  50   54    0    0    0
SMALL
NO_CHARGES


@<TRIPOS>ATOM
   1 C1             0.0113     1.3618     0.1925 C.ar    
   2 C2             0.0339    -0.0003     0.2260 C.ar    
   3 C3             1.2134    -0.7029    -0.0616 C.ar    
   4 C4             2.3763    -0.0118    -0.3856 C.ar    
   5 C5             1.1655     2.0743    -0.1299 C.ar    
   6 N6             1.4483     3.4117    -0.2430 N.pl3   
   7 C7             2.3575     1.3805    -0.4215 C.ar    
   8 C8             3.3666     2.4028    -0.7150 C.2     
   9 N9             2.7910     3.5712    -0.5990 N.2     
  10 C10            0.5400     4.4484    -0.0361 C.ar    
  11 S11            5.0499     2.1102    -1.1459 S.3     
  12 C12            5.6924     3.7366    -1.3615 C.ar    
  13 C13            5.6376     4.3479    -2.6089 C.ar    
  14 C14            6.2503     4.4142    -0.2833 C.ar    
  15 C15            6.7532     5.6897    -0.4565 C.ar    
  16 C16            6.7020     6.2922    -1.7003 C.ar    
  17 C17            6.1426     5.6237    -2.7740 C.ar    
  18 C18           -1.2661     6.5099     0.3752 C.ar    
  19 C19           -1.6948     5.3050    -0.1902 C.ar    
  20 C20           -0.7953     4.2834    -0.3931 C.ar    
  21 C21            0.9690     5.6445     0.5322 C.ar    
  22 C22            0.0749     6.6702     0.7378 C.ar    
  23 C23           -2.2269     7.6066     0.5940 C.2     
  24 O24           -3.3928     7.4640     0.2829 O.2     
  25 O25           -1.8121     8.7671     1.1390 O.3     
  26 C26            1.2207    -2.1786    -0.0198 C.2     
  27 O27            0.1779    -2.7880     0.1192 O.2     
  28 N28            2.3834    -2.8503    -0.1358 N.am    
  29 Cl29           4.9362     3.5096    -3.9576 Cl      
  30 Cl30           6.3146     3.6591     1.2786 Cl      
  31 C31            2.8008    -4.2599    -0.0934 C.3     
  32 C32            3.7921    -2.4967    -0.3669 C.3     
  33 C33            4.1786    -3.7812     0.3847 C.3     
  34 H34           -0.9043     1.8908     0.4119 H       
  35 H35           -0.8650    -0.5440     0.4767 H       
  36 H36            3.2860    -0.5501    -0.6072 H       
  37 H37            7.1864     6.2168     0.3807 H       
  38 H38            7.0959     7.2891    -1.8324 H       
  39 H39            6.1008     6.0991    -3.7428 H       
  40 H40           -2.7298     5.1778    -0.4715 H       
  41 H41           -1.1257     3.3526    -0.8301 H       
  42 H42            2.0048     5.7675     0.8123 H       
  43 H43            0.4093     7.5995     1.1748 H       
  44 H44           -2.4784     9.4569     1.2630 H       
  45 H45            2.2641    -4.8494     0.6499 H       
  46 H46            2.8228    -4.7357    -1.0738 H       
  47 H47            4.0753    -2.5078    -1.4194 H       
  48 H48            4.0999    -1.5841     0.1434 H       
  49 H49            4.2606    -3.6631     1.4651 H       
  50 H50            5.0170    -4.3198    -0.0571 H       
@<TRIPOS>BOND
   1    1    2 ar
   2    1    5 ar
   3    1   34 1
   4    2    3 ar
   5    2   35 1
   6    3    4 ar
   7    3   26 1
   8    4    7 ar
   9    4   36 1
  10    5    7 ar
  11    5    6 1
  12    6    9 1
  13    6   10 1
  14    7    8 1
  15    8    9 2
  16    8   11 1
  17   10   21 ar
  18   10   20 ar
  19   11   12 1
  20   12   14 ar
  21   12   13 ar
  22   13   17 ar
  23   13   29 1
  24   14   15 ar
  25   14   30 1
  26   15   16 ar
  27   15   37 1
  28   16   17 ar
  29   16   38 1
  30   17   39 1
  31   18   19 ar
  32   18   22 ar
  33   18   23 1
  34   19   20 ar
  35   19   40 1
  36   20   41 1
  37   21   22 ar
  38   21   42 1
  39   22   43 1
  40   23   24 2
  41   23   25 1
  42   25   44 1
  43   26   27 2
  44   26   28 am
  45   28   31 1
  46   28   32 1
  47   31   33 1
  48   31   45 1
  49   31   46 1
  50   32   33 1
  51   32   47 1
  52   32   48 1
  53   33   49 1
  54   33   50 1

#	End of record

