#	Name: ASD10950050
#	Creating user name:	WinNT
#	Creation time:	15. 06. 2019 21:28

#	Modifying user name:	WinNT
#	Modification time:	15. 06. 2019 21:28

#	Program:	/corina/corina34_cracker 3.40 0067  02.08.2006

@<TRIPOS>MOLECULE
ASD10950050
  59   63    0    0    0
SMALL
NO_CHARGES


@<TRIPOS>ATOM
   1 C1             1.5442     1.3425     1.7290 C.3     
   2 O2             1.2879    -0.0553     1.4311 O.3     
   3 C3             0.0008    -0.4216     1.2764 C.2     
   4 O4            -0.8832     0.4041     1.3873 O.2     
   5 C5            -0.3356    -1.8274     0.9718 C.ar    
   6 C6            -1.6686    -2.2105     0.8109 C.ar    
   7 C7            -1.9756    -3.5250     0.5266 C.ar    
   8 C8            -0.9661    -4.4629     0.4010 C.ar    
   9 C9             0.3569    -4.0901     0.5593 C.ar    
  10 C10            0.6784    -2.7779     0.8380 C.ar    
  11 C11           -1.3093    -5.8972     0.0908 C.3     
  12 N12           -0.4642    -6.3933    -1.0016 N.am    
  13 C13           -0.4090    -5.8532    -2.3623 C.3     
  14 C14            0.6600    -4.7610    -2.4345 C.3     
  15 C15            0.7167    -4.2053    -3.8342 C.2     
  16 C16            1.5511    -4.5902    -4.8129 C.2     
  17 N17            1.3097    -3.8611    -5.9450 N.pl3   
  18 C18            0.2878    -2.9664    -5.7164 C.ar    
  19 C19           -0.1324    -3.1473    -4.3866 C.ar    
  20 C20           -1.1688    -2.3659    -3.8708 C.ar    
  21 C21           -1.7703    -1.4284    -4.6618 C.ar    
  22 C22           -1.3601    -1.2456    -5.9755 C.ar    
  23 C23           -0.3424    -2.0089    -6.5066 C.ar    
  24 Cl24           0.1600    -1.7684    -8.1508 Cl      
  25 C25            0.2515    -7.4314    -0.5323 C.2     
  26 O26            1.0538    -8.0746    -1.1795 O.2     
  27 C27           -0.0822    -7.6735     0.8873 C.2     
  28 C28           -1.0109    -6.7727     1.2855 C.2     
  29 C29           -1.6109    -6.6668     2.6187 C.2     
  30 O30           -0.9247    -6.3470     3.5710 O.2     
  31 C31           -3.0503    -6.9487     2.8061 C.ar    
  32 C32           -3.6457    -6.8065     4.0657 C.ar    
  33 C33           -4.9961    -7.0823     4.1875 C.ar    
  34 C34           -5.7082    -7.4858     3.0722 C.ar    
  35 N35           -5.1208    -7.6112     1.8971 N.ar    
  36 C36           -3.8404    -7.3556     1.7289 C.ar    
  37 O37            0.4545    -8.6418     1.6647 O.3     
  38 H38            2.6179     1.5019     1.8286 H       
  39 H39            1.1583     1.9631     0.9203 H       
  40 H40            1.0489     1.6120     2.6618 H       
  41 H41           -2.4575    -1.4795     0.9090 H       
  42 H42           -3.0063    -3.8227     0.4022 H       
  43 H43            1.1400    -4.8273     0.4602 H       
  44 H44            1.7115    -2.4883     0.9613 H       
  45 H45           -2.3614    -5.9798    -0.1821 H       
  46 H46           -0.1598    -6.6522    -3.0606 H       
  47 H47           -1.3787    -5.4304    -2.6250 H       
  48 H48            0.4108    -3.9620    -1.7362 H       
  49 H49            1.6297    -5.1837    -2.1718 H       
  50 H50            2.3021    -5.3608    -4.7200 H       
  51 H51            1.7873    -3.9593    -6.7835 H       
  52 H52           -1.4939    -2.5027    -2.8500 H       
  53 H53           -2.5716    -0.8247    -4.2620 H       
  54 H54           -1.8456    -0.5007    -6.5885 H       
  55 H55           -3.0657    -6.4902     4.9201 H       
  56 H56           -5.4891    -6.9840     5.1434 H       
  57 H57           -6.7623    -7.7020     3.1647 H       
  58 H58           -3.3954    -7.4696     0.7515 H       
  59 H59            1.1047    -9.1953     1.2108 H       
@<TRIPOS>BOND
   1    1    2 1
   2    1   38 1
   3    1   39 1
   4    1   40 1
   5    2    3 1
   6    3    4 2
   7    3    5 1
   8    5    6 ar
   9    5   10 ar
  10    6    7 ar
  11    6   41 1
  12    7    8 ar
  13    7   42 1
  14    8    9 ar
  15    8   11 1
  16    9   10 ar
  17    9   43 1
  18   10   44 1
  19   11   12 1
  20   11   28 1
  21   11   45 1
  22   12   13 1
  23   12   25 am
  24   13   14 1
  25   13   46 1
  26   13   47 1
  27   14   15 1
  28   14   48 1
  29   14   49 1
  30   15   16 2
  31   15   19 1
  32   16   17 1
  33   16   50 1
  34   17   18 1
  35   17   51 1
  36   18   19 ar
  37   18   23 ar
  38   19   20 ar
  39   20   21 ar
  40   20   52 1
  41   21   22 ar
  42   21   53 1
  43   22   23 ar
  44   22   54 1
  45   23   24 1
  46   25   26 2
  47   25   27 1
  48   27   28 2
  49   27   37 1
  50   28   29 1
  51   29   30 2
  52   29   31 1
  53   31   32 ar
  54   31   36 ar
  55   32   33 ar
  56   32   55 1
  57   33   34 ar
  58   33   56 1
  59   34   35 ar
  60   34   57 1
  61   35   36 ar
  62   36   58 1
  63   37   59 1

#	End of record

