#	Name: ASD10410192
#	Creating user name:	WinNT
#	Creation time:	15. 06. 2019 21:27

#	Modifying user name:	WinNT
#	Modification time:	15. 06. 2019 21:27

#	Program:	/corina/corina34_cracker 3.40 0067  02.08.2006

@<TRIPOS>MOLECULE
ASD10410192
  53   56    0    0    0
SMALL
NO_CHARGES


@<TRIPOS>ATOM
   1 C1            -0.0183     1.3924    -0.0814 C.ar    
   2 C2            -0.0057     0.0095     0.0247 C.ar    
   3 C3             1.2007    -0.6690     0.1161 C.ar    
   4 C4             2.3904     0.0319     0.1011 C.ar    
   5 C5             2.3788     1.4166    -0.0056 C.ar    
   6 C6             1.1705     2.0951    -0.0965 C.ar    
   7 O7            -1.1769    -0.6816     0.0396 O.3     
   8 N8             3.5843     2.1280    -0.0204 N.pl3   
   9 C9             3.6713     3.3385    -0.7080 C.2     
  10 N10            4.7094     4.1400    -0.7102 N.2     
  11 N11            2.7112     3.8664    -1.4764 N.2     
  12 C12            3.1221     5.0132    -1.9736 C.2     
  13 N13            4.3787     5.2367    -1.5224 N.pl3   
  14 C14            5.1864     6.3394    -1.8085 C.ar    
  15 N15            2.3997     5.8416    -2.8112 N.pl3   
  16 C16            6.1902     6.7062    -0.9204 C.ar    
  17 C17           -1.0897    -2.1036     0.1511 C.3     
  18 C18           -2.4976    -2.7025     0.1512 C.3     
  19 N19           -3.1360    -2.4529    -1.1481 N.3     
  20 C20           -4.3927    -3.2137    -1.2741 C.3     
  21 C21           -5.5158    -2.1963    -1.5653 C.3     
  22 C22           -4.7456    -0.9834    -2.1505 C.3     
  23 C23           -3.4360    -1.0160    -1.3238 C.3     
  24 N24            4.9922     7.0222    -2.9258 N.ar    
  25 C25            5.7324     8.0691    -3.2343 C.ar    
  26 C26            6.7446     8.4930    -2.3951 C.ar    
  27 C27            6.9840     7.8010    -1.2162 C.ar    
  28 C28            8.0796     8.2348    -0.2768 C.3     
  29 F29            8.7246     9.3603    -0.8007 F       
  30 F30            7.5275     8.5514     0.9690 F       
  31 F31            9.0039     7.1954    -0.1267 F       
  32 H32           -0.9579     1.9196    -0.1567 H       
  33 H33            1.2095    -1.7458     0.1994 H       
  34 H34            3.3296    -0.4964     0.1726 H       
  35 H35            1.1605     3.1718    -0.1799 H       
  36 H36            4.3591     1.7791     0.4475 H       
  37 H37            1.5022     5.5935    -3.0827 H       
  38 H38            2.7902     6.6713    -3.1276 H       
  39 H39            6.3487     6.1449    -0.0114 H       
  40 H40           -0.5262    -2.5004    -0.6934 H       
  41 H41           -0.5836    -2.3648     1.0805 H       
  42 H42           -2.4355    -3.7767     0.3252 H       
  43 H43           -3.0891    -2.2400     0.9414 H       
  44 H44           -4.3146    -3.9252    -2.0962 H       
  45 H45           -4.6020    -3.7408    -0.3433 H       
  46 H46           -6.2180    -2.5962    -2.2968 H       
  47 H47           -6.0317    -1.9182    -0.6463 H       
  48 H48           -4.5410    -1.1258    -3.2117 H       
  49 H49           -5.2915    -0.0554    -1.9808 H       
  50 H50           -3.5865    -0.5386    -0.3555 H       
  51 H51           -2.6306    -0.5241    -1.8692 H       
  52 H52            5.5452     8.6017    -4.1550 H       
  53 H53            7.3459     9.3514    -2.6557 H       
@<TRIPOS>BOND
   1    1    2 ar
   2    1    6 ar
   3    1   32 1
   4    2    3 ar
   5    2    7 1
   6    3    4 ar
   7    3   33 1
   8    4    5 ar
   9    4   34 1
  10    5    6 ar
  11    5    8 1
  12    6   35 1
  13    7   17 1
  14    8    9 1
  15    8   36 1
  16    9   10 2
  17    9   11 1
  18   10   13 1
  19   11   12 2
  20   12   13 1
  21   12   15 1
  22   13   14 1
  23   14   16 ar
  24   14   24 ar
  25   15   37 1
  26   15   38 1
  27   16   27 ar
  28   16   39 1
  29   17   18 1
  30   17   40 1
  31   17   41 1
  32   18   19 1
  33   18   42 1
  34   18   43 1
  35   19   20 1
  36   19   23 1
  37   20   21 1
  38   20   44 1
  39   20   45 1
  40   21   22 1
  41   21   46 1
  42   21   47 1
  43   22   23 1
  44   22   48 1
  45   22   49 1
  46   23   50 1
  47   23   51 1
  48   24   25 ar
  49   25   26 ar
  50   25   52 1
  51   26   27 ar
  52   26   53 1
  53   27   28 1
  54   28   29 1
  55   28   30 1
  56   28   31 1

#	End of record

