#	Name: ASD11000281
#	Creating user name:	WinNT
#	Creation time:	15. 06. 2019 21:29

#	Modifying user name:	WinNT
#	Modification time:	15. 06. 2019 21:29

#	Program:	/corina/corina34_cracker 3.40 0067  02.08.2006

@<TRIPOS>MOLECULE
ASD11000281
  29   29    0    0    0
SMALL
NO_CHARGES


@<TRIPOS>ATOM
   1 C1            -0.0158     1.3133     0.0093 C.ar    
   2 N2             0.0021    -0.0041     0.0020 N.ar    
   3 C3             1.1505    -0.6697    -0.0126 C.ar    
   4 C4             2.3561     0.0588    -0.0202 C.ar    
   5 C5             2.2802     1.4550    -0.0120 C.ar    
   6 N6             1.0907     2.0316     0.0026 N.ar    
   7 C7             3.6590    -0.6303    -0.0359 C.2     
   8 O8             3.7041    -1.8445    -0.0425 O.2     
   9 O9             4.8001     0.0863    -0.0430 O.3     
  10 S10           -1.5698     2.1437     0.0211 S.o2    
  11 O11           -1.2988     3.4031    -0.5786 O.2     
  12 O12           -2.4647     1.2211    -0.5850 O.2     
  13 C13           -1.9608     2.3474     1.7807 C.3     
  14 O14            1.1627    -2.0223    -0.0195 O.3     
  15 C15           -0.1045    -2.6826    -0.0104 C.3     
  16 C16            6.0463    -0.6587    -0.0585 C.3     
  17 C17            7.2242     0.3177    -0.0646 C.3     
  18 H18            3.1795     2.0531    -0.0174 H       
  19 H19           -1.1803     2.9380     2.2603 H       
  20 H20           -2.9180     2.8586     1.8833 H       
  21 H21           -2.0191     1.3681     2.2557 H       
  22 H22           -0.6554    -2.3994     0.8864 H       
  23 H23           -0.6728    -2.3904    -0.8934 H       
  24 H24            0.0481    -3.7619    -0.0174 H       
  25 H25            6.1028    -1.2907     0.8278 H       
  26 H26            6.0861    -1.2817    -0.9520 H       
  27 H27            7.1677     0.9496    -0.9509 H       
  28 H28            7.1844     0.9406     0.8289 H       
  29 H29            8.1597    -0.2416    -0.0762 H       
@<TRIPOS>BOND
   1    1    2 ar
   2    1    6 ar
   3    1   10 1
   4    2    3 ar
   5    3    4 ar
   6    3   14 1
   7    4    5 ar
   8    4    7 1
   9    5    6 ar
  10    5   18 1
  11    7    8 2
  12    7    9 1
  13    9   16 1
  14   10   11 2
  15   10   12 2
  16   10   13 1
  17   13   19 1
  18   13   20 1
  19   13   21 1
  20   14   15 1
  21   15   22 1
  22   15   23 1
  23   15   24 1
  24   16   17 1
  25   16   25 1
  26   16   26 1
  27   17   27 1
  28   17   28 1
  29   17   29 1

#	End of record

