#	Name: ASD14580003
#	Creating user name:	WinNT
#	Creation time:	15. 06. 2019 21:31

#	Modifying user name:	WinNT
#	Modification time:	15. 06. 2019 21:31

#	Program:	/corina/corina34_cracker 3.40 0067  02.08.2006

@<TRIPOS>MOLECULE
ASD14580003
  27   29    0    0    0
SMALL
NO_CHARGES


@<TRIPOS>ATOM
   1 C1            -0.0178     1.4600     0.0101 C.2     
   2 C2             0.0021    -0.0041     0.0020 C.ar    
   3 C3             1.2676    -0.6114    -0.0133 C.ar    
   4 Se4            2.5156     0.9155    -0.0163 Du      
   5 N5             1.0963     2.2057     0.0034 N.am    
   6 C6            -1.1084    -0.8793     0.0074 C.ar    
   7 C7            -0.9345    -2.2407    -0.0015 C.ar    
   8 C8             0.3306    -2.8012    -0.0165 C.ar    
   9 C9             1.4377    -1.9656    -0.0219 C.ar    
  10 C10            1.1999     3.6026     0.0095 C.ar    
  11 C11            2.4505     4.2061     0.0009 C.ar    
  12 C12            2.5527     5.5829     0.0069 C.ar    
  13 C13            1.4046     6.3644     0.0216 C.ar    
  14 C14            0.1538     5.7607     0.0302 C.ar    
  15 C15            0.0518     4.3839     0.0185 C.ar    
  16 O16           -1.0940     2.0254     0.0181 O.2     
  17 N17            1.5080     7.7595     0.0281 N.pl3   
  18 H18           -2.1080    -0.4706     0.0191 H       
  19 H19           -1.8005    -2.8860     0.0037 H       
  20 H20            0.4542    -3.8741    -0.0234 H       
  21 H21            2.4325    -2.3858    -0.0340 H       
  22 H22            3.3433     3.5985    -0.0101 H       
  23 H23            3.5254     6.0523     0.0006 H       
  24 H24           -0.7390     6.3682     0.0416 H       
  25 H25           -0.9208     3.9144     0.0207 H       
  26 H26            2.3816     8.1811     0.0224 H       
  27 H27            0.7062     8.3052     0.0384 H       
@<TRIPOS>BOND
   1    1    2 1
   2    1    5 am
   3    1   16 2
   4    2    3 ar
   5    2    6 ar
   6    3    4 1
   7    3    9 ar
   8    4    5 1
   9    5   10 1
  10    6    7 ar
  11    6   18 1
  12    7    8 ar
  13    7   19 1
  14    8    9 ar
  15    8   20 1
  16    9   21 1
  17   10   11 ar
  18   10   15 ar
  19   11   12 ar
  20   11   22 1
  21   12   13 ar
  22   12   23 1
  23   13   14 ar
  24   13   17 1
  25   14   15 ar
  26   14   24 1
  27   15   25 1
  28   17   26 1
  29   17   27 1

#	End of record

