#	Name: ASD13110043
#	Creating user name:	WinNT
#	Creation time:	15. 06. 2019 21:30

#	Modifying user name:	WinNT
#	Modification time:	15. 06. 2019 21:30

#	Program:	/corina/corina34_cracker 3.40 0067  02.08.2006

@<TRIPOS>MOLECULE
ASD13110043
  23   24    0    0    0
SMALL
NO_CHARGES


@<TRIPOS>ATOM
   1 C1            -0.0169     1.3933     0.0097 C.ar    
   2 C2             0.0021    -0.0041     0.0020 C.ar    
   3 C3             1.2335    -0.6801    -0.0134 C.ar    
   4 C4             2.4201     0.0397    -0.0204 C.ar    
   5 C5             2.3864     1.4195    -0.0123 C.ar    
   6 C6             1.1694     2.0938     0.0021 C.ar    
   7 N7             0.9281    -2.0276    -0.0177 N.pl3   
   8 C8            -0.4283    -2.1350    -0.0053 C.2     
   9 N9            -0.9703    -0.9525     0.0062 N.2     
  10 C10           -1.1914    -3.4345    -0.0055 C.3     
  11 N11           -1.5302    -3.8036     1.3755 N.3     
  12 C12           -2.2764    -5.0683     1.4144 C.3     
  13 F13            1.1509     3.4446     0.0091 F       
  14 F14            3.5419     2.1195    -0.0192 F       
  15 H15           -0.9584     1.9223     0.0170 H       
  16 H16            3.3675    -0.4786    -0.0319 H       
  17 H17            1.5629    -2.7610    -0.0282 H       
  18 H18           -2.1069    -3.3182    -0.5855 H       
  19 H19           -0.5765    -4.2169    -0.4502 H       
  20 H20           -0.7021    -3.8545     1.9497 H       
  21 H21           -3.1994    -4.9633     0.8442 H       
  22 H22           -1.6690    -5.8621     0.9795 H       
  23 H23           -2.5145    -5.3180     2.4484 H       
@<TRIPOS>BOND
   1    1    2 ar
   2    1    6 ar
   3    1   15 1
   4    2    9 1
   5    2    3 ar
   6    3    4 ar
   7    3    7 1
   8    4    5 ar
   9    4   16 1
  10    5    6 ar
  11    5   14 1
  12    6   13 1
  13    7    8 1
  14    7   17 1
  15    8   10 1
  16    8    9 2
  17   10   11 1
  18   10   18 1
  19   10   19 1
  20   11   12 1
  21   11   20 1
  22   12   21 1
  23   12   22 1
  24   12   23 1

#	End of record

