#	Name: ASD11000036
#	Creating user name:	WinNT
#	Creation time:	15. 06. 2019 21:28

#	Modifying user name:	WinNT
#	Modification time:	15. 06. 2019 21:28

#	Program:	/corina/corina34_cracker 3.40 0067  02.08.2006

@<TRIPOS>MOLECULE
ASD11000036
  62   65    0    0    0
SMALL
NO_CHARGES


@<TRIPOS>ATOM
   1 C1            -1.4365    -0.0427    -0.5574 C.ar    
   2 C2            -0.9245    -1.3048    -0.3274 C.ar    
   3 C3             0.4467    -1.5119    -0.3512 C.ar    
   4 C4             1.3039    -0.4515    -0.6056 C.ar    
   5 C5             0.7919     0.8106    -0.8357 C.ar    
   6 C6            -0.5794     1.0176    -0.8123 C.ar    
   7 O7            -1.0834     2.2600    -1.0392 O.3     
   8 C8            -2.5050     2.4005    -1.0001 C.3     
   9 O9             0.9508    -2.7544    -0.1247 O.3     
  10 C10            2.3723    -2.8950    -0.1644 C.3     
  11 C11            2.7485    -4.3521     0.1115 C.3     
  12 N12            2.2538    -4.7414     1.4363 N.am    
  13 C13            2.1315    -5.2379    -0.9419 C.ar    
  14 C14            1.4323    -6.3816    -0.6253 C.ar    
  15 C15            2.2889    -4.8667    -2.2705 C.ar    
  16 C16            0.9002    -7.1655    -1.6421 C.ar    
  17 C17            1.0576    -6.8025    -2.9668 C.ar    
  18 C18            1.7552    -5.6411    -3.2845 C.ar    
  19 C19            2.2037    -6.1806     1.7427 C.3     
  20 C20            1.1964    -6.8280     0.7938 C.3     
  21 C21            1.8614    -3.8189     2.3370 C.2     
  22 O22            2.0221    -2.6365     2.1054 O.2     
  23 C23            1.2354    -4.2450     3.6068 C.ar    
  24 C24            0.5097    -5.4356     3.6655 C.ar    
  25 C25            1.3725    -3.4610     4.7537 C.ar    
  26 C26            0.7859    -3.8642     5.9352 C.ar    
  27 C27            0.0628    -5.0430     5.9852 C.ar    
  28 C28           -0.0721    -5.8275     4.8537 C.ar    
  29 O29            1.9122    -5.2707    -4.5836 O.3     
  30 C30            2.6402    -4.0662    -4.8313 C.3     
  31 O31            0.5331    -7.5765    -3.9544 O.3     
  32 C32           -0.1703    -8.7534    -3.5518 C.3     
  33 C33            0.9332    -3.0195     7.1744 C.3     
  34 H34           -2.5044     0.1177    -0.5433 H       
  35 H35           -1.5919    -2.1303    -0.1286 H       
  36 H36            2.3716    -0.6126    -0.6235 H       
  37 H37            1.4593     1.6363    -1.0334 H       
  38 H38           -2.7730     3.4385    -1.1969 H       
  39 H39           -2.9545     1.7591    -1.7581 H       
  40 H40           -2.8717     2.1110    -0.0153 H       
  41 H41            2.7387    -2.6053    -1.1492 H       
  42 H42            2.8221    -2.2538     0.5937 H       
  43 H43            3.8330    -4.4581     0.0838 H       
  44 H44            2.8323    -3.9657    -2.5141 H       
  45 H45            0.3588    -8.0668    -1.3951 H       
  46 H46            3.1883    -6.6239     1.5936 H       
  47 H47            1.8850    -6.3271     2.7747 H       
  48 H48            0.1876    -6.5459     1.0953 H       
  49 H49            1.2965    -7.9119     0.8500 H       
  50 H50            0.4034    -6.0486     2.7828 H       
  51 H51            1.9369    -2.5410     4.7160 H       
  52 H52           -0.3945    -5.3543     6.9128 H       
  53 H53           -0.6377    -6.7464     4.8994 H       
  54 H54            2.1349    -3.2303    -4.3475 H       
  55 H55            3.6491    -4.1624    -4.4302 H       
  56 H56            2.6917    -3.8872    -5.9053 H       
  57 H57           -1.0132    -8.4745    -2.9194 H       
  58 H58           -0.5363    -9.2777    -4.4345 H       
  59 H59            0.5019    -9.4057    -2.9944 H       
  60 H60            0.1143    -2.3018     7.2244 H       
  61 H61            0.9092    -3.6602     8.0559 H       
  62 H62            1.8828    -2.4854     7.1392 H       
@<TRIPOS>BOND
   1    1    2 ar
   2    1    6 ar
   3    1   34 1
   4    2    3 ar
   5    2   35 1
   6    3    4 ar
   7    3    9 1
   8    4    5 ar
   9    4   36 1
  10    5    6 ar
  11    5   37 1
  12    6    7 1
  13    7    8 1
  14    8   38 1
  15    8   39 1
  16    8   40 1
  17    9   10 1
  18   10   11 1
  19   10   41 1
  20   10   42 1
  21   11   12 1
  22   11   13 1
  23   11   43 1
  24   12   19 1
  25   12   21 am
  26   13   14 ar
  27   13   15 ar
  28   14   16 ar
  29   14   20 1
  30   15   18 ar
  31   15   44 1
  32   16   17 ar
  33   16   45 1
  34   17   18 ar
  35   17   31 1
  36   18   29 1
  37   19   20 1
  38   19   46 1
  39   19   47 1
  40   20   48 1
  41   20   49 1
  42   21   22 2
  43   21   23 1
  44   23   24 ar
  45   23   25 ar
  46   24   28 ar
  47   24   50 1
  48   25   26 ar
  49   25   51 1
  50   26   27 ar
  51   26   33 1
  52   27   28 ar
  53   27   52 1
  54   28   53 1
  55   29   30 1
  56   30   54 1
  57   30   55 1
  58   30   56 1
  59   31   32 1
  60   32   57 1
  61   32   58 1
  62   32   59 1
  63   33   60 1
  64   33   61 1
  65   33   62 1

#	End of record

