#	Name: ASD10160185
#	Creating user name:	WinNT
#	Creation time:	15. 06. 2019 21:25

#	Modifying user name:	WinNT
#	Modification time:	15. 06. 2019 21:25

#	Program:	/corina/corina34_cracker 3.40 0067  02.08.2006

@<TRIPOS>MOLECULE
ASD10160185
  33   34    0    0    0
SMALL
NO_CHARGES


@<TRIPOS>ATOM
   1 C1            -0.0335     1.4701     0.0134 C.2     
   2 C2            -0.0094    -0.0043     0.0045 C.ar    
   3 C3             1.2056    -0.6857    -0.1326 C.ar    
   4 C4             1.2229    -2.0661    -0.1399 C.ar    
   5 C5             0.0378    -2.7777    -0.0120 C.ar    
   6 C6            -1.1729    -2.1036     0.1240 C.ar    
   7 C7            -1.1994    -0.7258     0.1387 C.ar    
   8 O8             1.0032     2.0958    -0.0984 O.2     
   9 N9            -1.2051     2.1242     0.1399 N.am    
  10 S10           -1.2321     3.7800     0.1500 S.o2    
  11 O11           -2.6042     4.1070     0.3221 O.2     
  12 O12           -0.2650     4.1403     1.1267 O.2     
  13 C13           -0.6684     4.2519    -1.5084 C.3     
  14 F14           -2.3231    -2.8015     0.2476 F       
  15 F15            2.3591     0.0062    -0.2579 F       
  16 O16            0.0594    -4.1351    -0.0202 O.3     
  17 C17           -0.1514    -4.7678    -1.2002 C.ar    
  18 C18           -0.0366    -6.1530    -1.2656 C.ar    
  19 C19           -0.2527    -6.7918    -2.4694 C.ar    
  20 C20           -0.5821    -6.0117    -3.5879 C.ar    
  21 C21           -0.6784    -4.6269    -3.4423 C.ar    
  22 N22           -0.4687    -4.0594    -2.2727 N.ar    
  23 C23           -0.8155    -6.6267    -4.8599 C.1     
  24 N24           -1.0007    -7.1146    -5.8689 N.1     
  25 H25            2.1597    -2.5931    -0.2455 H       
  26 H26           -2.1386    -0.2041     0.2491 H       
  27 H27           -2.0325     1.6251     0.2251 H       
  28 H28           -1.3472     3.8384    -2.2543 H       
  29 H29           -0.6551     5.3386    -1.5920 H       
  30 H30            0.3358     3.8624    -1.6753 H       
  31 H31            0.2191    -6.7219    -0.3838 H       
  32 H32           -0.1699    -7.8657    -2.5487 H       
  33 H33           -0.9313    -4.0156    -4.2959 H       
@<TRIPOS>BOND
   1    1    2 1
   2    1    8 2
   3    1    9 am
   4    2    3 ar
   5    2    7 ar
   6    3    4 ar
   7    3   15 1
   8    4    5 ar
   9    4   25 1
  10    5    6 ar
  11    5   16 1
  12    6    7 ar
  13    6   14 1
  14    7   26 1
  15    9   10 am
  16    9   27 1
  17   10   11 2
  18   10   12 2
  19   10   13 1
  20   13   28 1
  21   13   29 1
  22   13   30 1
  23   16   17 1
  24   17   18 ar
  25   17   22 ar
  26   18   19 ar
  27   18   31 1
  28   19   20 ar
  29   19   32 1
  30   20   21 ar
  31   20   23 1
  32   21   22 ar
  33   21   33 1
  34   23   24 3

#	End of record

