#	Name: ASD10420099
#	Creating user name:	WinNT
#	Creation time:	15. 06. 2019 21:27

#	Modifying user name:	WinNT
#	Modification time:	15. 06. 2019 21:27

#	Program:	/corina/corina34_cracker 3.40 0067  02.08.2006

@<TRIPOS>MOLECULE
ASD10420099
  58   62    0    0    0
SMALL
NO_CHARGES


@<TRIPOS>ATOM
   1 N1            -0.1952     0.2259    -0.6616 N.pl3   
   2 C2            -0.6201    -1.0002    -1.0979 C.2     
   3 C3            -2.0271    -0.9811    -1.1538 C.2     
   4 C4            -2.4413     0.2842    -0.7413 C.2     
   5 C5            -1.3064     1.0185    -0.4351 C.2     
   6 C6             1.1378     0.4818    -0.5154 C.2     
   7 C7             2.0605    -0.4611    -0.7960 C.2     
   8 C8             1.6593    -1.7330    -1.2472 C.2     
   9 C9             0.3136    -2.0012    -1.3968 C.2     
  10 C10           -1.2870     2.3569     0.0234 C.2     
  11 O11           -1.3138     2.5918     1.2185 O.2     
  12 C12           -3.8660     0.7652    -0.6412 C.3     
  13 C13           -4.3955     0.4826     0.7411 C.ar    
  14 C14           -4.5698     1.5187     1.6392 C.ar    
  15 C15           -4.7121    -0.8117     1.1085 C.ar    
  16 C16           -5.1981    -1.0724     2.3764 C.ar    
  17 C17           -5.3682    -0.0390     3.2776 C.ar    
  18 C18           -2.9039    -2.0981    -1.5729 C.ar    
  19 C19           -2.9547    -3.2702    -0.8178 C.ar    
  20 C20           -3.7737    -4.3074    -1.2137 C.ar    
  21 C21           -4.5433    -4.1873    -2.3571 C.ar    
  22 C22           -4.4974    -3.0276    -3.1103 C.ar    
  23 C23           -3.6871    -1.9808    -2.7216 C.ar    
  24 C24           -4.2309     2.9307     1.2362 C.3     
  25 C25           -5.0563     1.2589     2.9090 C.ar    
  26 F26           -5.2219     2.2701     3.7895 F       
  27 O27            2.5844    -2.6841    -1.5309 O.3     
  28 N28           -1.2389     3.3719    -0.8620 N.am    
  29 C29           -1.3340     4.7695    -0.4140 C.3     
  30 C30           -0.1663     5.5554    -1.0199 C.3     
  31 N31           -0.1588     5.3693    -2.4771 N.3     
  32 C32            0.0679     3.9624    -2.8335 C.3     
  33 C33           -1.0840     3.1115    -2.3012 C.3     
  34 H34            1.4582     1.4537    -0.1704 H       
  35 H35            3.1106    -0.2397    -0.6744 H       
  36 H36           -0.0156    -2.9704    -1.7413 H       
  37 H37           -3.9016     1.8378    -0.8317 H       
  38 H38           -4.4778     0.2447    -1.3781 H       
  39 H39           -4.5801    -1.6200     0.4044 H       
  40 H40           -5.4451    -2.0842     2.6623 H       
  41 H41           -5.7485    -0.2428     4.2677 H       
  42 H42           -2.3538    -3.3654     0.0746 H       
  43 H43           -3.8139    -5.2152    -0.6300 H       
  44 H44           -5.1823    -5.0024    -2.6633 H       
  45 H45           -5.1006    -2.9399    -4.0019 H       
  46 H46           -3.6522    -1.0760    -3.3103 H       
  47 H47           -5.0798     3.3736     0.7153 H       
  48 H48           -4.0039     3.5180     2.1260 H       
  49 H49           -3.3637     2.9218     0.5758 H       
  50 H50           -2.2778     5.1985    -0.7505 H       
  51 H51           -1.2773     4.8100     0.6738 H       
  52 H52           -0.2819     6.6144    -0.7891 H       
  53 H53            0.7725     5.1920    -0.6020 H       
  54 H54           -1.0125     5.7139    -2.8900 H       
  55 H55            0.1222     3.8660    -3.9178 H       
  56 H56            1.0035     3.6211    -2.3903 H       
  57 H57           -0.8621     2.0562    -2.4606 H       
  58 H58           -2.0034     3.3780    -2.8226 H       
@<TRIPOS>BOND
   1    1    2 1
   2    1    6 1
   3    1    5 1
   4    2    3 2
   5    2    9 1
   6    3    4 1
   7    3   18 1
   8    4    5 2
   9    4   12 1
  10    5   10 1
  11    6    7 2
  12    6   34 1
  13    7    8 1
  14    7   35 1
  15    8    9 2
  16    8   27 1
  17    9   36 1
  18   10   11 2
  19   10   28 am
  20   12   13 1
  21   12   37 1
  22   12   38 1
  23   13   14 ar
  24   13   15 ar
  25   14   24 1
  26   14   25 ar
  27   15   16 ar
  28   15   39 1
  29   16   17 ar
  30   16   40 1
  31   17   25 ar
  32   17   41 1
  33   18   19 ar
  34   18   23 ar
  35   19   20 ar
  36   19   42 1
  37   20   21 ar
  38   20   43 1
  39   21   22 ar
  40   21   44 1
  41   22   23 ar
  42   22   45 1
  43   23   46 1
  44   24   47 1
  45   24   48 1
  46   24   49 1
  47   25   26 1
  48   28   29 1
  49   28   33 1
  50   29   30 1
  51   29   50 1
  52   29   51 1
  53   30   31 1
  54   30   52 1
  55   30   53 1
  56   31   32 1
  57   31   54 1
  58   32   33 1
  59   32   55 1
  60   32   56 1
  61   33   57 1
  62   33   58 1

#	End of record

