#	Name: ASD10420118
#	Creating user name:	WinNT
#	Creation time:	15. 06. 2019 21:27

#	Modifying user name:	WinNT
#	Modification time:	15. 06. 2019 21:27

#	Program:	/corina/corina34_cracker 3.40 0067  02.08.2006

@<TRIPOS>MOLECULE
ASD10420118
  26   27    0    0    0
SMALL
NO_CHARGES


@<TRIPOS>ATOM
   1 C1            -0.0179     1.4700     0.0101 C.2     
   2 C2            -4.8108    -4.3078     0.0240 C.ar    
   3 C3            -3.8288    -4.6058    -0.9067 C.ar    
   4 C4            -2.6456    -3.8954    -0.9175 C.ar    
   5 C5            -1.1951    -0.7210     0.0096 C.ar    
   6 C6             0.0021    -0.0041     0.0020 C.ar    
   7 C7             1.2245    -0.6917    -0.0138 C.ar    
   8 C8            -4.6110    -3.2958     0.9486 C.ar    
   9 C9            -3.4297    -2.5788     0.9459 C.ar    
  10 C10           -2.4383    -2.8765     0.0094 C.ar    
  11 C11           -1.1679    -2.1102     0.0014 C.ar    
  12 C12            0.0538    -2.7856    -0.0143 C.ar    
  13 C13            1.2385    -2.0796    -0.0219 C.ar    
  14 O14            1.0260     2.0918     0.0035 O.2     
  15 O15           -1.1939     2.1278     0.0193 O.3     
  16 O16            2.3919    -0.0010    -0.0217 O.3     
  17 F17           -5.9693    -5.0028     0.0264 F       
  18 F18           -3.2350    -1.5915     1.8473 F       
  19 I19            3.0651    -3.1053    -0.0462 I       
  20 H20           -3.9894    -5.3960    -1.6252 H       
  21 H21           -1.8812    -4.1294    -1.6437 H       
  22 H22           -2.1398    -0.1978     0.0263 H       
  23 H23           -5.3792    -3.0670     1.6723 H       
  24 H24            0.0712    -3.8654    -0.0207 H       
  25 H25           -1.1564     3.0941     0.0244 H       
  26 H26            2.7392     0.1946     0.8594 H       
@<TRIPOS>BOND
   1    1    6 1
   2    1   14 2
   3    1   15 1
   4    2    3 ar
   5    2    8 ar
   6    2   17 1
   7    3    4 ar
   8    3   20 1
   9    4   10 ar
  10    4   21 1
  11    5    6 ar
  12    5   11 ar
  13    5   22 1
  14    6    7 ar
  15    7   13 ar
  16    7   16 1
  17    8    9 ar
  18    8   23 1
  19    9   10 ar
  20    9   18 1
  21   10   11 1
  22   11   12 ar
  23   12   13 ar
  24   12   24 1
  25   13   19 1
  26   15   25 1
  27   16   26 1

#	End of record

