#	Name: ASD11670003
#	Creating user name:	WinNT
#	Creation time:	15. 06. 2019 21:29

#	Modifying user name:	WinNT
#	Modification time:	15. 06. 2019 21:29

#	Program:	/corina/corina34_cracker 3.40 0067  02.08.2006

@<TRIPOS>MOLECULE
ASD11670003
  16   16    0    0    0
SMALL
NO_CHARGES


@<TRIPOS>ATOM
   1 O1            -0.0163     1.3533     0.0095 O.3     
   2 O2             0.0572    -4.8448    -1.0820 O.2     
   3 C3             0.0595    -4.2468    -0.0267 C.2     
   4 C4             0.0397    -2.7784    -0.0146 C.ar    
   5 C5             0.0423    -2.0860     1.2026 C.ar    
   6 C6             0.0231    -0.7059     1.2073 C.ar    
   7 O7             0.0259    -0.0300     2.3875 O.3     
   8 C8             0.0021    -0.0041     0.0020 C.ar    
   9 C9            -0.0005    -0.6901    -1.2060 C.ar    
  10 C10            0.0239    -2.0666    -1.2202 C.ar    
  11 H11            0.8616     1.7586     0.0033 H       
  12 H12            0.0761    -4.7943     0.9042 H       
  13 H13            0.0585    -2.6304     2.1352 H       
  14 H14            0.9101     0.1778     2.7196 H       
  15 H15           -0.0171    -0.1421    -2.1365 H       
  16 H16            0.0267    -2.5971    -2.1609 H       
@<TRIPOS>BOND
   1    1    8 1
   2    1   11 1
   3    2    3 2
   4    3    4 1
   5    3   12 1
   6    4    5 ar
   7    4   10 ar
   8    5    6 ar
   9    5   13 1
  10    6    7 1
  11    6    8 ar
  12    7   14 1
  13    8    9 ar
  14    9   10 ar
  15    9   15 1
  16   10   16 1

#	End of record

