#	Name: ASD10410086
#	Creating user name:	WinNT
#	Creation time:	15. 06. 2019 21:26

#	Modifying user name:	WinNT
#	Modification time:	15. 06. 2019 21:26

#	Program:	/corina/corina34_cracker 3.40 0067  02.08.2006

@<TRIPOS>MOLECULE
ASD10410086
  49   52    0    0    0
SMALL
NO_CHARGES


@<TRIPOS>ATOM
   1 C1            -0.0183     1.3924    -0.0813 C.ar    
   2 C2            -0.0057     0.0094     0.0247 C.ar    
   3 C3             1.2007    -0.6691     0.1156 C.ar    
   4 C4             2.3904     0.0319     0.1006 C.ar    
   5 C5             2.3788     1.4166    -0.0054 C.ar    
   6 C6             1.1705     2.0951    -0.0964 C.ar    
   7 O7            -1.1769    -0.6816     0.0400 O.3     
   8 N8             3.5843     2.1280    -0.0202 N.pl3   
   9 C9             3.6712     3.3388    -0.7075 C.2     
  10 N10            4.7093     4.1403    -0.7096 N.2     
  11 N11            2.7110     3.8669    -1.4755 N.2     
  12 C12            3.1220     5.0139    -1.9724 C.2     
  13 N13            4.3784     5.2372    -1.5213 N.pl3   
  14 C14            5.1863     6.3408    -1.8070 C.ar    
  15 N15            2.3996     5.8425    -2.8100 N.pl3   
  16 C16            6.1957     6.7163    -0.9228 C.ar    
  17 C17           -1.0897    -2.1036     0.1513 C.3     
  18 C18           -2.4976    -2.7024     0.1519 C.3     
  19 N19           -3.1365    -2.4528    -1.1471 N.3     
  20 C20           -4.3933    -3.2135    -1.2727 C.3     
  21 C21           -5.5165    -2.1960    -1.5634 C.3     
  22 C22           -4.7464    -0.9831    -2.1488 C.3     
  23 C23           -3.4365    -1.0157    -1.3225 C.3     
  24 N24            4.9994     7.0307    -2.9216 N.ar    
  25 N25            5.7190     8.0503    -3.2216 N.ar    
  26 C26            6.6925     8.4793    -2.4407 C.ar    
  27 C27            6.9700     7.8183    -1.2514 C.ar    
  28 Cl28           7.6302     9.8651    -2.9033 Cl      
  29 H29           -0.9579     1.9196    -0.1565 H       
  30 H30            1.2095    -1.7458     0.1984 H       
  31 H31            3.3296    -0.4965     0.1718 H       
  32 H32            1.1605     3.1718    -0.1793 H       
  33 H33            4.3591     1.7790     0.4474 H       
  34 H34            1.5021     5.5944    -3.0817 H       
  35 H35            2.7901     6.6723    -3.1261 H       
  36 H36            6.3693     6.1661    -0.0098 H       
  37 H37           -0.5265    -2.5003    -0.6934 H       
  38 H38           -0.5833    -2.3649     1.0805 H       
  39 H39           -2.4355    -3.7767     0.3258 H       
  40 H40           -3.0888    -2.2400     0.9424 H       
  41 H41           -4.3155    -3.9249    -2.0949 H       
  42 H42           -4.6023    -3.7407    -0.3419 H       
  43 H43           -6.2190    -2.5958    -2.2947 H       
  44 H44           -6.0320    -1.9180    -0.6442 H       
  45 H45           -4.5423    -1.1254    -3.2100 H       
  46 H46           -5.2923    -0.0550    -1.9788 H       
  47 H47           -3.5867    -0.5385    -0.3542 H       
  48 H48           -2.6313    -0.5238    -1.8682 H       
  49 H49            7.7626     8.1553    -0.5998 H       
@<TRIPOS>BOND
   1    1    2 ar
   2    1    6 ar
   3    1   29 1
   4    2    3 ar
   5    2    7 1
   6    3    4 ar
   7    3   30 1
   8    4    5 ar
   9    4   31 1
  10    5    6 ar
  11    5    8 1
  12    6   32 1
  13    7   17 1
  14    8    9 1
  15    8   33 1
  16    9   10 2
  17    9   11 1
  18   10   13 1
  19   11   12 2
  20   12   13 1
  21   12   15 1
  22   13   14 1
  23   14   16 ar
  24   14   24 ar
  25   15   34 1
  26   15   35 1
  27   16   27 ar
  28   16   36 1
  29   17   18 1
  30   17   37 1
  31   17   38 1
  32   18   19 1
  33   18   39 1
  34   18   40 1
  35   19   20 1
  36   19   23 1
  37   20   21 1
  38   20   41 1
  39   20   42 1
  40   21   22 1
  41   21   43 1
  42   21   44 1
  43   22   23 1
  44   22   45 1
  45   22   46 1
  46   23   47 1
  47   23   48 1
  48   24   25 ar
  49   25   26 ar
  50   26   27 ar
  51   26   28 1
  52   27   49 1

#	End of record

