#	Name: ASD10420039
#	Creating user name:	WinNT
#	Creation time:	15. 06. 2019 21:27

#	Modifying user name:	WinNT
#	Modification time:	15. 06. 2019 21:27

#	Program:	/corina/corina34_cracker 3.40 0067  02.08.2006

@<TRIPOS>MOLECULE
ASD10420039
  48   51    0    0    0
SMALL
NO_CHARGES


@<TRIPOS>ATOM
   1 C1            -0.0170     1.4019     0.0098 C.2     
   2 C2             0.0021    -0.0041     0.0020 C.2     
   3 C3             1.2943    -0.4032    -0.0125 C.2     
   4 N4             2.1080     0.6899    -0.0144 N.pl3   
   5 C5             3.4797     0.7891    -0.0269 C.2     
   6 C6             4.0888     1.9854    -0.0263 C.2     
   7 C7             3.2835     3.2096    -0.0121 C.2     
   8 C8             1.8993     3.0950     0.0005 C.2     
   9 C9             1.3208     1.8207    -0.0008 C.2     
  10 C10            3.9275     4.5322    -0.0106 C.2     
  11 O11            3.2471     5.5396     0.0013 O.2     
  12 O12            5.2725     4.6272    -0.0225 O.3     
  13 C13           -1.2153     2.2700     0.0204 C.ar    
  14 C14           -1.4781     3.0883     1.1201 C.ar    
  15 C15           -2.5970     3.8952     1.1237 C.ar    
  16 C16           -3.4578     3.8945     0.0404 C.ar    
  17 C17           -3.2029     3.0856    -1.0529 C.ar    
  18 C18           -2.0844     2.2783    -1.0715 C.ar    
  19 C19           -1.2045    -0.9070     0.0094 C.3     
  20 C20           -1.6952    -1.1012    -1.4021 C.ar    
  21 C21           -1.1329    -2.0793    -2.2006 C.ar    
  22 C22           -1.5843    -2.2578    -3.4971 C.ar    
  23 C23           -2.5988    -1.4560    -3.9925 C.ar    
  24 C24           -3.1594    -0.4788    -3.1924 C.ar    
  25 C25           -2.7114    -0.3049    -1.8959 C.ar    
  26 C26           -0.0286    -2.9508    -1.6601 C.3     
  27 F27           -1.0351    -3.2133    -4.2785 F       
  28 C28            5.8389     5.9641    -0.0203 C.3     
  29 H29            1.6296    -1.4298    -0.0209 H       
  30 H30            4.0769    -0.1107    -0.0371 H       
  31 H31            5.1671     2.0453    -0.0359 H       
  32 H32            1.2775     3.9779     0.0116 H       
  33 H33           -0.8072     3.0895     1.9664 H       
  34 H34           -2.8018     4.5286     1.9742 H       
  35 H35           -4.3326     4.5278     0.0484 H       
  36 H36           -3.8787     3.0896    -1.8953 H       
  37 H37           -1.8842     1.6507    -1.9274 H       
  38 H38           -0.9330    -1.8727     0.4358 H       
  39 H39           -1.9937    -0.4538     0.6094 H       
  40 H40           -2.9515    -1.5941    -5.0039 H       
  41 H41           -3.9507     0.1467    -3.5786 H       
  42 H42           -3.1533     0.4561    -1.2699 H       
  43 H43           -0.4600    -3.8365    -1.1936 H       
  44 H44            0.6279    -3.2532    -2.4760 H       
  45 H45            0.5451    -2.3931    -0.9199 H       
  46 H46            5.4994     6.5040    -0.9042 H       
  47 H47            5.5158     6.4941     0.8757 H       
  48 H48            6.9269     5.8977    -0.0307 H       
@<TRIPOS>BOND
   1    1    2 1
   2    1    9 2
   3    1   13 1
   4    2    3 2
   5    2   19 1
   6    3    4 1
   7    3   29 1
   8    4    5 1
   9    4    9 1
  10    5    6 2
  11    5   30 1
  12    6    7 1
  13    6   31 1
  14    7    8 2
  15    7   10 1
  16    8    9 1
  17    8   32 1
  18   10   11 2
  19   10   12 1
  20   12   28 1
  21   13   14 ar
  22   13   18 ar
  23   14   15 ar
  24   14   33 1
  25   15   16 ar
  26   15   34 1
  27   16   17 ar
  28   16   35 1
  29   17   18 ar
  30   17   36 1
  31   18   37 1
  32   19   20 1
  33   19   38 1
  34   19   39 1
  35   20   21 ar
  36   20   25 ar
  37   21   22 ar
  38   21   26 1
  39   22   23 ar
  40   22   27 1
  41   23   24 ar
  42   23   40 1
  43   24   25 ar
  44   24   41 1
  45   25   42 1
  46   26   43 1
  47   26   44 1
  48   26   45 1
  49   28   46 1
  50   28   47 1
  51   28   48 1

#	End of record

