#	Name: ASD10340010
#	Creating user name:	WinNT
#	Creation time:	15. 06. 2019 21:26

#	Modifying user name:	WinNT
#	Modification time:	15. 06. 2019 21:26

#	Program:	/corina/corina34_cracker 3.40 0067  02.08.2006

@<TRIPOS>MOLECULE
ASD10340010
  67   71    0    0    0
SMALL
NO_CHARGES


@<TRIPOS>ATOM
   1 C1             0.7387     1.9651    -1.3539 C.ar    
   2 C2             0.5941     0.6109    -1.1182 C.ar    
   3 C3             1.7125    -0.1889    -0.9738 C.ar    
   4 C4             2.9752     0.3656    -1.0656 C.ar    
   5 C5             3.1198     1.7201    -1.3023 C.ar    
   6 C6             2.0018     2.5199    -1.4453 C.ar    
   7 C7             1.5548    -1.6652    -0.7157 C.3     
   8 N8             1.5089    -2.3820    -1.9926 N.am    
   9 C9             1.3712    -3.7226    -2.0083 C.2     
  10 C10            4.4966     2.3248    -1.4014 C.3     
  11 N11            4.9495     2.2823    -2.7940 N.pl3   
  12 N12            4.7369     3.2844    -3.7461 N.2     
  13 C13            5.2678     2.9359    -4.8882 C.2     
  14 C14            5.8798     1.6190    -4.7094 C.ar    
  15 C15            5.6541     1.2567    -3.3689 C.ar    
  16 C16            6.5825     0.7501    -5.5564 C.ar    
  17 C17            7.0414    -0.4561    -5.0662 C.ar    
  18 C18            6.8104    -0.8109    -3.7436 C.ar    
  19 C19            6.1292     0.0341    -2.8979 C.ar    
  20 O20            6.8098     1.0927    -6.8508 O.3     
  21 C21            7.5327     0.1563    -7.6525 C.3     
  22 N22            5.2529     3.6853    -6.0674 N.am    
  23 S23            4.5117     5.1658    -6.0984 S.o2    
  24 O24            4.6973     5.6801    -7.4099 O.2     
  25 O25            3.2317     4.9861    -5.5080 O.2     
  26 C26            5.4145     6.2238    -5.0166 C.2     
  27 C27            6.4473     6.9878    -5.3741 C.2     
  28 C28            7.0008     7.7375    -4.3499 C.2     
  29 C29            6.4161     7.5812    -3.1599 C.2     
  30 S30            5.0862     6.4390    -3.3022 S.3     
  31 Cl31           6.8909     8.3875    -1.6977 Cl      
  32 C32            1.3241    -4.4599    -3.3218 C.3     
  33 O33            1.2853    -4.3356    -0.9654 O.2     
  34 N34            1.8335    -5.8264    -3.1363 N.3     
  35 C35           -0.1219    -4.5235    -3.8207 C.3     
  36 O36           -0.1711    -5.2882    -5.0282 O.3     
  37 C37            0.3171    -6.6247    -4.8836 C.3     
  38 C38            1.7675    -6.5824    -4.3954 C.3     
  39 C39            3.2023    -5.8101    -2.6032 C.3     
  40 H40           -0.1350     2.5891    -1.4712 H       
  41 H41           -0.3926     0.1776    -1.0464 H       
  42 H42            3.8488    -0.2591    -0.9521 H       
  43 H43            2.1148     3.5780    -1.6299 H       
  44 H44            2.3999    -2.0237    -0.1280 H       
  45 H45            0.6298    -1.8414    -0.1668 H       
  46 H46            1.5777    -1.8917    -2.8268 H       
  47 H47            4.4641     3.3599    -1.0614 H       
  48 H48            5.1879     1.7588    -0.7771 H       
  49 H49            7.5830    -1.1281    -5.7154 H       
  50 H50            7.1747    -1.7577    -3.3732 H       
  51 H51            5.9563    -0.2533    -1.8713 H       
  52 H52            6.9872    -0.7866    -7.6905 H       
  53 H53            7.6446     0.5523    -8.6618 H       
  54 H54            8.5176    -0.0111    -7.2165 H       
  55 H55            5.6767     3.3382    -6.8679 H       
  56 H56            6.8238     7.0192    -6.3858 H       
  57 H57            7.8417     8.3979    -4.5020 H       
  58 H58            1.9399    -3.9382    -4.0544 H       
  59 H59           -0.7475    -4.9972    -3.0641 H       
  60 H60           -0.4850    -3.5141    -4.0141 H       
  61 H61           -0.2957    -7.1595    -4.1579 H       
  62 H62            0.2716    -7.1349    -5.8457 H       
  63 H63            2.3900    -6.0948    -5.1457 H       
  64 H64            2.1254    -7.5984    -4.2291 H       
  65 H65            3.1947    -5.3949    -1.5953 H       
  66 H66            3.5931    -6.8272    -2.5742 H       
  67 H67            3.8346    -5.1960    -3.2444 H       
@<TRIPOS>BOND
   1    1    2 ar
   2    1    6 ar
   3    1   40 1
   4    2    3 ar
   5    2   41 1
   6    3    4 ar
   7    3    7 1
   8    4    5 ar
   9    4   42 1
  10    5    6 ar
  11    5   10 1
  12    6   43 1
  13    7    8 1
  14    7   44 1
  15    7   45 1
  16    8    9 am
  17    8   46 1
  18    9   32 1
  19    9   33 2
  20   10   11 1
  21   10   47 1
  22   10   48 1
  23   11   12 1
  24   11   15 1
  25   12   13 2
  26   13   14 1
  27   13   22 1
  28   14   15 ar
  29   14   16 ar
  30   15   19 ar
  31   16   17 ar
  32   16   20 1
  33   17   18 ar
  34   17   49 1
  35   18   19 ar
  36   18   50 1
  37   19   51 1
  38   20   21 1
  39   21   52 1
  40   21   53 1
  41   21   54 1
  42   22   23 am
  43   22   55 1
  44   23   24 2
  45   23   25 2
  46   23   26 1
  47   26   27 2
  48   26   30 1
  49   27   28 1
  50   27   56 1
  51   28   29 2
  52   28   57 1
  53   29   30 1
  54   29   31 1
  55   32   34 1
  56   32   35 1
  57   32   58 1
  58   34   39 1
  59   34   38 1
  60   35   36 1
  61   35   59 1
  62   35   60 1
  63   36   37 1
  64   37   38 1
  65   37   61 1
  66   37   62 1
  67   38   63 1
  68   38   64 1
  69   39   65 1
  70   39   66 1
  71   39   67 1

#	End of record

