#	Name: ASD13090003
#	Creating user name:	WinNT
#	Creation time:	15. 06. 2019 21:30

#	Modifying user name:	WinNT
#	Modification time:	15. 06. 2019 21:30

#	Program:	/corina/corina34_cracker 3.40 0067  02.08.2006

@<TRIPOS>MOLECULE
ASD13090003
 118  125    0    0    0
SMALL
NO_CHARGES


@<TRIPOS>ATOM
   1 C1             1.3207    -1.4069     3.6707 C.ar    
   2 C2            -0.9882    -2.9504     4.0052 C.ar    
   3 C3             1.4499     2.3204     3.8401 C.ar    
   4 C4             3.3655     2.9697     2.5146 C.ar    
   5 C5             1.5799     0.1985     0.7214 C.2     
   6 C6            -0.7958    -5.6273     4.7652 C.3     
   7 C7             1.7288    -5.3774     4.8147 C.3     
   8 C8            -6.3527     1.6758     2.4706 C.3     
   9 C9             9.4643    13.4991    14.2736 C.ar    
  10 C10            7.9696    14.3257    12.5858 C.ar    
  11 C11           -3.9304     2.0354     2.4758 C.2     
  12 C12           -2.8097     2.8642     2.2929 C.2     
  13 C13           -1.5568     2.3755     2.4848 C.2     
  14 C14           -1.3767     1.0343     2.8684 C.2     
  15 C15           -2.4979     0.1936     3.0553 C.2     
  16 C16           -3.7674     0.7023     2.8570 C.2     
  17 C17           -0.0758     0.5144     3.0710 C.2     
  18 C18            0.0506    -0.8416     3.4575 C.ar    
  19 C19           -1.1128    -1.6267     3.6279 C.ar    
  20 C20            1.4306    -2.7093     4.0409 C.ar    
  21 C21            0.2791    -3.4960     4.2183 C.ar    
  22 C22            1.1159     1.3626     2.8848 C.ar    
  23 C23            2.5741     3.1227     3.6545 C.ar    
  24 C24            3.0488     2.0150     1.5687 C.ar    
  25 C25            1.9240     1.2087     1.7374 C.ar    
  26 C26           -5.3576     3.9342     1.8806 C.3     
  27 C27            2.9297     4.1412     4.6688 C.2     
  28 C28            8.8323    13.3362    13.0593 C.ar    
  29 C29            7.7512    15.4767    13.3457 C.ar    
  30 C30            8.3805    15.6244    14.5657 C.ar    
  31 C31            9.2402    14.6410    15.0276 C.ar    
  32 C32            7.2890    14.1560    11.2827 C.ar    
  33 C33            8.0323    13.8811    10.1133 C.ar    
  34 C34            7.3356    13.7304     8.9084 C.ar    
  35 C35            5.3547    14.1082    10.0264 C.ar    
  36 C36            3.8776    14.2324     9.9699 C.ar    
  37 C37            1.9405    14.1926     8.7164 C.ar    
  38 C38            1.1666    14.4558     9.8339 C.ar    
  39 C39            1.7834    14.6174    11.0652 C.ar    
  40 C40            3.1624    14.5038    11.1336 C.ar    
  41 C41            9.4999    13.7571    10.1604 C.2     
  42 C42           11.7088    14.6637    10.1662 C.3     
  43 C43            8.0764    13.4358     7.6295 C.3     
  44 C44            8.6953    11.6510     6.1148 C.3     
  45 C45            8.9746    10.1464     6.0345 C.3     
  46 C46            7.1192     9.7960     7.7103 C.3     
  47 C47            6.9130    11.3144     7.7246 C.3     
  48 C48            7.2463     8.4458     5.6670 C.2     
  49 C49            6.0003     7.7179     6.1014 C.3     
  50 C50            5.6328     6.6655     5.0534 C.3     
  51 C51            4.3678     5.9265     5.4944 C.3     
  52 F52            9.8623    14.7952    16.2168 F       
  53 N53           -5.1820     2.5358     2.2806 N.2     
  54 N54            0.4010    -4.8007     4.5901 N.pl3   
  55 N55            6.0214    13.8493     8.9079 N.ar    
  56 N56            5.9664    14.2541    11.1920 N.ar    
  57 N57            3.2493    14.0895     8.8099 N.ar    
  58 N58            8.1936    11.9819     7.4553 N.3     
  59 N59            7.7596     9.4235     6.4397 N.am    
  60 N60            4.0160     4.9188     4.4909 N.am    
  61 O61           -2.3366    -1.0947     3.4247 O.3     
  62 O62            0.6017    -0.5020     0.8700 O.2     
  63 O63            2.3883     0.0465    -0.4238 Du      
  64 O64            2.2421     4.2758     5.6617 O.2     
  65 O65           10.0142    12.6601    10.2534 O.2     
  66 O66           10.2717    14.8602    10.1003 O.3     
  67 O67            7.7871     8.1518     4.6220 O.2     
  68 Cl68           6.6801    16.7129    12.7640 Cl      
  69 H69            2.2085    -0.8069     3.5358 H       
  70 H70           -1.8696    -3.5591     4.1429 H       
  71 H71            0.8364     2.4436     4.7203 H       
  72 H72            4.2380     3.5916     2.3789 H       
  73 H73           -1.0458    -6.1095     3.8202 H       
  74 H74           -0.6044    -6.3881     5.5219 H       
  75 H75           -1.6278    -4.9992     5.0838 H       
  76 H76            2.0113    -5.2431     5.8589 H       
  77 H77            1.7077    -6.4412     4.5779 H       
  78 H78            2.4553    -4.8770     4.1746 H       
  79 H79           -6.6863     1.7398     3.5063 H       
  80 H80           -7.1551     2.0030     1.8095 H       
  81 H81           -6.0876     0.6445     2.2374 H       
  82 H82           10.1320    12.7336    14.6404 H       
  83 H83           -2.9455     3.8943     1.9980 H       
  84 H84           -0.6993     3.0164     2.3426 H       
  85 H85           -4.6317     0.0699     2.9970 H       
  86 H86            2.4071    -3.1425     4.1992 H       
  87 H87            3.6732     1.8932     0.6960 H       
  88 H88           -6.4205     4.1506     1.7733 H       
  89 H89           -4.9290     4.5863     2.6416 H       
  90 H90           -4.8540     4.1059     0.9293 H       
  91 H91            9.0048    12.4443    12.4752 H       
  92 H92            8.2093    16.5120    15.1568 H       
  93 H93            1.4635    14.0661     7.7558 H       
  94 H94            0.0929    14.5348     9.7473 H       
  95 H95            1.2016    14.8234    11.9514 H       
  96 H96            3.6756    14.6235    12.0763 H       
  97 H97           12.2074    15.6328    10.1882 H       
  98 H98           11.9583    14.1062    11.0690 H       
  99 H99           12.0396    14.1047     9.2909 H       
 100 H100           7.5298    13.8597     6.7871 H       
 101 H101           9.0717    13.8776     7.6761 H       
 102 H102           9.6161    12.2025     5.9248 H       
 103 H103           7.9478    11.9225     5.3694 H       
 104 H104           9.2371     9.8768     5.0116 H       
 105 H105           9.7943     9.8899     6.7056 H       
 106 H106           7.7606     9.5058     8.5425 H       
 107 H107           6.1554     9.2948     7.7988 H       
 108 H108           6.1903    11.5906     6.9568 H       
 109 H109           6.5407    11.6217     8.7019 H       
 110 H110           6.1801     7.2295     7.0592 H       
 111 H111           5.1811     8.4294     6.2045 H       
 112 H112           5.4530     7.1539     4.0956 H       
 113 H113           6.4520     5.9539     4.9503 H       
 114 H114           4.5476     5.4381     6.4522 H       
 115 H115           3.5486     6.6381     5.5975 H       
 116 H116           4.5649     4.8113     3.6984 H       
 117 H117           2.9675    -0.0623    -1.2441 H       
 118 H118           1.7816    -0.6902    -0.7544 H       
@<TRIPOS>BOND
   1    1   20 ar
   2    1   69 1
   3    1   18 ar
   4    2   21 ar
   5    2   70 1
   6    2   19 ar
   7    3   22 ar
   8    3   71 1
   9    3   23 ar
  10    4   24 ar
  11    4   72 1
  12    4   23 ar
  13    5   62 2
  14    5   63 1
  15    5   25 1
  16    6   73 1
  17    6   74 1
  18    6   75 1
  19    6   54 1
  20    7   76 1
  21    7   77 1
  22    7   78 1
  23    7   54 1
  24    8   53 1
  25    8   79 1
  26    8   80 1
  27    8   81 1
  28    9   28 ar
  29    9   82 1
  30    9   31 ar
  31   10   28 ar
  32   10   32 1
  33   10   29 ar
  34   11   16 1
  35   11   12 1
  36   11   53 2
  37   12   13 2
  38   12   83 1
  39   13   14 1
  40   13   84 1
  41   14   17 2
  42   14   15 1
  43   15   61 1
  44   15   16 2
  45   16   85 1
  46   17   18 1
  47   17   22 1
  48   18   19 ar
  49   19   61 1
  50   20   21 ar
  51   20   86 1
  52   21   54 1
  53   22   25 ar
  54   23   27 1
  55   24   25 ar
  56   24   87 1
  57   26   88 1
  58   26   89 1
  59   26   90 1
  60   26   53 1
  61   27   60 am
  62   27   64 2
  63   28   91 1
  64   29   30 ar
  65   29   68 1
  66   30   31 ar
  67   30   92 1
  68   31   52 1
  69   32   33 ar
  70   32   56 ar
  71   33   34 ar
  72   33   41 1
  73   34   43 1
  74   34   55 ar
  75   35   55 ar
  76   35   36 1
  77   35   56 ar
  78   36   40 ar
  79   36   57 ar
  80   37   38 ar
  81   37   93 1
  82   37   57 ar
  83   38   94 1
  84   38   39 ar
  85   39   95 1
  86   39   40 ar
  87   40   96 1
  88   41   65 2
  89   41   66 1
  90   42   66 1
  91   42   97 1
  92   42   98 1
  93   42   99 1
  94   43   58 1
  95   43  100 1
  96   43  101 1
  97   44   58 1
  98   44   45 1
  99   44  102 1
 100   44  103 1
 101   45   59 1
 102   45  104 1
 103   45  105 1
 104   46  106 1
 105   46  107 1
 106   46   47 1
 107   46   59 1
 108   47  108 1
 109   47  109 1
 110   47   58 1
 111   48   67 2
 112   48   49 1
 113   48   59 am
 114   49   50 1
 115   49  110 1
 116   49  111 1
 117   50   51 1
 118   50  112 1
 119   50  113 1
 120   51   60 1
 121   51  114 1
 122   51  115 1
 123   60  116 1
 124   63  117 1
 125   63  118 1

#	End of record

