#	Name: ASD11030024
#	Creating user name:	WinNT
#	Creation time:	15. 06. 2019 21:29

#	Modifying user name:	WinNT
#	Modification time:	15. 06. 2019 21:29

#	Program:	/corina/corina34_cracker 3.40 0067  02.08.2006

@<TRIPOS>MOLECULE
ASD11030024
  37   40    0    0    0
SMALL
NO_CHARGES


@<TRIPOS>ATOM
   1 Cl1            0.0021    -0.0041     0.0020 Cl      
   2 C2            -0.0215     1.7317     0.0116 C.ar    
   3 C3             1.1700     2.4376     0.0040 C.ar    
   4 C4             1.1578     3.8167     0.0110 C.ar    
   5 C5            -0.0590     4.5012     0.0259 C.ar    
   6 C6            -1.2569     3.7839     0.0335 C.ar    
   7 C7            -1.2316     2.4049     0.0210 C.ar    
   8 C8            -0.0791     5.9785     0.0340 C.2     
   9 N9             0.9648     6.7596     0.0282 N.2     
  10 N10            0.7666     8.0049     0.0363 N.2     
  11 C11           -0.4766     8.4199     0.0501 C.2     
  12 S12           -1.5201     6.9968     0.0456 S.3     
  13 N13           -0.8879     9.7132     0.0612 N.2     
  14 C14           -0.0003    10.6868     0.0580 C.2     
  15 N15            1.3589    10.5508     0.0443 N.am    
  16 C16            2.1078    11.6408     0.0431 C.2     
  17 O17            3.3240    11.5958     0.0308 O.2     
  18 C18            1.3688    12.9080     0.0572 C.2     
  19 C19            1.8770    14.1663     0.0589 C.2     
  20 C20            0.9726    15.3237     0.0740 C.ar    
  21 C21            1.1612    16.3531     1.0051 C.ar    
  22 Cl22           2.4663    16.2663     2.1466 Cl      
  23 C23            0.3066    17.4365     1.0120 C.ar    
  24 C24           -0.7345    17.5078     0.1030 C.ar    
  25 C25           -0.9284    16.4955    -0.8206 C.ar    
  26 C26           -0.0800    15.4074    -0.8463 C.ar    
  27 Cl27          -0.3256    14.1390    -2.0058 Cl      
  28 S28           -0.3387    12.4262     0.0631 S.3     
  29 H29            2.1106     1.9070    -0.0071 H       
  30 H30            2.0876     4.3661     0.0055 H       
  31 H31           -2.2012     4.3077     0.0450 H       
  32 H32           -2.1575     1.8489     0.0268 H       
  33 H33            1.7672     9.6709     0.0358 H       
  34 H34            2.9465    14.3167     0.0491 H       
  35 H35            0.4505    18.2311     1.7292 H       
  36 H36           -1.3999    18.3584     0.1146 H       
  37 H37           -1.7435    16.5594    -1.5263 H       
@<TRIPOS>BOND
   1    1    2 1
   2    2    3 ar
   3    2    7 ar
   4    3    4 ar
   5    3   29 1
   6    4    5 ar
   7    4   30 1
   8    5    6 ar
   9    5    8 1
  10    6    7 ar
  11    6   31 1
  12    7   32 1
  13    8    9 2
  14    8   12 1
  15    9   10 1
  16   10   11 2
  17   11   12 1
  18   11   13 1
  19   13   14 2
  20   14   15 1
  21   14   28 1
  22   15   16 am
  23   15   33 1
  24   16   17 2
  25   16   18 1
  26   18   19 2
  27   18   28 1
  28   19   20 1
  29   19   34 1
  30   20   21 ar
  31   20   26 ar
  32   21   22 1
  33   21   23 ar
  34   23   24 ar
  35   23   35 1
  36   24   25 ar
  37   24   36 1
  38   25   26 ar
  39   25   37 1
  40   26   27 1

#	End of record

