#	Name: ASD10410107
#	Creating user name:	WinNT
#	Creation time:	15. 06. 2019 21:26

#	Modifying user name:	WinNT
#	Modification time:	15. 06. 2019 21:26

#	Program:	/corina/corina34_cracker 3.40 0067  02.08.2006

@<TRIPOS>MOLECULE
ASD10410107
  67   73    0    0    0
SMALL
NO_CHARGES


@<TRIPOS>ATOM
   1 C1            -0.1492     1.4140     0.3131 C.ar    
   2 C2            -0.0825     0.0372     0.1546 C.ar    
   3 C3             1.1476    -0.5811    -0.0428 C.ar    
   4 C4             2.3028     0.1766    -0.0810 C.ar    
   5 C5             2.2344     1.5549     0.0779 C.ar    
   6 C6             1.0059     2.1710     0.2748 C.ar    
   7 F7             1.2133    -1.9217    -0.1968 F       
   8 N8             3.4046     2.3229     0.0398 N.pl3   
   9 C9             3.3683     3.6247    -0.4590 C.2     
  10 N10            4.3717     4.4689    -0.4537 N.2     
  11 N11            2.3057     4.2093    -1.0245 N.2     
  12 C12            2.6133     5.4372    -1.3834 C.2     
  13 N13            3.9121     5.6566    -1.0454 N.pl3   
  14 C14            4.6413     6.8264    -1.2460 C.ar    
  15 N15            1.7685     6.3413    -1.9978 N.pl3   
  16 N16           -1.2544    -0.7304     0.1938 N.3     
  17 C17           -1.9401    -0.5790     1.4847 C.3     
  18 C18           -3.2516    -1.3674     1.4583 C.3     
  19 N19           -2.9644    -2.7816     1.1804 N.3     
  20 C20           -2.2787    -2.9331    -0.1105 C.3     
  21 C21           -0.9672    -2.1446    -0.0840 C.3     
  22 N22            4.0786     7.8813    -1.8214 N.ar    
  23 C23            4.7660     8.9938    -2.0142 C.ar    
  24 N24            6.0205     9.1185    -1.6552 N.ar    
  25 C25            6.6813     8.0995    -1.0615 C.ar    
  26 C26            5.9804     6.9104    -0.8379 C.ar    
  27 C27            8.0082     8.0337    -0.6080 C.2     
  28 C28            8.3737     6.8850    -0.0614 C.2     
  29 S29            7.0401     5.7430    -0.0613 S.3     
  30 C30            8.9570     9.1976    -0.7360 C.3     
  31 Cl31           3.9771    10.3414    -2.7727 Cl      
  32 C32           -3.8732    -5.0725     0.9417 C.3     
  33 C33           -4.3179    -5.8216     2.2349 C.3     
  34 C34           -3.2771    -5.3908     3.3131 C.3     
  35 C35           -3.5968    -3.9045     3.5929 C.3     
  36 C36           -4.1928    -3.5862     1.2216 C.3     
  37 C37           -4.8006    -3.5773     2.6575 C.3     
  38 C38           -5.5541    -4.9541     2.6621 C.3     
  39 H39           -1.1049     1.8945     0.4619 H       
  40 H40            3.2585    -0.3028    -0.2339 H       
  41 H41            0.9532     3.2427     0.3979 H       
  42 H42            4.2405     1.9495     0.3603 H       
  43 H43            0.8542     6.0894    -2.2018 H       
  44 H44            2.0895     7.2280    -2.2251 H       
  45 H45           -1.3024    -0.9605     2.2822 H       
  46 H46           -2.1531     0.4752     1.6619 H       
  47 H47           -3.7479    -1.2802     2.4248 H       
  48 H48           -3.9003    -0.9681     0.6787 H       
  49 H49           -2.0657    -3.9873    -0.2877 H       
  50 H50           -2.9164    -2.5515    -0.9079 H       
  51 H51           -0.4709    -2.2318    -1.0505 H       
  52 H52           -0.3185    -2.5439     0.6956 H       
  53 H53            9.3577     6.6790     0.3331 H       
  54 H54            8.8879     9.8223     0.1546 H       
  55 H55            9.9762     8.8256    -0.8407 H       
  56 H56            8.6931     9.7866    -1.6143 H       
  57 H57           -2.8045    -5.2062     0.7736 H       
  58 H58           -4.4413    -5.4281     0.0822 H       
  59 H59           -4.4809    -6.8944     2.1319 H       
  60 H60           -3.4014    -5.9834     4.2194 H       
  61 H61           -2.2635    -5.4951     2.9259 H       
  62 H62           -3.8783    -3.7664     4.6369 H       
  63 H63           -2.7404    -3.2781     3.3433 H       
  64 H64           -4.9166    -3.2105     0.4984 H       
  65 H65           -5.3840    -2.6956     2.9225 H       
  66 H66           -6.3519    -4.9860     1.9200 H       
  67 H67           -5.9156    -5.2190     3.6557 H       
@<TRIPOS>BOND
   1    1    2 ar
   2    1    6 ar
   3    1   39 1
   4    2    3 ar
   5    2   16 1
   6    3    4 ar
   7    3    7 1
   8    4    5 ar
   9    4   40 1
  10    5    6 ar
  11    5    8 1
  12    6   41 1
  13    8    9 1
  14    8   42 1
  15    9   10 2
  16    9   11 1
  17   10   13 1
  18   11   12 2
  19   12   13 1
  20   12   15 1
  21   13   14 1
  22   14   22 ar
  23   14   26 ar
  24   15   43 1
  25   15   44 1
  26   16   17 1
  27   16   21 1
  28   17   18 1
  29   17   45 1
  30   17   46 1
  31   18   19 1
  32   18   47 1
  33   18   48 1
  34   19   20 1
  35   19   36 1
  36   20   21 1
  37   20   49 1
  38   20   50 1
  39   21   51 1
  40   21   52 1
  41   22   23 ar
  42   23   24 ar
  43   23   31 1
  44   24   25 ar
  45   25   26 ar
  46   25   27 1
  47   26   29 1
  48   27   28 2
  49   27   30 1
  50   28   29 1
  51   28   53 1
  52   30   54 1
  53   30   55 1
  54   30   56 1
  55   32   33 1
  56   32   36 1
  57   32   57 1
  58   32   58 1
  59   33   34 1
  60   33   38 1
  61   33   59 1
  62   34   35 1
  63   34   60 1
  64   34   61 1
  65   35   37 1
  66   35   62 1
  67   35   63 1
  68   36   37 1
  69   36   64 1
  70   37   38 1
  71   37   65 1
  72   38   66 1
  73   38   67 1

#	End of record

