#	Name: ASD12310001
#	Creating user name:	WinNT
#	Creation time:	15. 06. 2019 21:30

#	Modifying user name:	WinNT
#	Modification time:	15. 06. 2019 21:30

#	Program:	/corina/corina34_cracker 3.40 0067  02.08.2006

@<TRIPOS>MOLECULE
ASD12310001
 144  147    0    0    0
SMALL
NO_CHARGES


@<TRIPOS>ATOM
   1 C1            -0.9581     1.3346    -0.5229 C.2     
   2 O2            -0.4960     0.1624    -0.2374 O.3     
   3 C3             0.1205     2.4175    -0.8197 C.3     
   4 O4            -2.0724     1.6079    -0.5446 O.2     
   5 C5             0.1537     2.6589    -2.3124 C.3     
   6 O6            -0.7769     2.8258     1.7806 O.2     
   7 C7             1.2467     3.5842    -2.7504 C.3     
   8 O8            -1.4825     5.8387     0.4864 O.2     
   9 C9             1.7071     4.4624    -1.5364 C.3     
  10 O10           -1.3890     4.7601     3.7827 O.3     
  11 C11            0.4322     4.9066    -0.7151 C.3     
  12 O12           -3.3927     5.0226     2.6910 O.3     
  13 N13           -0.0640     3.6116    -0.1353 N.am    
  14 O14           -3.0559     4.9696     7.7985 O.3     
  15 C15           -0.7710     3.7374     1.0766 C.2     
  16 O16           -4.6847    -7.0882     4.6725 O.2     
  17 C17           -1.4690     5.0337     1.3376 C.2     
  18 O18           -4.5757    -4.8053     2.5301 O.3     
  19 C19           -2.0205     5.3518     2.7223 C.3     
  20 O20           -2.4303    -7.7548     2.9802 O.3     
  21 C21           -2.0027     6.9009     2.8973 C.3     
  22 O22           -2.8387    -2.9897    -1.2018 O.2     
  23 C23           -2.7199     7.3375     4.1855 C.3     
  24 O24           -6.2835    -1.8856    -1.2091 O.3     
  25 C25           -2.8037     6.1891     5.1608 C.3     
  26 O26           -8.3210    -0.3307    -0.0216 O.3     
  27 C27           -1.4722     5.3559     5.0681 C.3     
  28 C28           -1.4989     4.2880     6.1446 C.3     
  29 C29           -2.8719     4.0297     6.7803 C.3     
  30 C30           -2.7147     2.6500     7.4337 C.2     
  31 C31           -3.6491     1.7366     7.1952 C.2     
  32 C32           -3.6117     0.3828     7.7433 C.2     
  33 C33           -4.4978    -0.5925     7.4523 C.2     
  34 C34           -4.2967    -1.9047     7.9472 C.2     
  35 C35           -5.0572    -2.9018     7.4948 C.2     
  36 C36           -4.9622    -4.3538     7.8653 C.3     
  37 C37           -5.1391    -5.1773     6.6174 C.3     
  38 C38           -3.8832    -5.1389     5.7217 C.3     
  39 C39           -3.9911    -5.9991     4.5582 C.2     
  40 C40           -3.5448    -5.6540     3.2050 C.3     
  41 C41           -3.3070    -6.8895     2.2649 C.3     
  42 C42           -2.6697    -6.4947     1.0293 C.2     
  43 C43           -2.1991    -5.2629     0.8262 C.2     
  44 C44           -1.5238    -4.8080    -0.4274 C.3     
  45 C45           -1.7456    -3.3505    -0.6745 C.2     
  46 C46           -0.8313    -2.3123    -0.1409 C.3     
  47 C47           -1.5137    -0.9637     0.0088 C.3     
  48 C48           -1.9634    -0.8897     1.4329 C.3     
  49 C49           -3.1058    -1.8820     1.6592 C.3     
  50 C50           -4.3323    -1.4388     0.8591 C.3     
  51 C51           -5.4215    -2.5084     0.9611 C.3     
  52 C52           -6.6480    -2.0652     0.1609 C.3     
  53 C53           -7.1755    -0.7447     0.7257 C.3     
  54 C54           -6.0862     0.3249     0.6237 C.3     
  55 C55           -4.8597    -0.1183     1.4239 C.3     
  56 C56           -0.5092     7.3945     2.8711 C.3     
  57 C57           -1.5827     2.3519     8.4033 C.3     
  58 C58           -3.6834    -4.6709     8.6270 C.3     
  59 C59           -3.5599    -3.6943     5.2419 C.3     
  60 C60           -2.5402    -7.5735    -0.0730 C.3     
  61 C61           -0.0034    -5.0664    -0.4290 C.3     
  62 C62           -0.7941    -1.2391     2.3557 C.3     
  63 C63           -4.4219     5.3254     8.0211 C.3     
  64 C64           -5.8318    -5.4591     2.3380 C.3     
  65 C65           -7.3467    -2.1346    -2.1308 C.3     
  66 H66            1.0841     2.0026    -0.4835 H       
  67 H67            0.2571     1.6504    -2.8060 H       
  68 H68           -0.8178     3.0798    -2.5674 H       
  69 H69            2.1454     2.9804    -3.0955 H       
  70 H70            0.8752     4.1885    -3.5169 H       
  71 H71            2.3808     3.9197    -0.8781 H       
  72 H72            2.2106     5.3845    -1.9414 H       
  73 H73            0.8007     5.5392     0.0867 H       
  74 H74           -0.2812     5.3799    -1.3457 H       
  75 H75           -3.5686     4.0841     2.5384 H       
  76 H76           -2.2021    -8.5648     2.5039 H       
  77 H77           -2.5009     7.3451     2.0389 H       
  78 H78           -2.1616     8.1578     4.6520 H       
  79 H79           -3.7071     7.6531     3.9435 H       
  80 H80           -2.9127     6.5594     6.0724 H       
  81 H81           -3.6234     5.5565     4.8675 H       
  82 H82           -8.7557     0.4584     0.3297 H       
  83 H83           -0.6542     5.9976     5.2614 H       
  84 H84           -1.0767     3.3221     5.7650 H       
  85 H85           -0.6906     4.5923     6.8822 H       
  86 H86           -3.6135     4.0648     6.0440 H       
  87 H87           -4.4983     2.0116     6.5337 H       
  88 H88           -2.7703     0.1432     8.4894 H       
  89 H89           -5.3964    -0.2888     6.8573 H       
  90 H90           -3.5464    -2.0548     8.6966 H       
  91 H91           -5.9076    -2.5705     6.8472 H       
  92 H92           -5.8491    -4.5831     8.5251 H       
  93 H93           -5.2778    -6.1826     6.9035 H       
  94 H94           -5.9597    -4.8050     6.0288 H       
  95 H95           -2.9468    -5.5958     6.3107 H       
  96 H96           -2.6025    -5.0857     3.2927 H       
  97 H97           -4.2492    -7.3906     2.0878 H       
  98 H98           -2.2519    -4.5376     1.6160 H       
  99 H99           -1.9199    -5.3237    -1.2857 H       
 100 H100          -0.3751    -2.6279     0.8172 H       
 101 H101          -0.0094    -2.2037    -0.9501 H       
 102 H102          -2.3095    -0.8461    -0.7151 H       
 103 H103          -2.3103     0.1200     1.6524 H       
 104 H104          -2.7961    -2.8738     1.3300 H       
 105 H105          -3.3555    -1.9127     2.7198 H       
 106 H106          -4.0543    -1.3018    -0.1859 H       
 107 H107          -5.0457    -3.4491     0.5587 H       
 108 H108          -5.6995    -2.6454     2.0061 H       
 109 H109          -7.4240    -2.8272     0.2336 H       
 110 H110          -7.4535    -0.8817     1.7707 H       
 111 H111          -5.8082     0.4619    -0.4213 H       
 112 H112          -6.4620     1.2657     1.0261 H       
 113 H113          -5.1377    -0.2553     2.4689 H       
 114 H114          -4.0837     0.6437     1.3512 H       
 115 H115          -0.0539     7.1244     1.9183 H       
 116 H116          -0.4822     8.4774     2.9926 H       
 117 H117           0.0434     6.9238     3.6842 H       
 118 H118          -1.9317     2.4986     9.4254 H       
 119 H119          -1.2570     1.3197     8.2752 H       
 120 H120          -0.7477     3.0237     8.2045 H       
 121 H121          -3.6528    -4.0848     9.5455 H       
 122 H122          -3.6606    -5.7326     8.8726 H       
 123 H123          -2.8210    -4.4225     8.0085 H       
 124 H124          -3.2654    -3.0850     6.0964 H       
 125 H125          -2.7443    -3.7254     4.5195 H       
 126 H126          -4.4436    -3.2607     4.7738 H       
 127 H127          -3.4222    -7.5468    -0.7130 H       
 128 H128          -1.6509    -7.3764    -0.6717 H       
 129 H129          -2.4563    -8.5571     0.3892 H       
 130 H130           0.1836    -6.1352    -0.3246 H       
 131 H131           0.4243    -4.7127    -1.3672 H       
 132 H132           0.4566    -4.5340     0.4035 H       
 133 H133          -0.6177    -2.3144     2.3275 H       
 134 H134           0.1015    -0.7151     2.0217 H       
 135 H135          -1.0330    -0.9368     3.3753 H       
 136 H136          -4.8393     5.7529     7.1094 H       
 137 H137          -4.9885     4.4362     8.2979 H       
 138 H138          -4.4800     6.0583     8.8258 H       
 139 H139          -5.7079    -6.2854     1.6380 H       
 140 H140          -6.1916    -5.8426     3.2927 H       
 141 H141          -6.5539    -4.7481     1.9367 H       
 142 H142          -6.9648    -2.0776    -3.1501 H       
 143 H143          -7.7576    -3.1282    -1.9518 H       
 144 H144          -8.1289    -1.3879    -1.9937 H       
@<TRIPOS>BOND
   1    1    2 1
   2    1    3 1
   3    1    4 2
   4    2   47 1
   5    3    5 1
   6    3   13 1
   7    3   66 1
   8    5    7 1
   9    5   67 1
  10    5   68 1
  11    6   15 2
  12    7    9 1
  13    7   69 1
  14    7   70 1
  15    8   17 2
  16    9   11 1
  17    9   71 1
  18    9   72 1
  19   10   19 1
  20   10   27 1
  21   11   13 1
  22   11   73 1
  23   11   74 1
  24   12   19 1
  25   12   75 1
  26   13   15 am
  27   14   29 1
  28   14   63 1
  29   15   17 1
  30   16   39 2
  31   17   19 1
  32   18   40 1
  33   18   64 1
  34   19   21 1
  35   20   41 1
  36   20   76 1
  37   21   23 1
  38   21   56 1
  39   21   77 1
  40   22   45 2
  41   23   25 1
  42   23   78 1
  43   23   79 1
  44   24   52 1
  45   24   65 1
  46   25   27 1
  47   25   80 1
  48   25   81 1
  49   26   53 1
  50   26   82 1
  51   27   28 1
  52   27   83 1
  53   28   29 1
  54   28   84 1
  55   28   85 1
  56   29   30 1
  57   29   86 1
  58   30   31 2
  59   30   57 1
  60   31   32 1
  61   31   87 1
  62   32   33 2
  63   32   88 1
  64   33   34 1
  65   33   89 1
  66   34   35 2
  67   34   90 1
  68   35   36 1
  69   35   91 1
  70   36   37 1
  71   36   58 1
  72   36   92 1
  73   37   38 1
  74   37   93 1
  75   37   94 1
  76   38   39 1
  77   38   59 1
  78   38   95 1
  79   39   40 1
  80   40   41 1
  81   40   96 1
  82   41   42 1
  83   41   97 1
  84   42   43 2
  85   42   60 1
  86   43   44 1
  87   43   98 1
  88   44   45 1
  89   44   61 1
  90   44   99 1
  91   45   46 1
  92   46   47 1
  93   46  100 1
  94   46  101 1
  95   47   48 1
  96   47  102 1
  97   48   49 1
  98   48   62 1
  99   48  103 1
 100   49   50 1
 101   49  104 1
 102   49  105 1
 103   50   51 1
 104   50   55 1
 105   50  106 1
 106   51   52 1
 107   51  107 1
 108   51  108 1
 109   52   53 1
 110   52  109 1
 111   53   54 1
 112   53  110 1
 113   54   55 1
 114   54  111 1
 115   54  112 1
 116   55  113 1
 117   55  114 1
 118   56  115 1
 119   56  116 1
 120   56  117 1
 121   57  118 1
 122   57  119 1
 123   57  120 1
 124   58  121 1
 125   58  122 1
 126   58  123 1
 127   59  124 1
 128   59  125 1
 129   59  126 1
 130   60  127 1
 131   60  128 1
 132   60  129 1
 133   61  130 1
 134   61  131 1
 135   61  132 1
 136   62  133 1
 137   62  134 1
 138   62  135 1
 139   63  136 1
 140   63  137 1
 141   63  138 1
 142   64  139 1
 143   64  140 1
 144   64  141 1
 145   65  142 1
 146   65  143 1
 147   65  144 1

#	End of record

