#	Name: ASD11000015
#	Creating user name:	WinNT
#	Creation time:	15. 06. 2019 21:28

#	Modifying user name:	WinNT
#	Modification time:	15. 06. 2019 21:28

#	Program:	/corina/corina34_cracker 3.40 0067  02.08.2006

@<TRIPOS>MOLECULE
ASD11000015
  89   91    0    0    0
SMALL
NO_CHARGES


@<TRIPOS>ATOM
   1 C1             5.0348    -3.8104     1.3520 C.ar    
   2 C2             3.8116    -3.4644     0.8089 C.ar    
   3 C3             2.6497    -4.0163     1.3151 C.ar    
   4 C4             2.7110    -4.9145     2.3640 C.ar    
   5 C5             3.9342    -5.2612     2.9065 C.ar    
   6 C6             5.0961    -4.7082     2.4013 C.ar    
   7 C7             1.3161    -3.6384     0.7236 C.3     
   8 C8             0.9729    -4.5996    -0.4161 C.3     
   9 C9            -0.4353    -4.2957    -0.9358 C.3     
  10 C10           -0.7413    -5.2069    -2.1264 C.3     
  11 N11            0.2377    -4.9686    -3.1938 N.4     
  12 C12            1.5821    -5.3263    -2.7255 C.3     
  13 C13            1.9775    -4.4197    -1.5579 C.3     
  14 C14           -0.1060    -5.7884    -4.3634 C.3     
  15 C15           -0.0678    -7.2685    -3.9777 C.3     
  16 C16           -1.5109    -5.4234    -4.8469 C.3     
  17 O17           -1.1312    -7.5507    -3.0658 O.3     
  18 C18           -0.2291    -8.1142    -5.2146 C.ar    
  19 C19            0.8883    -8.5781    -5.8839 C.ar    
  20 C20           -1.4942    -8.4296    -5.6749 C.ar    
  21 C21           -1.6447    -9.2050    -6.8082 C.ar    
  22 C22           -0.5251    -9.6674    -7.4846 C.ar    
  23 C23            0.7431    -9.3535    -7.0180 C.ar    
  24 O24           -0.6705   -10.4307    -8.5996 O.3     
  25 H25           -0.7150    -9.9001    -9.4578 H       
  26 H26            0.2196    -3.9056    -3.4758 H       
  27 O27            0.2030    -2.9295    -3.7348 O.3     
  28 H28           -1.1178    -8.4910    -2.6974 H       
  29 N29           -1.1032    -9.5151    -2.2961 N.3     
  30 C30           -2.2214    -9.7332    -1.3688 C.3     
  31 N31           -3.4906    -9.6473    -2.1034 N.4     
  32 N32           -2.0984   -11.0634    -0.7577 N.4     
  33 C33           -3.2167   -11.2815     0.1696 C.3     
  34 C34           -3.0886   -12.6669     0.8061 C.3     
  35 *35           -4.2761   -12.8985     1.7909 Du      
  36 O36           -0.7594    -9.3695   -10.3160 Du      
  37 C37           -0.8215    -8.6287   -11.5142 C.3     
  38 O38           -0.7110    -7.2350   -11.2187 O.3     
  39 C39            0.3278    -9.0479   -12.4330 C.3     
  40 *40            1.6888    -8.7734   -11.7218 Du      
  41 C41            0.9419    -2.5203    -4.6052 C.2     
  42 N42            1.7637    -3.3737    -5.2476 N.am    
  43 C43            0.9410    -1.0577    -4.9683 C.3     
  44 *44            0.0107    -0.2790    -3.9877 Du      
  45 H45            5.9430    -3.3827     0.9537 H       
  46 H46            3.7638    -2.7627    -0.0106 H       
  47 H47            1.8031    -5.3452     2.7599 H       
  48 H48            3.9821    -5.9627     3.7263 H       
  49 H49            6.0518    -4.9794     2.8250 H       
  50 H50            0.5470    -3.6984     1.4936 H       
  51 H51            1.3652    -2.6201     0.3378 H       
  52 H52            1.0133    -5.6262    -0.0518 H       
  53 H53           -1.1622    -4.4754    -0.1437 H       
  54 H54           -0.4899    -3.2538    -1.2513 H       
  55 H55           -0.6867    -6.2484    -1.8098 H       
  56 H56           -1.7433    -4.9933    -2.4987 H       
  57 H57            1.5871    -6.3653    -2.3961 H       
  58 H58            2.2954    -5.2008    -3.5401 H       
  59 H59            1.9730    -3.3804    -1.8863 H       
  60 H60            2.9752    -4.6880    -1.2104 H       
  61 H61            0.6127    -5.6022    -5.1614 H       
  62 H62            0.8871    -7.4960    -3.5040 H       
  63 H63           -2.2446    -5.7456    -4.1080 H       
  64 H64           -1.5801    -4.3438    -4.9807 H       
  65 H65           -1.7090    -5.9206    -5.7965 H       
  66 H66            1.8753    -8.3338    -5.5201 H       
  67 H67           -2.3654    -8.0697    -5.1478 H       
  68 H68           -2.6330    -9.4514    -7.1672 H       
  69 H69            1.6162    -9.7122    -7.5428 H       
  70 H70           -0.4020    -2.3211    -3.2887 H       
  71 H71           -1.1132   -10.1955    -3.0411 H       
  72 H72           -2.2006    -8.9718    -0.5891 H       
  73 H73           -4.2599    -9.6935    -1.4522 H       
  74 H74           -3.5289    -8.7742    -2.6077 H       
  75 H75           -3.5548   -10.4151    -2.7549 H       
  76 H76           -2.1177   -11.7682    -1.4795 H       
  77 H77           -1.2267   -11.1224    -0.2531 H       
  78 H78           -3.1959   -10.5201     0.9493 H       
  79 H79           -4.1584   -11.2177    -0.3754 H       
  80 H80           -3.1094   -13.4283     0.0264 H       
  81 H81           -2.1468   -12.7307     1.3512 H       
  82 H82           -0.8580   -10.2267   -10.8409 H       
  83 H83           -1.7725    -8.8205   -12.0111 H       
  84 H84            0.2435   -10.1110   -12.6584 H       
  85 H85            0.2798    -8.4753   -13.3593 H       
  86 H86            1.8157    -4.3008    -4.9672 H       
  87 H87            2.3033    -3.0608    -5.9905 H       
  88 H88            1.9552    -0.6649    -4.8961 H       
  89 H89            0.5763    -0.9369    -5.9884 H       
@<TRIPOS>BOND
   1    1    2 ar
   2    1    6 ar
   3    1   45 1
   4    2    3 ar
   5    2   46 1
   6    3    4 ar
   7    3    7 1
   8    4    5 ar
   9    4   47 1
  10    5    6 ar
  11    5   48 1
  12    6   49 1
  13    7    8 1
  14    7   50 1
  15    7   51 1
  16    8    9 1
  17    8   13 1
  18    8   52 1
  19    9   10 1
  20    9   53 1
  21    9   54 1
  22   10   11 1
  23   10   55 1
  24   10   56 1
  25   11   12 1
  26   11   26 1
  27   11   14 1
  28   12   13 1
  29   12   57 1
  30   12   58 1
  31   13   59 1
  32   13   60 1
  33   14   15 1
  34   14   16 1
  35   14   61 1
  36   15   17 1
  37   15   18 1
  38   15   62 1
  39   16   63 1
  40   16   64 1
  41   16   65 1
  42   17   28 1
  43   18   19 ar
  44   18   20 ar
  45   19   23 ar
  46   19   66 1
  47   20   21 ar
  48   20   67 1
  49   21   22 ar
  50   21   68 1
  51   22   23 ar
  52   22   24 1
  53   23   69 1
  54   24   25 1
  55   25   36 1
  56   26   27 1
  57   27   41 2
  58   27   70 1
  59   28   29 1
  60   29   30 1
  61   29   71 1
  62   30   31 1
  63   30   32 1
  64   30   72 1
  65   31   73 1
  66   31   74 1
  67   31   75 1
  68   32   33 1
  69   32   76 1
  70   32   77 1
  71   33   34 1
  72   33   78 1
  73   33   79 1
  74   34   35 1
  75   34   80 1
  76   34   81 1
  77   36   37 1
  78   36   82 1
  79   37   38 1
  80   37   39 1
  81   37   83 1
  82   39   40 1
  83   39   84 1
  84   39   85 1
  85   41   42 am
  86   41   43 1
  87   42   86 1
  88   42   87 1
  89   43   44 1
  90   43   88 1
  91   43   89 1

#	End of record

