#	Name: ASD10160360
#	Creating user name:	WinNT
#	Creation time:	15. 06. 2019 21:25

#	Modifying user name:	WinNT
#	Modification time:	15. 06. 2019 21:25

#	Program:	/corina/corina34_cracker 3.40 0067  02.08.2006

@<TRIPOS>MOLECULE
ASD10160360
  24   24    0    0    0
SMALL
NO_CHARGES


@<TRIPOS>ATOM
   1 C1            -0.0167     1.3834     0.0096 C.ar    
   2 C2             0.0021    -0.0041     0.0020 C.ar    
   3 C3             1.2267    -0.6631    -0.0133 C.ar    
   4 C4             2.3851     0.0993    -0.0203 C.ar    
   5 C5             2.2850     1.4791    -0.0119 C.ar    
   6 N6             1.1072     2.0719     0.0026 N.ar    
   7 O7            -1.1599    -0.7091     0.0098 O.3     
   8 C8             3.5385     2.3156    -0.0194 C.3     
   9 C9             3.9489     2.6064    -1.4644 C.3     
  10 C10            5.1474     3.5575    -1.4726 C.3     
  11 C11            4.3313     1.2980    -2.1592 C.3     
  12 Cl12           3.9420    -0.6684    -0.0388 Cl      
  13 H13           -0.9625     1.9047     0.0170 H       
  14 H14            1.2743    -1.7420    -0.0192 H       
  15 H15           -1.5049    -0.9084    -0.8713 H       
  16 H16            3.3517     3.2548     0.5013 H       
  17 H17            4.3396     1.7743     0.4838 H       
  18 H18            3.1150     3.0683    -1.9930 H       
  19 H19            5.9813     3.0956    -0.9440 H       
  20 H20            5.4397     3.7647    -2.5020 H       
  21 H21            4.8749     4.4896    -0.9776 H       
  22 H22            5.1652     0.8362    -1.6306 H       
  23 H23            3.4774     0.6205    -2.1533 H       
  24 H24            4.6236     1.5052    -3.1886 H       
@<TRIPOS>BOND
   1    1    2 ar
   2    1    6 ar
   3    1   13 1
   4    2    3 ar
   5    2    7 1
   6    3    4 ar
   7    3   14 1
   8    4    5 ar
   9    4   12 1
  10    5    6 ar
  11    5    8 1
  12    7   15 1
  13    8    9 1
  14    8   16 1
  15    8   17 1
  16    9   10 1
  17    9   11 1
  18    9   18 1
  19   10   19 1
  20   10   20 1
  21   10   21 1
  22   11   22 1
  23   11   23 1
  24   11   24 1

#	End of record

