#	Name: ASD11920066
#	Creating user name:	WinNT
#	Creation time:	15. 06. 2019 21:29

#	Modifying user name:	WinNT
#	Modification time:	15. 06. 2019 21:29

#	Program:	/corina/corina34_cracker 3.40 0067  02.08.2006

@<TRIPOS>MOLECULE
ASD11920066
  47   49    0    0    0
SMALL
NO_CHARGES


@<TRIPOS>ATOM
   1 Cl1            0.1527    -5.0787    -0.9043 Cl      
   2 C2            -0.4871     1.4664     0.2276 C.3     
   3 C3             0.3249    -2.6751     0.3276 C.ar    
   4 C4             2.4298    -2.0618     4.5216 C.ar    
   5 C5             3.8151    -2.0747     4.4502 C.ar    
   6 C6             4.5545    -2.6087     5.4891 C.ar    
   7 C7             3.9135    -3.1298     6.5989 C.ar    
   8 C8             2.5327    -3.1178     6.6718 C.ar    
   9 C9             1.7897    -2.5853     5.6364 C.ar    
  10 C10            1.8379    -3.6867     7.8820 C.3     
  11 C11           -0.2607    -0.0433     0.1246 C.3     
  12 C12            1.3580     2.5423    -0.9330 C.2     
  13 C13            3.2024     3.4349     0.1897 C.2     
  14 C14            2.6326     3.0331     1.4219 C.2     
  15 C15            1.4408     2.3985     1.4187 C.2     
  16 N16            0.8060     2.1549     0.2312 N.am    
  17 N17            2.5448     3.1766    -0.9587 N.am    
  18 O18            1.7008    -1.5325     3.5045 O.3     
  19 O19            0.4104    -0.5055     1.2985 O.3     
  20 C20            0.6099    -4.0270     0.3989 C.ar    
  21 C21            1.2581    -4.5425     1.5073 C.ar    
  22 C22            1.6240    -3.7088     2.5474 C.ar    
  23 C23            1.3417    -2.3536     2.4816 C.ar    
  24 C24            0.6893    -1.8347     1.3672 C.ar    
  25 O25            0.7789     2.3116    -1.9769 O.2     
  26 O26            4.2765     4.0084     0.1673 O.2     
  27 C27            1.6475    -2.5845     8.9259 C.3     
  28 C28            0.9687    -3.1401    10.1079 C.1     
  29 N29            0.4449    -3.5690    11.0202 N.1     
  30 Br30           6.4429    -2.6276     5.3929 Br      
  31 H31           -1.0763     1.8044    -0.6248 H       
  32 H32           -1.0212     1.6915     1.1507 H       
  33 H33           -0.1775    -2.2742    -0.5403 H       
  34 H34            4.3155    -1.6683     3.5837 H       
  35 H35            4.4926    -3.5470     7.4095 H       
  36 H36            0.7113    -2.5760     5.6943 H       
  37 H37            0.8652    -4.0824     7.5899 H       
  38 H38            2.4437    -4.4877     8.3057 H       
  39 H39           -1.2217    -0.5493     0.0325 H       
  40 H40            0.3496    -0.2602    -0.7521 H       
  41 H41            3.1444     3.2316     2.3520 H       
  42 H42            0.9909     2.0843     2.3489 H       
  43 H43            2.9288     3.4488    -1.8069 H       
  44 H44            1.4784    -5.5985     1.5601 H       
  45 H45            2.1296    -4.1137     3.4117 H       
  46 H46            2.6202    -2.1887     9.2180 H       
  47 H47            1.0417    -1.7835     8.5021 H       
@<TRIPOS>BOND
   1    1   20 1
   2    2   11 1
   3    2   16 1
   4    2   31 1
   5    2   32 1
   6    3   20 ar
   7    3   24 ar
   8    3   33 1
   9    4    5 ar
  10    4    9 ar
  11    4   18 1
  12    5    6 ar
  13    5   34 1
  14    6    7 ar
  15    6   30 1
  16    7    8 ar
  17    7   35 1
  18    8    9 ar
  19    8   10 1
  20    9   36 1
  21   10   27 1
  22   10   37 1
  23   10   38 1
  24   11   19 1
  25   11   39 1
  26   11   40 1
  27   12   16 am
  28   12   17 am
  29   12   25 2
  30   13   14 1
  31   13   17 am
  32   13   26 2
  33   14   15 2
  34   14   41 1
  35   15   16 1
  36   15   42 1
  37   17   43 1
  38   18   23 1
  39   19   24 1
  40   20   21 ar
  41   21   22 ar
  42   21   44 1
  43   22   23 ar
  44   22   45 1
  45   23   24 ar
  46   27   28 1
  47   27   46 1
  48   27   47 1
  49   28   29 3

#	End of record

