#	Name: ASD10120001
#	Creating user name:	WinNT
#	Creation time:	15. 06. 2019 21:24

#	Modifying user name:	WinNT
#	Modification time:	15. 06. 2019 21:24

#	Program:	/corina/corina34_cracker 3.40 0067  02.08.2006

@<TRIPOS>MOLECULE
ASD10120001
  46   49    0    0    0
SMALL
NO_CHARGES


@<TRIPOS>ATOM
   1 C1             0.3467     0.7429    -0.8689 C.ar    
   2 N2             0.4950    -0.5657    -0.9370 N.ar    
   3 C3             1.6872    -1.1356    -0.8462 C.ar    
   4 N4             2.7930    -0.4489    -0.6836 N.ar    
   5 C5             2.7518     0.8872    -0.6023 C.ar    
   6 C6             1.4925     1.5370    -0.6956 C.ar    
   7 C7             3.9115     1.6541    -0.4282 C.ar    
   8 C8             3.8126     3.0258    -0.3504 C.ar    
   9 C9             2.5631     3.6622    -0.4431 C.ar    
  10 C10            1.4210     2.9364    -0.6139 C.ar    
  11 O11            2.4921     5.0173    -0.3630 O.3     
  12 N12            4.9673     3.7928    -0.1769 N.am    
  13 C13            1.1939     5.6060    -0.4640 C.3     
  14 C14            1.3118     7.1044    -0.3543 C.ar    
  15 C15            1.4933     7.8682    -1.4919 C.ar    
  16 C16            1.6012     9.2446    -1.3909 C.ar    
  17 C17            1.5271     9.8546    -0.1499 C.ar    
  18 C18            1.3457     9.0890     0.9860 C.ar    
  19 C19            1.2328     7.7148     0.8833 C.ar    
  20 F20            1.7790     9.9922    -2.5021 F       
  21 C21            6.0288     3.2753     0.4726 C.2     
  22 N22            7.1794     3.9733     0.5466 N.am    
  23 C23            8.2457     3.4855     1.3103 C.ar    
  24 C24            9.5531     3.6851     0.8869 C.ar    
  25 C25           10.6040     3.2020     1.6434 C.ar    
  26 C26           10.3537     2.5197     2.8215 C.ar    
  27 C27            9.0529     2.3200     3.2447 C.ar    
  28 C28            7.9987     2.8060     2.4957 C.ar    
  29 Cl29          12.2390     3.4506     1.1156 Cl      
  30 O30            5.9484     2.1788     0.9918 O.2     
  31 H31           -0.6315     1.1935    -0.9489 H       
  32 H32            1.7517    -2.2119    -0.9084 H       
  33 H33            4.8758     1.1733    -0.3552 H       
  34 H34            0.4661     3.4360    -0.6843 H       
  35 H35            5.0050     4.6979    -0.5238 H       
  36 H36            0.7508     5.3458    -1.4253 H       
  37 H37            0.5614     5.2314     0.3408 H       
  38 H38            1.5512     7.3913    -2.4592 H       
  39 H39            1.6115    10.9284    -0.0698 H       
  40 H40            1.2880     9.5645     1.9539 H       
  41 H41            1.0866     7.1176     1.7712 H       
  42 H42            7.2683     4.8137     0.0706 H       
  43 H43            9.7484     4.2168    -0.0326 H       
  44 H44           11.1762     2.1423     3.4110 H       
  45 H45            8.8607     1.7872     4.1643 H       
  46 H46            6.9830     2.6535     2.8297 H       
@<TRIPOS>BOND
   1    1    2 ar
   2    1    6 ar
   3    1   31 1
   4    2    3 ar
   5    3    4 ar
   6    3   32 1
   7    4    5 ar
   8    5    7 ar
   9    5    6 ar
  10    6   10 ar
  11    7    8 ar
  12    7   33 1
  13    8    9 ar
  14    8   12 1
  15    9   10 ar
  16    9   11 1
  17   10   34 1
  18   11   13 1
  19   12   21 am
  20   12   35 1
  21   13   14 1
  22   13   36 1
  23   13   37 1
  24   14   15 ar
  25   14   19 ar
  26   15   16 ar
  27   15   38 1
  28   16   17 ar
  29   16   20 1
  30   17   18 ar
  31   17   39 1
  32   18   19 ar
  33   18   40 1
  34   19   41 1
  35   21   22 am
  36   21   30 2
  37   22   23 1
  38   22   42 1
  39   23   24 ar
  40   23   28 ar
  41   24   25 ar
  42   24   43 1
  43   25   26 ar
  44   25   29 1
  45   26   27 ar
  46   26   44 1
  47   27   28 ar
  48   27   45 1
  49   28   46 1

#	End of record

