#	Name: ASD11530007
#	Creating user name:	WinNT
#	Creation time:	15. 06. 2019 21:29

#	Modifying user name:	WinNT
#	Modification time:	15. 06. 2019 21:29

#	Program:	/corina/corina34_cracker 3.40 0067  02.08.2006

@<TRIPOS>MOLECULE
ASD11530007
  27   29    0    0    0
SMALL
NO_CHARGES


@<TRIPOS>ATOM
   1 C1            -0.1070     1.7421    -0.8920 C.ar    
   2 C2            -0.0829     0.3179    -1.3140 C.ar    
   3 C3            -1.3175    -0.4454    -1.2427 C.ar    
   4 C4            -2.4406     0.1677    -0.7956 C.ar    
   5 C5            -2.4405     1.5184    -0.4013 C.ar    
   6 C6            -1.3185     2.2896    -0.4382 C.ar    
   7 N7             1.1354     2.1179    -1.0780 N.2     
   8 O8             1.7748     1.1774    -1.5051 O.3     
   9 N9             1.1645     0.1388    -1.6634 N.2     
  10 N10           -1.3779     3.7060    -0.0109 N.pl3   
  11 O11           -1.1717     4.0001     1.1529 O.2     
  12 O12           -1.6331     4.5770    -0.8232 O.2     
  13 N13           -3.6310     2.0866     0.0482 N.pl3   
  14 C14           -4.8269     1.3711    -0.0493 C.ar    
  15 C15           -5.7203     1.3606     1.0145 C.ar    
  16 C16           -6.9024     0.6530     0.9160 C.ar    
  17 C17           -7.1980    -0.0455    -0.2397 C.ar    
  18 C18           -6.3101    -0.0379    -1.3032 C.ar    
  19 C19           -5.1276     0.6736    -1.2123 C.ar    
  20 F20           -6.6018    -0.7215    -2.4313 F       
  21 H21           -1.3398    -1.4831    -1.5410 H       
  22 H22           -3.3605    -0.3956    -0.7409 H       
  23 H23           -3.6293     2.9788     0.4287 H       
  24 H24           -5.4905     1.9053     1.9184 H       
  25 H25           -7.5967     0.6451     1.7432 H       
  26 H26           -8.1228    -0.5985    -0.3136 H       
  27 H27           -4.4353     0.6800    -2.0412 H       
@<TRIPOS>BOND
   1    1    2 ar
   2    1    7 2
   3    1    6 ar
   4    2    3 ar
   5    2    9 2
   6    3    4 ar
   7    3   21 1
   8    4    5 ar
   9    4   22 1
  10    5    6 ar
  11    5   13 1
  12    6   10 1
  13    7    8 1
  14    8    9 1
  15   10   11 2
  16   10   12 2
  17   13   14 1
  18   13   23 1
  19   14   15 ar
  20   14   19 ar
  21   15   16 ar
  22   15   24 1
  23   16   17 ar
  24   16   25 1
  25   17   18 ar
  26   17   26 1
  27   18   19 ar
  28   18   20 1
  29   19   27 1

#	End of record

