#	Name: ASD10420051
#	Creating user name:	WinNT
#	Creation time:	15. 06. 2019 21:27

#	Modifying user name:	WinNT
#	Modification time:	15. 06. 2019 21:27

#	Program:	/corina/corina34_cracker 3.40 0067  02.08.2006

@<TRIPOS>MOLECULE
ASD10420051
  78   82    0    0    0
SMALL
NO_CHARGES


@<TRIPOS>ATOM
   1 N1             1.9986    -2.5013     1.9105 N.am    
   2 C2             1.6652    -3.1614     0.6404 C.3     
   3 C3             1.4785    -2.0858    -0.4367 C.3     
   4 N4             2.6297    -1.1732    -0.3937 N.am    
   5 C5             2.9631    -0.5131     0.8764 C.3     
   6 C6             3.1498    -1.5888     1.9535 C.3     
   7 C7             1.2585    -2.7245     3.0145 C.2     
   8 O8             0.2329    -3.3715     2.9378 O.2     
   9 O9             1.6557    -2.2306     4.2024 O.3     
  10 C10            0.3689    -3.9582     0.8007 C.3     
  11 C11            0.6375    -5.1954     1.6180 C.2     
  12 O12           -0.0783    -5.4698     2.5511 O.2     
  13 C13            3.3667    -0.9461    -1.4989 C.2     
  14 O14            3.1388    -1.5678    -2.5213 O.2     
  15 C15            6.4377     0.9601    -1.3453 C.2     
  16 C16            5.7565    -0.2561    -1.3165 C.2     
  17 C17            4.4066     0.0158    -1.4717 C.2     
  18 N18            4.2451     1.3809    -1.5958 N.pl3   
  19 C19            3.1275     2.1455    -1.7667 C.2     
  20 C20            3.2186     3.4899    -1.8636 C.2     
  21 C21            4.4687     4.1214    -1.7897 C.2     
  22 C22            5.5924     3.3680    -1.6192 C.2     
  23 C23            5.4771     1.9726    -1.5206 C.2     
  24 C24            7.9000     1.1509    -1.2101 C.ar    
  25 C25            8.6564     1.5666    -2.3061 C.ar    
  26 C26           10.0184     1.7426    -2.1738 C.ar    
  27 C27           10.6343     1.5077    -0.9574 C.ar    
  28 C28            9.8897     1.0949     0.1332 C.ar    
  29 C29            8.5260     0.9213     0.0152 C.ar    
  30 C30            6.3761    -1.6195    -1.1479 C.3     
  31 C31            6.6967    -2.1965    -2.5026 C.ar    
  32 C32            8.0013    -2.2041    -2.9591 C.ar    
  33 C33            8.2956    -2.7347    -4.2035 C.ar    
  34 C34            7.2822    -3.2573    -4.9894 C.ar    
  35 C35            5.9788    -3.2487    -4.5309 C.ar    
  36 C36            5.6868    -2.7232    -3.2858 C.ar    
  37 C37            9.1029    -1.6346    -2.1029 C.3     
  38 F38            9.5703    -2.7422    -4.6509 F       
  39 C39            0.8095    -2.5102     5.3487 C.3     
  40 C40            0.7036    -4.0235     5.5474 C.3     
  41 C41            1.4182    -1.8730     6.5994 C.3     
  42 C42           -0.5849    -1.9287     5.1072 C.3     
  43 H43            2.4757    -3.8309     0.3523 H       
  44 H44            1.4215    -2.5567    -1.4181 H       
  45 H45            0.5623    -1.5283    -0.2421 H       
  46 H46            3.8866     0.0545     0.7622 H       
  47 H47            2.1526     0.1563     1.1645 H       
  48 H48            3.2067    -1.1178     2.9349 H       
  49 H49            4.0660    -2.1462     1.7589 H       
  50 H50           -0.3755    -3.3431     1.3064 H       
  51 H51           -0.0045    -4.2459    -0.1821 H       
  52 H52            1.4701    -5.8367     1.3693 H       
  53 H53            2.1594     1.6703    -1.8254 H       
  54 H54            2.3249     4.0810    -1.9990 H       
  55 H55            4.5409     5.1962    -1.8677 H       
  56 H56            6.5619     3.8404    -1.5609 H       
  57 H57            8.1768     1.7499    -3.2563 H       
  58 H58           10.6051     2.0640    -3.0217 H       
  59 H59           11.7007     1.6468    -0.8588 H       
  60 H60           10.3763     0.9124     1.0799 H       
  61 H61            7.9451     0.6040     0.8686 H       
  62 H62            7.2924    -1.5325    -0.5639 H       
  63 H63            5.6761    -2.2752    -0.6301 H       
  64 H64            7.5106    -3.6712    -5.9605 H       
  65 H65            5.1883    -3.6562    -5.1437 H       
  66 H66            4.6684    -2.7210    -2.9263 H       
  67 H67            9.4854    -2.4103    -1.4395 H       
  68 H68            9.9088    -1.2724    -2.7411 H       
  69 H69            8.7111    -0.8090    -1.5086 H       
  70 H70            1.6970    -4.4378     5.7195 H       
  71 H71            0.0683    -4.2334     6.4079 H       
  72 H72            0.2699    -4.4775     4.6564 H       
  73 H73            1.4937    -0.7948     6.4579 H       
  74 H74            0.7830    -2.0829     7.4600 H       
  75 H75            2.4116    -2.2873     6.7715 H       
  76 H76           -1.0186    -2.3826     4.2161 H       
  77 H77           -1.2202    -2.1386     5.9677 H       
  78 H78           -0.5094    -0.8505     4.9656 H       
@<TRIPOS>BOND
   1    1    2 1
   2    1    6 1
   3    1    7 am
   4    2    3 1
   5    2   10 1
   6    2   43 1
   7    3    4 1
   8    3   44 1
   9    3   45 1
  10    4    5 1
  11    4   13 am
  12    5    6 1
  13    5   46 1
  14    5   47 1
  15    6   48 1
  16    6   49 1
  17    7    8 2
  18    7    9 1
  19    9   39 1
  20   10   11 1
  21   10   50 1
  22   10   51 1
  23   11   12 2
  24   11   52 1
  25   13   14 2
  26   13   17 1
  27   15   16 1
  28   15   23 2
  29   15   24 1
  30   16   17 2
  31   16   30 1
  32   17   18 1
  33   18   19 1
  34   18   23 1
  35   19   20 2
  36   19   53 1
  37   20   21 1
  38   20   54 1
  39   21   22 2
  40   21   55 1
  41   22   23 1
  42   22   56 1
  43   24   25 ar
  44   24   29 ar
  45   25   26 ar
  46   25   57 1
  47   26   27 ar
  48   26   58 1
  49   27   28 ar
  50   27   59 1
  51   28   29 ar
  52   28   60 1
  53   29   61 1
  54   30   31 1
  55   30   62 1
  56   30   63 1
  57   31   32 ar
  58   31   36 ar
  59   32   33 ar
  60   32   37 1
  61   33   34 ar
  62   33   38 1
  63   34   35 ar
  64   34   64 1
  65   35   36 ar
  66   35   65 1
  67   36   66 1
  68   37   67 1
  69   37   68 1
  70   37   69 1
  71   39   40 1
  72   39   42 1
  73   39   41 1
  74   40   70 1
  75   40   71 1
  76   40   72 1
  77   41   73 1
  78   41   74 1
  79   41   75 1
  80   42   76 1
  81   42   77 1
  82   42   78 1

#	End of record

