#	Name: ASD10420052
#	Creating user name:	WinNT
#	Creation time:	15. 06. 2019 21:27

#	Modifying user name:	WinNT
#	Modification time:	15. 06. 2019 21:27

#	Program:	/corina/corina34_cracker 3.40 0067  02.08.2006

@<TRIPOS>MOLECULE
ASD10420052
  79   83    0    0    0
SMALL
NO_CHARGES


@<TRIPOS>ATOM
   1 C1            -0.8264    -4.1015     5.6490 C.2     
   2 C2            -0.7866    -3.9636     4.1489 C.3     
   3 O3             0.2007    -4.0792     6.2851 O.2     
   4 O4            -2.0031    -4.2436     6.2790 O.3     
   5 N5             1.1762    -2.4956     4.1019 N.am    
   6 C6             0.6645    -3.8100     3.6891 C.3     
   7 C7             0.7326    -3.9041     2.1598 C.3     
   8 N8             2.0761    -3.4982     1.7237 N.am    
   9 C9             2.5878    -2.1838     2.1365 C.3     
  10 C10            2.5197    -2.0897     3.6658 C.3     
  11 C11            2.8256    -4.3168     0.9592 C.2     
  12 O12            2.4308    -5.4397     0.7009 O.2     
  13 C13            6.2761    -3.5231     0.2158 C.2     
  14 C14            5.3131    -4.1420     1.0117 C.2     
  15 C15            4.0729    -3.8712     0.4559 C.2     
  16 N16            4.2565    -3.0949    -0.6704 N.pl3   
  17 C17            3.3641    -2.5692    -1.5593 C.2     
  18 C18            3.7874    -1.8264    -2.6054 C.2     
  19 C19            5.1560    -1.5840    -2.7932 C.2     
  20 C20            6.0571    -2.1039    -1.9116 C.2     
  21 C21            5.5976    -2.8732    -0.8310 C.2     
  22 C22            7.7406    -3.5413     0.4353 C.ar    
  23 C23            8.5813    -4.1470    -0.4988 C.ar    
  24 C24            9.9448    -4.1607    -0.2886 C.ar    
  25 C25           10.4787    -3.5754     0.8457 C.ar    
  26 C26            9.6501    -2.9735     1.7760 C.ar    
  27 C27            8.2855    -2.9478     1.5741 C.ar    
  28 C28            5.5737    -4.9583     2.2514 C.3     
  29 C29            5.6376    -6.4191     1.8867 C.ar    
  30 C30            6.8625    -7.0319     1.7011 C.ar    
  31 C31            6.9209    -8.3739     1.3665 C.ar    
  32 C32            5.7516    -9.1010     1.2182 C.ar    
  33 C33            4.5282    -8.4862     1.4043 C.ar    
  34 C34            4.4713    -7.1471     1.7436 C.ar    
  35 C35            8.1340    -6.2392     1.8623 C.3     
  36 F36            8.1176    -8.9738     1.1843 F       
  37 C37            0.4246    -1.6749     4.8622 C.2     
  38 O38           -0.7262    -1.9686     5.1186 O.2     
  39 O39            0.9491    -0.5296     5.3376 O.3     
  40 C40            0.0818     0.3055     6.1494 C.3     
  41 C41           -0.3755    -0.4794     7.3805 C.3     
  42 C42            0.8468     1.5532     6.5952 C.3     
  43 C43           -1.1396     0.7225     5.3277 C.3     
  44 H44           -1.2208    -4.8523     3.6907 H       
  45 H45           -1.3576    -3.0847     3.8495 H       
  46 H46           -1.9781    -4.3284     7.2420 H       
  47 H47            1.2763    -4.5962     4.1316 H       
  48 H48            0.5413    -4.9308     1.8476 H       
  49 H49           -0.0112    -3.2404     1.7189 H       
  50 H50            3.6216    -2.0743     1.8090 H       
  51 H51            1.9760    -1.3976     1.6940 H       
  52 H52            2.7110    -1.0630     3.9780 H       
  53 H53            3.2635    -2.7534     4.1067 H       
  54 H54            2.3078    -2.7495    -1.4252 H       
  55 H55            3.0687    -1.4177    -3.3003 H       
  56 H56            5.4937    -0.9903    -3.6298 H       
  57 H57            7.1141    -1.9259    -2.0437 H       
  58 H58            8.1656    -4.6045    -1.3844 H       
  59 H59           10.5967    -4.6296    -1.0108 H       
  60 H60           11.5467    -3.5887     1.0058 H       
  61 H61           10.0728    -2.5189     2.6598 H       
  62 H62            7.6401    -2.4731     2.2984 H       
  63 H63            6.5213    -4.6528     2.6950 H       
  64 H64            4.7684    -4.7976     2.9682 H       
  65 H65            5.7960   -10.1479     0.9569 H       
  66 H66            3.6162    -9.0530     1.2887 H       
  67 H67            3.5147    -6.6685     1.8932 H       
  68 H68            8.5307    -6.3890     2.8664 H       
  69 H69            8.8668    -6.5746     1.1284 H       
  70 H70            7.9242    -5.1807     1.7087 H       
  71 H71            0.4946    -0.7766     7.9658 H       
  72 H72           -1.0266     0.1475     7.9898 H       
  73 H73           -0.9205    -1.3684     7.0628 H       
  74 H74            1.1726     2.1124     5.7182 H       
  75 H75            0.1958     2.1801     7.2046 H       
  76 H76            1.7169     1.2561     7.1806 H       
  77 H77           -1.6845    -0.1664     5.0100 H       
  78 H78           -1.7906     1.3494     5.9370 H       
  79 H79           -0.8137     1.2817     4.4506 H       
@<TRIPOS>BOND
   1    1    2 1
   2    1    3 2
   3    1    4 1
   4    2    6 1
   5    2   44 1
   6    2   45 1
   7    4   46 1
   8    5    6 1
   9    5   10 1
  10    5   37 am
  11    6    7 1
  12    6   47 1
  13    7    8 1
  14    7   48 1
  15    7   49 1
  16    8    9 1
  17    8   11 am
  18    9   10 1
  19    9   50 1
  20    9   51 1
  21   10   52 1
  22   10   53 1
  23   11   12 2
  24   11   15 1
  25   13   14 1
  26   13   21 2
  27   13   22 1
  28   14   15 2
  29   14   28 1
  30   15   16 1
  31   16   17 1
  32   16   21 1
  33   17   18 2
  34   17   54 1
  35   18   19 1
  36   18   55 1
  37   19   20 2
  38   19   56 1
  39   20   21 1
  40   20   57 1
  41   22   23 ar
  42   22   27 ar
  43   23   24 ar
  44   23   58 1
  45   24   25 ar
  46   24   59 1
  47   25   26 ar
  48   25   60 1
  49   26   27 ar
  50   26   61 1
  51   27   62 1
  52   28   29 1
  53   28   63 1
  54   28   64 1
  55   29   30 ar
  56   29   34 ar
  57   30   31 ar
  58   30   35 1
  59   31   32 ar
  60   31   36 1
  61   32   33 ar
  62   32   65 1
  63   33   34 ar
  64   33   66 1
  65   34   67 1
  66   35   68 1
  67   35   69 1
  68   35   70 1
  69   37   38 2
  70   37   39 1
  71   39   40 1
  72   40   41 1
  73   40   43 1
  74   40   42 1
  75   41   71 1
  76   41   72 1
  77   41   73 1
  78   42   74 1
  79   42   75 1
  80   42   76 1
  81   43   77 1
  82   43   78 1
  83   43   79 1

#	End of record

