#	Name: ASD10410182
#	Creating user name:	WinNT
#	Creation time:	15. 06. 2019 21:27

#	Modifying user name:	WinNT
#	Modification time:	15. 06. 2019 21:27

#	Program:	/corina/corina34_cracker 3.40 0067  02.08.2006

@<TRIPOS>MOLECULE
ASD10410182
  70   76    0    0    0
SMALL
NO_CHARGES


@<TRIPOS>ATOM
   1 C1            -0.3947     1.3980    -0.6879 C.ar    
   2 C2            -0.4319     0.0167    -0.5615 C.ar    
   3 C3             0.7312    -0.7281    -0.7266 C.ar    
   4 C4             1.9231    -0.0916    -1.0165 C.ar    
   5 C5             1.9587     1.2914    -1.1427 C.ar    
   6 C6             0.7972     2.0338    -0.9778 C.ar    
   7 F7             0.6957    -2.0729    -0.6032 F       
   8 N8             3.1663     1.9367    -1.4360 N.pl3   
   9 C9             3.1643     3.1133    -2.1847 C.2     
  10 N10            4.2182     3.8468    -2.4507 N.2     
  11 N11            2.0874     3.6704    -2.7509 N.2     
  12 C12            2.4370     4.7708    -3.3820 C.2     
  13 N13            3.7780     4.9325    -3.2249 N.pl3   
  14 C14            4.5595     5.9684    -3.7315 C.ar    
  15 N15            1.5926     5.6106    -4.0822 N.pl3   
  16 N16           -1.6409    -0.6278    -0.2671 N.3     
  17 C17           -2.1864    -0.1635     1.0161 C.3     
  18 C18           -3.5419    -0.8301     1.2623 C.3     
  19 N19           -3.3741    -2.2901     1.2620 N.3     
  20 C20           -2.8287    -2.7544    -0.0211 C.3     
  21 C21           -1.4732    -2.0877    -0.2674 C.3     
  22 C22           -4.0936    -0.3800     2.6165 C.3     
  23 N23            4.0101     6.9369    -4.4531 N.ar    
  24 C24            4.7465     7.9214    -4.9359 C.ar    
  25 N25            6.0383     7.9992    -4.7357 N.ar    
  26 C26            6.6908     7.0613    -4.0136 C.ar    
  27 C27            5.9391     6.0081    -3.4826 C.ar    
  28 C28           -4.6415    -2.9657     1.5707 C.3     
  29 C29           -4.5528    -4.4796     1.2083 C.3     
  30 C30           -4.9073    -2.9432     3.0933 C.3     
  31 C31           -4.9541    -4.4458     3.5075 C.3     
  32 C32           -6.0132    -5.0039     1.3613 C.3     
  33 C33           -6.2790    -4.9815     2.8839 C.3     
  34 C34           -3.9003    -5.0531     2.5155 C.3     
  35 C35            8.0531     6.9650    -3.6891 C.2     
  36 C36            8.3981     5.9177    -2.9570 C.2     
  37 S37            6.9972     4.9246    -2.5911 S.3     
  38 C38            9.0596     7.9894    -4.1460 C.3     
  39 H39           -1.2986     1.9759    -0.5641 H       
  40 H40            2.8267    -0.6691    -1.1445 H       
  41 H41            0.8254     3.1090    -1.0760 H       
  42 H42            4.0042     1.5654    -1.1184 H       
  43 H43            0.6456     5.4084    -4.1396 H       
  44 H44            1.9467     6.4023    -4.5165 H       
  45 H45           -1.4996    -0.4280     1.8202 H       
  46 H46           -2.3132     0.9187     0.9871 H       
  47 H47           -4.2367    -0.5437     0.4728 H       
  48 H48           -2.7018    -3.8366     0.0079 H       
  49 H49           -3.5154    -2.4899    -0.8252 H       
  50 H50           -1.0801    -2.4084    -1.2321 H       
  51 H51           -0.7783    -2.3741     0.5221 H       
  52 H52           -4.1093     0.7091     2.6587 H       
  53 H53           -5.1064    -0.7630     2.7417 H       
  54 H54           -3.4582    -0.7653     3.4140 H       
  55 H55            4.2644     8.6922    -5.5189 H       
  56 H56           -5.4636    -2.4937     1.0327 H       
  57 H57           -4.0579    -4.7159     0.2662 H       
  58 H58           -4.0975    -2.4309     3.6129 H       
  59 H59           -5.8613    -2.4607     3.3054 H       
  60 H60           -4.8088    -4.6525     4.5678 H       
  61 H61           -6.7099    -4.3441     0.8442 H       
  62 H62           -6.0944    -6.0204     0.9763 H       
  63 H63           -6.4908    -5.9870     3.2475 H       
  64 H64           -7.1064    -4.3107     3.1154 H       
  65 H65           -3.9052    -6.1430     2.5307 H       
  66 H66           -2.9012    -4.6511     2.6840 H       
  67 H67            9.4042     5.7044    -2.6274 H       
  68 H68            9.1369     8.7806    -3.4003 H       
  69 H69           10.0317     7.5126    -4.2720 H       
  70 H70            8.7382     8.4158    -5.0962 H       
@<TRIPOS>BOND
   1    1    2 ar
   2    1    6 ar
   3    1   39 1
   4    2    3 ar
   5    2   16 1
   6    3    4 ar
   7    3    7 1
   8    4    5 ar
   9    4   40 1
  10    5    6 ar
  11    5    8 1
  12    6   41 1
  13    8    9 1
  14    8   42 1
  15    9   10 2
  16    9   11 1
  17   10   13 1
  18   11   12 2
  19   12   13 1
  20   12   15 1
  21   13   14 1
  22   14   23 ar
  23   14   27 ar
  24   15   43 1
  25   15   44 1
  26   16   17 1
  27   16   21 1
  28   17   18 1
  29   17   45 1
  30   17   46 1
  31   18   19 1
  32   18   22 1
  33   18   47 1
  34   19   20 1
  35   19   28 1
  36   20   21 1
  37   20   48 1
  38   20   49 1
  39   21   50 1
  40   21   51 1
  41   22   52 1
  42   22   53 1
  43   22   54 1
  44   23   24 ar
  45   24   25 ar
  46   24   55 1
  47   25   26 ar
  48   26   27 ar
  49   26   35 1
  50   27   37 1
  51   28   29 1
  52   28   30 1
  53   28   56 1
  54   29   32 1
  55   29   34 1
  56   29   57 1
  57   30   31 1
  58   30   58 1
  59   30   59 1
  60   31   33 1
  61   31   34 1
  62   31   60 1
  63   32   33 1
  64   32   61 1
  65   32   62 1
  66   33   63 1
  67   33   64 1
  68   34   65 1
  69   34   66 1
  70   35   36 2
  71   35   38 1
  72   36   37 1
  73   36   67 1
  74   38   68 1
  75   38   69 1
  76   38   70 1

#	End of record

