#	Name: ASD10420003
#	Creating user name:	WinNT
#	Creation time:	15. 06. 2019 21:27

#	Modifying user name:	WinNT
#	Modification time:	15. 06. 2019 21:27

#	Program:	/corina/corina34_cracker 3.40 0067  02.08.2006

@<TRIPOS>MOLECULE
ASD10420003
  64   68    0    0    0
SMALL
NO_CHARGES


@<TRIPOS>ATOM
   1 N1            -0.0235     0.2515    -0.5230 N.pl3   
   2 C2            -0.4450    -0.9636    -0.9957 C.2     
   3 C3            -1.8391    -0.9505    -1.0499 C.2     
   4 C4            -2.2644     0.2864    -0.6049 C.2     
   5 C5            -1.1354     1.0310    -0.2838 C.2     
   6 C6             1.3095     0.5041    -0.3724 C.2     
   7 C7             2.2294    -0.4337    -0.6854 C.2     
   8 C8             1.8266    -1.6871    -1.1716 C.2     
   9 C9             0.4998    -1.9532    -1.3256 C.2     
  10 C10           -1.1287     2.3571     0.2110 C.2     
  11 N11           -1.0912     3.3962    -0.6465 N.am    
  12 C12           -1.1895     4.7806    -0.1597 C.3     
  13 C13           -0.0295     5.5882    -0.7516 C.3     
  14 N14           -0.0310     5.4422    -2.2133 N.3     
  15 C15            0.1996     4.0466    -2.6097 C.3     
  16 C16           -0.9449     3.1760    -2.0933 C.3     
  17 O17           -1.1568     2.5592     1.4120 O.2     
  18 C18           -3.6948     0.7473    -0.4930 C.3     
  19 C19           -4.1943     0.4998     0.9071 C.ar    
  20 C20           -4.3679     1.5604     1.7762 C.ar    
  21 C21           -4.4839    -0.7872     1.3199 C.ar    
  22 C22           -4.9422    -1.0158     2.6042 C.ar    
  23 C23           -5.1117     0.0424     3.4765 C.ar    
  24 C24           -4.8267     1.3328     3.0624 C.ar    
  25 F25           -4.9916     2.3681     3.9145 F       
  26 C26           -4.0574     2.9641     1.3241 C.3     
  27 C27           -2.7218    -2.0814    -1.5114 C.3     
  28 C28           -2.3867    -2.4302    -2.9630 C.3     
  29 C29           -3.2829    -3.5783    -3.4315 C.3     
  30 C30           -3.0478    -4.8031    -2.5454 C.3     
  31 C31           -3.3829    -4.4543    -1.0938 C.3     
  32 C32           -2.4867    -3.3062    -0.6252 C.3     
  33 H33            1.6321     1.4648     0.0009 H       
  34 H34            3.2803    -0.2180    -0.5612 H       
  35 H35            2.5638    -2.4357    -1.4216 H       
  36 H36            0.1760    -2.9136    -1.6988 H       
  37 H37           -2.1375     5.2142    -0.4780 H       
  38 H38           -1.1256     4.7915     0.9284 H       
  39 H39           -0.1483     6.6399    -0.4910 H       
  40 H40            0.9137     5.2179    -0.3501 H       
  41 H41           -0.8891     5.7939    -2.6110 H       
  42 H42            0.2470     3.9802    -3.6966 H       
  43 H43            1.1397     3.6977    -2.1822 H       
  44 H44           -0.7217     2.1264    -2.2849 H       
  45 H45           -1.8715     3.4538    -2.5955 H       
  46 H46           -3.7518     1.8127    -0.7161 H       
  47 H47           -4.3113     0.1942    -1.2017 H       
  48 H48           -4.3525    -1.6148     0.6386 H       
  49 H49           -5.1682    -2.0218     2.9256 H       
  50 H50           -5.4703    -0.1363     4.4794 H       
  51 H51           -4.9290     3.3857     0.8234 H       
  52 H52           -3.8036     3.5767     2.1892 H       
  53 H53           -3.2151     2.9451     0.6326 H       
  54 H54           -3.7666    -1.7782    -1.4425 H       
  55 H55           -2.5543    -1.5575    -3.5943 H       
  56 H56           -1.3420    -2.7333    -3.0319 H       
  57 H57           -4.3277    -3.2751    -3.3626 H       
  58 H58           -3.0442    -3.8268    -4.4656 H       
  59 H59           -3.6863    -5.6211    -2.8792 H       
  60 H60           -2.0031    -5.1063    -2.6143 H       
  61 H61           -4.4276    -4.1512    -1.0249 H       
  62 H62           -3.2154    -5.3270    -0.4625 H       
  63 H63           -1.4420    -3.6094    -0.6942 H       
  64 H64           -2.7254    -3.0577     0.4089 H       
@<TRIPOS>BOND
   1    1    2 1
   2    1    6 1
   3    1    5 1
   4    2    3 2
   5    2    9 1
   6    3    4 1
   7    3   27 1
   8    4    5 2
   9    4   18 1
  10    5   10 1
  11    6    7 2
  12    6   33 1
  13    7    8 1
  14    7   34 1
  15    8    9 2
  16    8   35 1
  17    9   36 1
  18   10   11 am
  19   10   17 2
  20   11   12 1
  21   11   16 1
  22   12   13 1
  23   12   37 1
  24   12   38 1
  25   13   14 1
  26   13   39 1
  27   13   40 1
  28   14   15 1
  29   14   41 1
  30   15   16 1
  31   15   42 1
  32   15   43 1
  33   16   44 1
  34   16   45 1
  35   18   19 1
  36   18   46 1
  37   18   47 1
  38   19   20 ar
  39   19   21 ar
  40   20   26 1
  41   20   24 ar
  42   21   22 ar
  43   21   48 1
  44   22   23 ar
  45   22   49 1
  46   23   24 ar
  47   23   50 1
  48   24   25 1
  49   26   51 1
  50   26   52 1
  51   26   53 1
  52   27   28 1
  53   27   32 1
  54   27   54 1
  55   28   29 1
  56   28   55 1
  57   28   56 1
  58   29   30 1
  59   29   57 1
  60   29   58 1
  61   30   31 1
  62   30   59 1
  63   30   60 1
  64   31   32 1
  65   31   61 1
  66   31   62 1
  67   32   63 1
  68   32   64 1

#	End of record

