#	Name: ASD10950082
#	Creating user name:	WinNT
#	Creation time:	15. 06. 2019 21:28

#	Modifying user name:	WinNT
#	Modification time:	15. 06. 2019 21:28

#	Program:	/corina/corina34_cracker 3.40 0067  02.08.2006

@<TRIPOS>MOLECULE
ASD10950082
  50   54    0    0    0
SMALL
NO_CHARGES


@<TRIPOS>ATOM
   1 O1             0.4376     0.2849    -1.3095 O.2     
   2 C2             0.4459     0.9685    -0.3032 C.2     
   3 C3             1.5066     1.9596    -0.0991 C.2     
   4 C4             2.8233     1.7063     0.0865 C.2     
   5 O5             3.3888     0.4778     0.1151 O.3     
   6 C6             3.5451     2.9857     0.2524 C.2     
   7 O7             4.7413     3.0928     0.4357 O.2     
   8 N8             2.6815     4.0141     0.1697 N.am    
   9 C9             1.3420     3.4610    -0.0619 C.3     
  10 C10            0.7939     3.9628    -1.3730 C.2     
  11 C11           -0.4825     4.4843    -1.4956 C.2     
  12 C12           -0.8108     4.8835    -2.7253 C.2     
  13 S13            0.5393     4.6020    -3.8169 S.3     
  14 C14            1.5039     3.9432    -2.5020 C.2     
  15 C15            3.0193     5.4349     0.2854 C.3     
  16 C16            3.3503     5.9947    -1.0995 C.3     
  17 C17            3.6978     7.4563    -0.9806 C.2     
  18 C18            2.8620     8.4924    -1.1530 C.2     
  19 N19            3.5331     9.6697    -0.9636 N.pl3   
  20 C20            4.8506     9.4132    -0.6568 C.ar    
  21 C21            5.0104     8.0157    -0.6486 C.ar    
  22 C22            6.2588     7.4588    -0.3639 C.ar    
  23 C23            7.3203     8.2757    -0.0944 C.ar    
  24 C24            7.1677     9.6556    -0.1008 C.ar    
  25 C25            5.9443    10.2259    -0.3757 C.ar    
  26 C26           -0.6172     0.8040     0.7112 C.ar    
  27 C27           -1.7013    -0.0504     0.4745 C.ar    
  28 C28           -2.6690    -0.1692     1.4563 C.ar    
  29 C29           -2.5363     0.5526     2.6290 C.ar    
  30 N30           -1.5037     1.3506     2.8250 N.ar    
  31 C31           -0.5545     1.4935     1.9240 C.ar    
  32 H32            4.3451     0.4882     0.2588 H       
  33 H33            0.6754     3.7390     0.7545 H       
  34 H34           -1.1612     4.5618    -0.6592 H       
  35 H35           -1.7605     5.3132    -3.0076 H       
  36 H36            2.5147     3.5743    -2.5955 H       
  37 H37            2.1712     5.9772     0.7033 H       
  38 H38            3.8830     5.5509     0.9401 H       
  39 H39            4.1985     5.4525    -1.5175 H       
  40 H40            2.4866     5.8788    -1.7542 H       
  41 H41            1.8150     8.4092    -1.4047 H       
  42 H42            3.1394    10.5533    -1.0350 H       
  43 H43            6.3848     6.3862    -0.3564 H       
  44 H44            8.2857     7.8445     0.1258 H       
  45 H45            8.0161    10.2882     0.1146 H       
  46 H46            5.8358    11.3004    -0.3784 H       
  47 H47           -1.7802    -0.6021    -0.4506 H       
  48 H48           -3.5194    -0.8185     1.3085 H       
  49 H49           -3.2905     0.4618     3.3966 H       
  50 H50            0.2753     2.1562     2.1208 H       
@<TRIPOS>BOND
   1    1    2 2
   2    2    3 1
   3    2   26 1
   4    3    4 2
   5    3    9 1
   6    4    5 1
   7    4    6 1
   8    5   32 1
   9    6    7 2
  10    6    8 am
  11    8    9 1
  12    8   15 1
  13    9   10 1
  14    9   33 1
  15   10   11 1
  16   10   14 2
  17   11   12 2
  18   11   34 1
  19   12   13 1
  20   12   35 1
  21   13   14 1
  22   14   36 1
  23   15   16 1
  24   15   37 1
  25   15   38 1
  26   16   17 1
  27   16   39 1
  28   16   40 1
  29   17   18 2
  30   17   21 1
  31   18   19 1
  32   18   41 1
  33   19   20 1
  34   19   42 1
  35   20   21 ar
  36   20   25 ar
  37   21   22 ar
  38   22   23 ar
  39   22   43 1
  40   23   24 ar
  41   23   44 1
  42   24   25 ar
  43   24   45 1
  44   25   46 1
  45   26   27 ar
  46   26   31 ar
  47   27   28 ar
  48   27   47 1
  49   28   29 ar
  50   28   48 1
  51   29   30 ar
  52   29   49 1
  53   30   31 ar
  54   31   50 1

#	End of record

