#	Name: ASD13110002
#	Creating user name:	WinNT
#	Creation time:	15. 06. 2019 21:30

#	Modifying user name:	WinNT
#	Modification time:	15. 06. 2019 21:30

#	Program:	/corina/corina34_cracker 3.40 0067  02.08.2006

@<TRIPOS>MOLECULE
ASD13110002
  50   54    0    0    0
SMALL
NO_CHARGES


@<TRIPOS>ATOM
   1 C1             1.3282     1.0136     3.0938 C.3     
   2 C2             1.0412    -0.4797     3.1050 C.ar    
   3 C3             0.0853    -0.8748     4.0399 C.ar    
   4 C4            -0.4879     0.2628     4.8703 C.3     
   5 C5             0.7183     0.9705     5.4667 C.ar    
   6 C6             1.6739     1.3656     4.5319 C.ar    
   7 C7             1.6409    -1.3961     2.2900 C.ar    
   8 C8             1.2820    -2.7330     2.4079 C.ar    
   9 C9             0.3340    -3.1246     3.3344 C.ar    
  10 C10           -0.2718    -2.1868     4.1611 C.ar    
  11 C11            2.8101     2.0121     4.9257 C.ar    
  12 C12            0.8973     1.2215     6.7967 C.ar    
  13 C13            2.0510     1.8794     7.2044 C.ar    
  14 C14            2.9989     2.2705     6.2776 C.ar    
  15 C15           -1.0815     1.2567     3.8469 C.3     
  16 C16           -0.0346     1.6894     2.8228 C.3     
  17 C17            0.1341     3.1854     2.8915 C.2     
  18 C18           -0.5150     1.3046     1.4221 C.3     
  19 O19            1.2232     3.6625     3.1307 O.2     
  20 N20           -0.9253     3.9931     2.6871 N.am    
  21 C21           -0.7934     5.3770     2.8552 C.ar    
  22 C22           -0.3077     7.5443     1.9475 C.ar    
  23 C23           -0.4366     6.1783     1.7780 C.ar    
  24 C24           -1.0246     5.9527     4.0985 C.ar    
  25 C25           -0.8939     7.3191     4.2606 C.ar    
  26 C26           -0.5339     8.1131     3.1871 C.ar    
  27 Cl27          -0.1523     5.4651     0.2210 Cl      
  28 Cl28          -1.4777     4.9571     5.4465 Cl      
  29 C29           -1.1445     7.9444     5.6087 C.3     
  30 H30            2.1079     1.2939     2.3856 H       
  31 H31           -1.2012    -0.0741     5.6226 H       
  32 H32            2.3808    -1.0873     1.5664 H       
  33 H33            1.7467    -3.4712     1.7711 H       
  34 H34            0.0628    -4.1668     3.4166 H       
  35 H35           -1.0129    -2.4901     4.8858 H       
  36 H36            3.5490     2.3169     4.1994 H       
  37 H37            0.1553     0.9145     7.5188 H       
  38 H38            2.2084     2.0864     8.2527 H       
  39 H39            3.8921     2.7809     6.6065 H       
  40 H40           -1.9132     0.7803     3.3278 H       
  41 H41           -1.4488     2.1364     4.3754 H       
  42 H42           -0.6240     0.2219     1.3600 H       
  43 H43           -1.4765     1.7786     1.2248 H       
  44 H44            0.2134     1.6393     0.6835 H       
  45 H45           -1.7792     3.6158     2.4236 H       
  46 H46           -0.0303     8.1679     1.1105 H       
  47 H47           -0.4324     9.1805     3.3167 H       
  48 H48           -0.2137     7.9717     6.1752 H       
  49 H49           -1.5180     8.9596     5.4745 H       
  50 H50           -1.8829     7.3543     6.1513 H       
@<TRIPOS>BOND
   1    1    2 1
   2    1    6 1
   3    1   16 1
   4    1   30 1
   5    2    3 ar
   6    2    7 ar
   7    3    4 1
   8    3   10 ar
   9    4    5 1
  10    4   15 1
  11    4   31 1
  12    5   12 ar
  13    5    6 ar
  14    6   11 ar
  15    7    8 ar
  16    7   32 1
  17    8    9 ar
  18    8   33 1
  19    9   10 ar
  20    9   34 1
  21   10   35 1
  22   11   14 ar
  23   11   36 1
  24   12   13 ar
  25   12   37 1
  26   13   14 ar
  27   13   38 1
  28   14   39 1
  29   15   16 1
  30   15   40 1
  31   15   41 1
  32   16   17 1
  33   16   18 1
  34   17   19 2
  35   17   20 am
  36   18   42 1
  37   18   43 1
  38   18   44 1
  39   20   21 1
  40   20   45 1
  41   21   24 ar
  42   21   23 ar
  43   22   23 ar
  44   22   26 ar
  45   22   46 1
  46   23   27 1
  47   24   25 ar
  48   24   28 1
  49   25   26 ar
  50   25   29 1
  51   26   47 1
  52   29   48 1
  53   29   49 1
  54   29   50 1

#	End of record

