#	Name: ASD10160356
#	Creating user name:	WinNT
#	Creation time:	15. 06. 2019 21:25

#	Modifying user name:	WinNT
#	Modification time:	15. 06. 2019 21:25

#	Program:	/corina/corina34_cracker 3.40 0067  02.08.2006

@<TRIPOS>MOLECULE
ASD10160356
  31   32    0    0    0
SMALL
NO_CHARGES


@<TRIPOS>ATOM
   1 C1            -0.0167     1.3812     0.0096 C.ar    
   2 C2             0.0021    -0.0041     0.0020 C.ar    
   3 C3             1.2262    -0.6663    -0.0132 C.ar    
   4 C4             2.3855     0.0912    -0.0202 C.ar    
   5 C5             2.2884     1.4774    -0.0118 C.ar    
   6 N6             1.1077     2.0719     0.0026 N.ar    
   7 O7            -1.1613    -0.7082     0.0098 O.3     
   8 O8             3.4188     2.2296    -0.0181 O.3     
   9 N9             4.2342     6.2649    -0.7397 N.3     
  10 C10            4.2903     5.8201     0.6586 C.3     
  11 C11            4.4423     4.2980     0.7053 C.3     
  12 C12            3.2535     3.6490    -0.0089 C.3     
  13 C13            3.1891     4.1660    -1.4488 C.3     
  14 C14            3.0734     5.6919    -1.4330 C.3     
  15 C15            4.2276     7.7314    -0.8257 C.3     
  16 Cl16           3.9402    -0.6810    -0.0386 Cl      
  17 H17           -0.9628     1.9020     0.0169 H       
  18 H18            1.2709    -1.7453    -0.0191 H       
  19 H19           -1.5066    -0.9072    -0.8713 H       
  20 H20            5.1425     6.2855     1.1539 H       
  21 H21            3.3715     6.1091     1.1689 H       
  22 H22            5.3679     4.0092     0.2073 H       
  23 H23            4.4683     3.9665     1.7434 H       
  24 H24            2.3313     3.9050     0.5126 H       
  25 H25            4.0949     3.8752    -1.9807 H       
  26 H26            2.3197     3.7403    -1.9497 H       
  27 H27            2.1603     5.9816    -0.9130 H       
  28 H28            3.0417     6.0643    -2.4570 H       
  29 H29            5.1354     8.1262    -0.3696 H       
  30 H30            4.1856     8.0338    -1.8721 H       
  31 H31            3.3568     8.1223    -0.2993 H       
@<TRIPOS>BOND
   1    1    2 ar
   2    1    6 ar
   3    1   17 1
   4    2    3 ar
   5    2    7 1
   6    3    4 ar
   7    3   18 1
   8    4    5 ar
   9    4   16 1
  10    5    6 ar
  11    5    8 1
  12    7   19 1
  13    8   12 1
  14    9   10 1
  15    9   14 1
  16    9   15 1
  17   10   11 1
  18   10   20 1
  19   10   21 1
  20   11   12 1
  21   11   22 1
  22   11   23 1
  23   12   13 1
  24   12   24 1
  25   13   14 1
  26   13   25 1
  27   13   26 1
  28   14   27 1
  29   14   28 1
  30   15   29 1
  31   15   30 1
  32   15   31 1

#	End of record

