#	Name: ASD10060002
#	Creating user name:	WinNT
#	Creation time:	15. 06. 2019 21:24

#	Modifying user name:	WinNT
#	Modification time:	15. 06. 2019 21:24

#	Program:	/corina/corina34_cracker 3.40 0067  02.08.2006

@<TRIPOS>MOLECULE
ASD10060002
 166  168    0    0    0
SMALL
NO_CHARGES


@<TRIPOS>ATOM
   1 C1            -0.0569     3.8756    -4.3023 C.2     
   2 C2            -0.6118     2.6822    -5.0363 C.3     
   3 N3             0.2956     1.5435    -4.8736 N.am    
   4 C4             1.3503     1.3989    -5.7001 C.2     
   5 C5             2.2837     0.2276    -5.5327 C.3     
   6 N6             3.3403     0.2967    -6.5451 N.am    
   7 C7             3.9733    -0.8270    -6.9363 C.2     
   8 C8             4.9887    -0.7716    -8.0485 C.3     
   9 N9             5.9734    -1.8406    -7.8644 N.am    
  10 C10            7.1979    -1.7313    -8.4167 C.2     
  11 C11            8.1729    -2.8764    -8.3205 C.3     
  12 N12            9.4220    -2.5121    -8.9937 N.am    
  13 C13           10.5779    -3.1061    -8.6367 C.2     
  14 C14           11.8629    -2.7313    -9.3293 C.3     
  15 C15           12.1356    -1.2397    -9.1258 C.3     
  16 C16           13.3714    -0.8327    -9.9309 C.3     
  17 C17           13.6400     0.6366    -9.7305 C.2     
  18 O18            0.9892     3.7844    -3.7045 O.2     
  19 O19           -0.7219     5.0414    -4.3171 O.3     
  20 O20           12.9173     1.2910    -9.0170 O.2     
  21 O21           14.6823     1.2181   -10.3447 O.3     
  22 O22           10.5841    -3.9422    -7.7582 O.2     
  23 O23            7.5153    -0.7113    -8.9910 O.2     
  24 O24            3.7257    -1.8828    -6.3933 O.2     
  25 O25            1.5482     2.2114    -6.5785 O.2     
  26 C26            7.5739    -4.1139    -8.9917 C.3     
  27 C27            4.2826    -0.9546    -9.3934 C.3     
  28 C28            3.3464     0.2294    -9.6432 C.3     
  29 C29            4.1730     1.5048    -9.8194 C.3     
  30 C30            2.5272    -0.0265   -10.9098 C.3     
  31 C31            2.9104     0.2702    -4.1376 C.3     
  32 C32            3.7603    -0.9836    -3.9219 C.3     
  33 C33            4.3870    -0.9410    -2.5268 C.3     
  34 C34            5.2369    -2.1948    -2.3110 C.3     
  35 N35            5.8386    -2.1539    -0.9715 N.3     
  36 C36           -1.9855     2.3254    -4.4647 C.3     
  37 C37           -2.6031     1.1945    -5.2898 C.3     
  38 C38           -3.9767     0.8377    -4.7182 C.3     
  39 C39           -4.5943    -0.2931    -5.5433 C.3     
  40 N40           -5.9132    -0.6357    -4.9945 N.3     
  41 C41           14.0721    -3.7448    -9.5004 C.2     
  42 C42           15.2081    -4.5470    -8.9198 C.3     
  43 C43           14.7083    -5.9447    -8.5491 C.3     
  44 O44           14.1521    -3.3096   -10.6296 O.2     
  45 N45           12.9672    -3.5111    -8.7648 N.am    
  46 C46           15.8101    -6.7050    -7.8570 C.ar    
  47 C47           15.9367    -6.6375    -6.4818 C.ar    
  48 C48           16.9458    -7.3335    -5.8449 C.ar    
  49 C49           17.8326    -8.1007    -6.5863 C.ar    
  50 C50           17.7034    -8.1668    -7.9660 C.ar    
  51 C51           16.6891    -7.4734    -8.5976 C.ar    
  52 O52           18.8264    -8.7860    -5.9622 O.3     
  53 C53           17.5518    -4.8649    -9.5055 C.2     
  54 C54           18.6571    -4.9802   -10.5234 C.3     
  55 C55           18.7341    -3.6892   -11.3410 C.3     
  56 O56           17.8045    -4.9574    -8.3229 O.2     
  57 N57           16.2826    -4.6590    -9.9093 N.am    
  58 O58           18.8857    -2.5752   -10.4590 O.3     
  59 C59           20.9445    -5.8186   -10.4769 C.2     
  60 C60           22.2563    -6.0449    -9.7705 C.3     
  61 C61           22.0243    -6.9060    -8.5273 C.3     
  62 C62           23.3561    -7.1358    -7.8102 C.3     
  63 O63           20.7995    -6.1928   -11.6213 O.2     
  64 N64           19.9324    -5.2002    -9.8367 N.am    
  65 O65           21.1185    -6.2375    -7.6471 O.3     
  66 C66           24.5148    -6.6030   -10.4949 C.2     
  67 C67           25.4701    -7.3079   -11.4232 C.3     
  68 C68           25.5937    -8.7757   -11.0093 C.3     
  69 O69           24.9428    -5.9212    -9.5878 O.2     
  70 N70           23.1849    -6.7302   -10.6729 N.am    
  71 C71           26.4342    -9.5134   -12.0194 C.ar    
  72 C72           25.9976   -10.7205   -12.5323 C.ar    
  73 C73           26.7686   -11.3972   -13.4589 C.ar    
  74 C74           27.9761   -10.8666   -13.8728 C.ar    
  75 C75           28.4123    -9.6590   -13.3605 C.ar    
  76 C76           27.6392    -8.9802   -12.4372 C.ar    
  77 C77           26.2463    -8.8621    -9.6537 C.ar    
  78 C78           25.5178    -9.2973    -8.5624 C.ar    
  79 C79           26.1164    -9.3765    -7.3189 C.ar    
  80 C80           27.4436    -9.0210    -7.1668 C.ar    
  81 C81           28.1723    -8.5867    -8.2582 C.ar    
  82 C82           27.5749    -8.5116    -9.5026 C.ar    
  83 N83           26.7890    -6.6655   -11.3487 N.3     
  84 H84           -0.7097     2.9203    -6.0954 H       
  85 H85            0.1372     0.8937    -4.1710 H       
  86 H86            1.7261    -0.7013    -5.6524 H       
  87 H87            3.5844     1.1512    -6.9339 H       
  88 H88            5.4936     0.1943    -8.0317 H       
  89 H89            5.7440    -2.6271    -7.3451 H       
  90 H90            8.3754    -3.0940    -7.2718 H       
  91 H91            9.4171    -1.8434    -9.6963 H       
  92 H92           11.7763    -2.9428   -10.3950 H       
  93 H93           11.2749    -0.6633    -9.4652 H       
  94 H94           12.3102    -1.0432    -8.0680 H       
  95 H95           14.2321    -1.4090    -9.5916 H       
  96 H96           13.1968    -1.0292   -10.9887 H       
  97 H97           -0.3266     5.7786    -3.8318 H       
  98 H98           14.8143     2.1628   -10.1857 H       
  99 H99            8.2790    -4.9422    -8.9222 H       
 100 H100           6.6445    -4.3850    -8.4909 H       
 101 H101           7.3713    -3.8963   -10.0404 H       
 102 H102           5.0251    -1.0050   -10.1897 H       
 103 H103           3.7039    -1.8782    -9.3772 H       
 104 H104           2.6741     0.3467    -8.7932 H       
 105 H105           4.8070     1.4080   -10.7007 H       
 106 H106           3.5045     2.3566    -9.9445 H       
 107 H107           4.7963     1.6584    -8.9385 H       
 108 H108           1.9383    -0.9351   -10.7843 H       
 109 H109           1.8603     0.8171   -11.0878 H       
 110 H110           3.1995    -0.1437   -11.7598 H       
 111 H111           3.5400     1.1556    -4.0490 H       
 112 H112           2.1218     0.3084    -3.3861 H       
 113 H113           3.1307    -1.8690    -4.0105 H       
 114 H114           4.5488    -1.0218    -4.6734 H       
 115 H115           5.0166    -0.0556    -2.4382 H       
 116 H116           3.5985    -0.9028    -1.7752 H       
 117 H117           4.6073    -3.0802    -2.3996 H       
 118 H118           6.0254    -2.2330    -3.0625 H       
 119 H119           6.4053    -2.9719    -0.8046 H       
 120 H120           6.3755    -1.3095    -0.8419 H       
 121 H121          -1.8754     2.0017    -3.4297 H       
 122 H122          -2.6341     3.2004    -4.5048 H       
 123 H123          -2.7131     1.5182    -6.3248 H       
 124 H124          -1.9544     0.3195    -5.2497 H       
 125 H125          -3.8667     0.5141    -3.6832 H       
 126 H126          -4.6254     1.7128    -4.7583 H       
 127 H127          -4.7043     0.0306    -6.5783 H       
 128 H128          -3.9457    -1.1682    -5.5032 H       
 129 H129          -6.3422    -1.3808    -5.5226 H       
 130 H130          -5.8466    -0.8771    -4.0171 H       
 131 H131          15.5864    -4.0480    -8.0276 H       
 132 H132          13.8511    -5.8588    -7.8814 H       
 133 H133          14.4125    -6.4765    -9.4535 H       
 134 H134          12.9032    -3.8592    -7.8617 H       
 135 H135          15.2464    -6.0398    -5.9051 H       
 136 H136          17.0446    -7.2802    -4.7707 H       
 137 H137          18.3925    -8.7634    -8.5454 H       
 138 H138          16.5852    -7.5284    -9.6712 H       
 139 H139          18.5798    -9.6829    -5.6977 H       
 140 H140          18.4528    -5.8196   -11.1881 H       
 141 H141          19.5886    -3.7371   -12.0160 H       
 142 H142          17.8189    -3.5714   -11.9211 H       
 143 H143          16.0805    -4.5850   -10.8551 H       
 144 H144          18.9415    -1.7215   -10.9097 H       
 145 H145          22.6796    -5.0852    -9.4739 H       
 146 H146          21.6010    -7.8657    -8.8239 H       
 147 H147          23.7794    -6.1761    -7.5136 H       
 148 H148          23.1908    -7.7493    -6.9246 H       
 149 H149          24.0470    -7.6457    -8.4816 H       
 150 H150          20.0483    -4.9008    -8.9214 H       
 151 H151          21.4310    -5.3747    -7.3423 H       
 152 H152          25.0943    -7.2489   -12.4446 H       
 153 H153          24.6017    -9.2253   -10.9643 H       
 154 H154          22.8426    -7.2755   -11.3984 H       
 155 H155          25.0542   -11.1351   -12.2090 H       
 156 H156          26.4278   -12.3406   -13.8591 H       
 157 H157          28.5788   -11.3956   -14.5961 H       
 158 H158          29.3558    -9.2446   -13.6836 H       
 159 H159          27.9783    -8.0350   -12.0398 H       
 160 H160          24.4810    -9.5751    -8.6812 H       
 161 H161          25.5471    -9.7159    -6.4662 H       
 162 H162          27.9111    -9.0822    -6.1951 H       
 163 H163          29.2091    -8.3086    -8.1393 H       
 164 H164          28.1452    -8.1758   -10.3560 H       
 165 H165          26.7871    -5.7788   -11.8304 H       
 166 H166          27.0841    -6.5556   -10.3901 H       
@<TRIPOS>BOND
   1    1    2 1
   2    1   18 2
   3    1   19 1
   4    2    3 1
   5    2   36 1
   6    2   84 1
   7    3    4 am
   8    3   85 1
   9    4    5 1
  10    4   25 2
  11    5    6 1
  12    5   31 1
  13    5   86 1
  14    6    7 am
  15    6   87 1
  16    7    8 1
  17    7   24 2
  18    8    9 1
  19    8   27 1
  20    8   88 1
  21    9   10 am
  22    9   89 1
  23   10   11 1
  24   10   23 2
  25   11   12 1
  26   11   26 1
  27   11   90 1
  28   12   13 am
  29   12   91 1
  30   13   14 1
  31   13   22 2
  32   14   15 1
  33   14   45 1
  34   14   92 1
  35   15   16 1
  36   15   93 1
  37   15   94 1
  38   16   17 1
  39   16   95 1
  40   16   96 1
  41   17   20 2
  42   17   21 1
  43   19   97 1
  44   21   98 1
  45   26   99 1
  46   26  100 1
  47   26  101 1
  48   27   28 1
  49   27  102 1
  50   27  103 1
  51   28   29 1
  52   28   30 1
  53   28  104 1
  54   29  105 1
  55   29  106 1
  56   29  107 1
  57   30  108 1
  58   30  109 1
  59   30  110 1
  60   31   32 1
  61   31  111 1
  62   31  112 1
  63   32   33 1
  64   32  113 1
  65   32  114 1
  66   33   34 1
  67   33  115 1
  68   33  116 1
  69   34   35 1
  70   34  117 1
  71   34  118 1
  72   35  119 1
  73   35  120 1
  74   36   37 1
  75   36  121 1
  76   36  122 1
  77   37   38 1
  78   37  123 1
  79   37  124 1
  80   38   39 1
  81   38  125 1
  82   38  126 1
  83   39   40 1
  84   39  127 1
  85   39  128 1
  86   40  129 1
  87   40  130 1
  88   41   42 1
  89   41   44 2
  90   41   45 am
  91   42   43 1
  92   42   57 1
  93   42  131 1
  94   43   46 1
  95   43  132 1
  96   43  133 1
  97   45  134 1
  98   46   47 ar
  99   46   51 ar
 100   47   48 ar
 101   47  135 1
 102   48   49 ar
 103   48  136 1
 104   49   50 ar
 105   49   52 1
 106   50   51 ar
 107   50  137 1
 108   51  138 1
 109   52  139 1
 110   53   54 1
 111   53   56 2
 112   53   57 am
 113   54   55 1
 114   54   64 1
 115   54  140 1
 116   55   58 1
 117   55  141 1
 118   55  142 1
 119   57  143 1
 120   58  144 1
 121   59   63 2
 122   59   64 am
 123   59   60 1
 124   60   61 1
 125   60   70 1
 126   60  145 1
 127   61   62 1
 128   61   65 1
 129   61  146 1
 130   62  147 1
 131   62  148 1
 132   62  149 1
 133   64  150 1
 134   65  151 1
 135   66   67 1
 136   66   69 2
 137   66   70 am
 138   67   68 1
 139   67   83 1
 140   67  152 1
 141   68   71 1
 142   68   77 1
 143   68  153 1
 144   70  154 1
 145   71   72 ar
 146   71   76 ar
 147   72   73 ar
 148   72  155 1
 149   73   74 ar
 150   73  156 1
 151   74   75 ar
 152   74  157 1
 153   75   76 ar
 154   75  158 1
 155   76  159 1
 156   77   78 ar
 157   77   82 ar
 158   78   79 ar
 159   78  160 1
 160   79   80 ar
 161   79  161 1
 162   80   81 ar
 163   80  162 1
 164   81   82 ar
 165   81  163 1
 166   82  164 1
 167   83  165 1
 168   83  166 1

#	End of record

