#	Name: ASD10420141
#	Creating user name:	WinNT
#	Creation time:	15. 06. 2019 21:27

#	Modifying user name:	WinNT
#	Modification time:	15. 06. 2019 21:27

#	Program:	/corina/corina34_cracker 3.40 0067  02.08.2006

@<TRIPOS>MOLECULE
ASD10420141
  35   36    0    0    0
SMALL
NO_CHARGES


@<TRIPOS>ATOM
   1 C1            -0.0184     1.5028     0.0103 C.3     
   2 C2             0.0158    -2.8292    -2.5141 C.3     
   3 C3            -1.3709    -3.1186     2.9438 C.3     
   4 C4             0.0637    -2.8428     2.4892 C.3     
   5 C5            -1.3073    -5.2687     6.6343 C.ar    
   6 C6            -1.3251    -3.8865     6.6399 C.ar    
   7 C7            -1.3084    -5.9551     5.4344 C.ar    
   8 C8            -1.3458    -3.1907     5.4456 C.ar    
   9 C9            -1.3296    -5.2593     4.2402 C.ar    
  10 C10            0.0229    -0.7017     1.1942 C.ar    
  11 C11            0.0387    -2.7720    -0.0122 C.ar    
  12 C12            0.0021    -0.0041     0.0020 C.ar    
  13 C13            0.0179    -2.0790    -1.2071 C.ar    
  14 C14           -1.3483    -3.8771     4.2457 C.ar    
  15 C15            0.0411    -2.0842     1.1872 C.ar    
  16 C16           -0.0004    -0.6918    -1.2028 C.ar    
  17 O17           -0.0213    -0.0078    -2.3770 O.3     
  18 H18            1.0042     1.8801     0.0026 H       
  19 H19           -0.5455     1.8639    -0.8728 H       
  20 H20           -0.5286     1.8543     0.9071 H       
  21 H21           -1.0123    -3.0241    -2.8195 H       
  22 H22            0.5143    -2.2313    -3.2770 H       
  23 H23            0.5437    -3.7749    -2.3911 H       
  24 H24           -1.8960    -2.1736     3.0829 H       
  25 H25           -1.8843    -3.7114     2.1867 H       
  26 H26            0.5771    -2.2499     3.2462 H       
  27 H27            0.5888    -3.7878     2.3501 H       
  28 H28           -1.2866    -5.8122     7.5674 H       
  29 H29           -1.3246    -3.3502     7.5774 H       
  30 H30           -1.2942    -7.0350     5.4301 H       
  31 H31           -1.3604    -2.1108     5.4500 H       
  32 H32           -1.3312    -5.7956     3.3027 H       
  33 H33            0.0293    -0.1667     2.1323 H       
  34 H34            0.0527    -3.8519    -0.0150 H       
  35 H35            0.8559     0.2022    -2.7255 H       
@<TRIPOS>BOND
   1    1   12 1
   2    1   18 1
   3    1   19 1
   4    1   20 1
   5    2   13 1
   6    2   21 1
   7    2   22 1
   8    2   23 1
   9    3    4 1
  10    3   14 1
  11    3   24 1
  12    3   25 1
  13    4   15 1
  14    4   26 1
  15    4   27 1
  16    5    6 ar
  17    5    7 ar
  18    5   28 1
  19    6    8 ar
  20    6   29 1
  21    7    9 ar
  22    7   30 1
  23    8   14 ar
  24    8   31 1
  25    9   14 ar
  26    9   32 1
  27   10   12 ar
  28   10   15 ar
  29   10   33 1
  30   11   13 ar
  31   11   15 ar
  32   11   34 1
  33   12   16 ar
  34   13   16 ar
  35   16   17 1
  36   17   35 1

#	End of record

