#	Name: ASD13680026
#	Creating user name:	WinNT
#	Creation time:	15. 06. 2019 21:30

#	Modifying user name:	WinNT
#	Modification time:	15. 06. 2019 21:30

#	Program:	/corina/corina34_cracker 3.40 0067  02.08.2006

@<TRIPOS>MOLECULE
ASD13680026
  51   54    0    0    0
SMALL
NO_CHARGES


@<TRIPOS>ATOM
   1 C1            -0.0193     1.5123     0.0250 C.3     
   2 C2             0.0023    -0.0020     0.0103 C.2     
   3 C3             0.7554    -0.7679     0.8052 C.2     
   4 C4             1.7291    -0.2383     1.8439 C.3     
   5 C5             1.8869     2.2209     1.4608 C.3     
   6 C6             1.4085     2.0562     0.0211 C.3     
   7 C7             1.2751     1.1316     2.3387 C.3     
   8 C8             0.5452    -2.1873     0.5659 C.2     
   9 C9            -0.3624    -2.4431    -0.4222 C.2     
  10 S10           -0.9724    -0.9919    -1.0682 S.3     
  11 N11           -0.7351    -3.7099    -0.8410 N.am    
  12 C12            1.2400    -3.2402     1.3120 C.2     
  13 O13            0.7532    -3.6829     2.3359 O.2     
  14 N14            2.4180    -3.7181     0.8643 N.am    
  15 C15           -1.6422    -3.8540    -1.8273 C.2     
  16 C16           -2.0390    -5.2025    -2.2730 C.ar    
  17 C17           -2.9799    -5.3536    -3.2961 C.ar    
  18 C18           -3.3480    -6.6133    -3.7097 C.ar    
  19 C19           -2.7850    -7.7367    -3.1103 C.ar    
  20 C20           -1.8481    -7.5897    -2.0910 C.ar    
  21 C21           -1.4708    -6.3327    -1.6774 C.ar    
  22 O22           -2.1335    -2.8719    -2.3496 O.2     
  23 C23            3.1308    -4.6402     1.6275 C.ar    
  24 C24            4.2900    -5.2108     1.1130 C.ar    
  25 C25            4.9885    -6.1246     1.8817 C.ar    
  26 C26            4.5018    -6.4379     3.1438 C.ar    
  27 C27            3.3442    -5.8330     3.5912 C.ar    
  28 N28            2.7016    -4.9611     2.8378 N.ar    
  29 N29           -3.1595    -9.0083    -3.5302 N.pl3   
  30 H30           -0.5469     1.8751    -0.8571 H       
  31 H31           -0.5355     1.8579     0.9206 H       
  32 H32            1.7721    -0.9303     2.6849 H       
  33 H33            2.7203    -0.1514     1.3989 H       
  34 H34            2.9737     2.1437     1.4924 H       
  35 H35            1.5836     3.1993     1.8336 H       
  36 H36            2.0624     1.3588    -0.5024 H       
  37 H37            1.4285     3.0229    -0.4821 H       
  38 H38            0.1879     1.1935     2.2893 H       
  39 H39            1.5999     1.2711     3.3698 H       
  40 H40           -0.3432    -4.4933    -0.4243 H       
  41 H41            2.7694    -3.4201     0.0108 H       
  42 H42           -3.4176    -4.4826    -3.7611 H       
  43 H43           -4.0748    -6.7307    -4.4999 H       
  44 H44           -1.4134    -8.4631    -1.6278 H       
  45 H45           -0.7404    -6.2192    -0.8899 H       
  46 H46            4.6400    -4.9444     0.1266 H       
  47 H47            5.8917    -6.5843     1.5084 H       
  48 H48            5.0232    -7.1477     3.7689 H       
  49 H49            2.9619    -6.0736     4.5722 H       
  50 H50           -3.8123    -9.1119    -4.2401 H       
  51 H51           -2.7678    -9.7917    -3.1133 H       
@<TRIPOS>BOND
   1    1    2 1
   2    1    6 1
   3    1   30 1
   4    1   31 1
   5    2   10 1
   6    2    3 2
   7    3    4 1
   8    3    8 1
   9    4    7 1
  10    4   32 1
  11    4   33 1
  12    5    6 1
  13    5    7 1
  14    5   34 1
  15    5   35 1
  16    6   36 1
  17    6   37 1
  18    7   38 1
  19    7   39 1
  20    8    9 2
  21    8   12 1
  22    9   10 1
  23    9   11 1
  24   11   15 am
  25   11   40 1
  26   12   13 2
  27   12   14 am
  28   14   23 1
  29   14   41 1
  30   15   16 1
  31   15   22 2
  32   16   17 ar
  33   16   21 ar
  34   17   18 ar
  35   17   42 1
  36   18   19 ar
  37   18   43 1
  38   19   20 ar
  39   19   29 1
  40   20   21 ar
  41   20   44 1
  42   21   45 1
  43   23   24 ar
  44   23   28 ar
  45   24   25 ar
  46   24   46 1
  47   25   26 ar
  48   25   47 1
  49   26   27 ar
  50   26   48 1
  51   27   28 ar
  52   27   49 1
  53   29   50 1
  54   29   51 1

#	End of record

