#	Name: ASD13390015
#	Creating user name:	WinNT
#	Creation time:	15. 06. 2019 21:30

#	Modifying user name:	WinNT
#	Modification time:	15. 06. 2019 21:30

#	Program:	/corina/corina34_cracker 3.40 0067  02.08.2006

@<TRIPOS>MOLECULE
ASD13390015
  26   25    0    0    0
SMALL
NO_CHARGES


@<TRIPOS>ATOM
   1 C1            -0.0167     1.3802     0.0096 C.ar    
   2 C2             0.0021    -0.0041     0.0020 C.ar    
   3 C3             1.2233    -0.6839    -0.0133 C.ar    
   4 C4             2.4197     0.0389    -0.0208 C.ar    
   5 C5             2.3895     1.4229    -0.0131 C.ar    
   6 C6             1.1742     2.0928     0.0021 C.ar    
   7 C7             1.2494    -2.1556    -0.0209 C.2     
   8 N8             2.3908    -2.7878    -0.0352 N.2     
   9 N9             2.4136    -4.0776    -0.0419 N.2     
  10 C10            3.5666    -4.7163    -0.0563 C.2     
  11 N11            4.7418    -4.0097    -0.0642 N.pl3   
  12 N12            3.5908    -6.0874    -0.0635 N.pl3   
  13 O13            3.5520     2.1268    -0.0204 O.3     
  14 O14           -1.2034     2.0424     0.0188 O.3     
  15 H15           -0.9252    -0.5577     0.0082 H       
  16 H16            3.3660    -0.4815    -0.0322 H       
  17 H17            1.1550     3.1727     0.0081 H       
  18 H18            0.3238    -2.7121    -0.0147 H       
  19 H19            4.7246    -3.0398    -0.0592 H       
  20 H20            5.5902    -4.4797    -0.0748 H       
  21 H21            2.7596    -6.5872    -0.0579 H       
  22 H22            4.4393    -6.5574    -0.0741 H       
  23 H23            3.8800     2.3353    -0.9058 H       
  24 H24           -1.5427     2.2292     0.9049 H       
  25 Cl25          10.5902     8.1727     5.9049 Cl      
  26 H26           10.5902     9.5427     5.9049 H       
@<TRIPOS>BOND
   1    1    2 ar
   2    1    6 ar
   3    1   14 1
   4    2    3 ar
   5    2   15 1
   6    3    4 ar
   7    3    7 1
   8    4    5 ar
   9    4   16 1
  10    5    6 ar
  11    5   13 1
  12    6   17 1
  13    7    8 2
  14    7   18 1
  15    8    9 1
  16    9   10 2
  17   10   11 1
  18   10   12 1
  19   11   19 1
  20   11   20 1
  21   12   21 1
  22   12   22 1
  23   13   23 1
  24   14   24 1
  25   25   26 1

#	End of record

