#	Name: ASD11000310
#	Creating user name:	WinNT
#	Creation time:	15. 06. 2019 21:29

#	Modifying user name:	WinNT
#	Modification time:	15. 06. 2019 21:29

#	Program:	/corina/corina34_cracker 3.40 0067  02.08.2006

@<TRIPOS>MOLECULE
ASD11000310
  45   48    0    0    0
SMALL
NO_CHARGES


@<TRIPOS>ATOM
   1 C1            -0.0162     1.3202     0.0176 C.ar    
   2 N2             0.0010    -0.0048     0.0229 N.ar    
   3 C3             1.1466    -0.6660     0.0167 C.ar    
   4 C4             2.3370     0.0439     0.0044 C.ar    
   5 C5             2.2826     1.4290    -0.0008 C.ar    
   6 N6             1.1036     2.0284     0.0059 N.ar    
   7 N7            -1.2337     1.9804     0.0186 N.pl3   
   8 C8            -1.2735     3.3756     0.1321 C.ar    
   9 C9            -2.2519     4.0993    -0.5371 C.ar    
  10 C10           -2.2906     5.4758    -0.4241 C.ar    
  11 C11           -1.3517     6.1348     0.3581 C.ar    
  12 C12           -0.3748     5.4122     1.0257 C.ar    
  13 C13           -0.3385     4.0354     0.9181 C.ar    
  14 O14           -1.3901     7.4898     0.4692 O.3     
  15 C15           -0.3936     8.1019     1.2903 C.3     
  16 F16           -0.5023     7.6144     2.5971 F       
  17 F17            0.8760     7.8019     0.7848 F       
  18 Cl18          -3.5129     6.3814    -1.2606 Cl      
  19 C19            3.6618    -0.6745    -0.0025 C.3     
  20 C20            4.0991    -0.9240    -1.4473 C.3     
  21 N21            8.9074    -3.8333    -1.4714 N.pl3   
  22 N22            8.3776    -5.1278    -1.4606 N.2     
  23 C23            7.0762    -5.0784    -1.4504 C.2     
  24 C24            6.6834    -3.6729    -1.4544 C.ar    
  25 C25            5.4527    -3.0068    -1.4484 C.ar    
  26 C26            5.4238    -1.6425    -1.4542 C.ar    
  27 C27            6.6042    -0.9093    -1.4670 C.ar    
  28 C28            7.8175    -1.5367    -1.4739 C.ar    
  29 C29            7.8785    -2.9282    -1.4678 C.ar    
  30 H30            1.1542    -1.7460     0.0214 H       
  31 H31            3.1919     2.0116    -0.0100 H       
  32 H32           -2.0588     1.4764    -0.0593 H       
  33 H33           -2.9819     3.5865    -1.1457 H       
  34 H34            0.3557     5.9255     1.6334 H       
  35 H35            0.4200     3.4726     1.4419 H       
  36 H36           -0.5379     9.1823     1.2924 H       
  37 H37            4.4093    -0.0631     0.5029 H       
  38 H38            3.5608    -1.6278     0.5163 H       
  39 H39            3.3515    -1.5354    -1.9527 H       
  40 H40            4.2000     0.0292    -1.9661 H       
  41 H41            9.8518    -3.6118    -1.4765 H       
  42 H42            6.4071    -5.9261    -1.4413 H       
  43 H43            4.5308    -3.5694    -1.4397 H       
  44 H44            6.5618     0.1699    -1.4718 H       
  45 H45            8.7275    -0.9551    -1.4845 H       
@<TRIPOS>BOND
   1    1    2 ar
   2    1    6 ar
   3    1    7 1
   4    2    3 ar
   5    3    4 ar
   6    3   30 1
   7    4    5 ar
   8    4   19 1
   9    5    6 ar
  10    5   31 1
  11    7    8 1
  12    7   32 1
  13    8    9 ar
  14    8   13 ar
  15    9   10 ar
  16    9   33 1
  17   10   11 ar
  18   10   18 1
  19   11   12 ar
  20   11   14 1
  21   12   13 ar
  22   12   34 1
  23   13   35 1
  24   14   15 1
  25   15   16 1
  26   15   17 1
  27   15   36 1
  28   19   20 1
  29   19   37 1
  30   19   38 1
  31   20   26 1
  32   20   39 1
  33   20   40 1
  34   21   22 1
  35   21   29 1
  36   21   41 1
  37   22   23 2
  38   23   24 1
  39   23   42 1
  40   24   25 ar
  41   24   29 ar
  42   25   26 ar
  43   25   43 1
  44   26   27 ar
  45   27   28 ar
  46   27   44 1
  47   28   29 ar
  48   28   45 1

#	End of record

