#	Name: ASD12630001
#	Creating user name:	WinNT
#	Creation time:	15. 06. 2019 21:30

#	Modifying user name:	WinNT
#	Modification time:	15. 06. 2019 21:30

#	Program:	/corina/corina34_cracker 3.40 0067  02.08.2006

@<TRIPOS>MOLECULE
ASD12630001
  35   36    0    0    0
SMALL
NO_CHARGES


@<TRIPOS>ATOM
   1 C1            -0.0244     1.3524     0.1028 C.2     
   2 N2             0.0109     0.0035    -0.0923 N.am    
   3 N3             1.3485    -0.3849     0.0870 N.2     
   4 C4             2.0282     0.6995     0.3696 C.2     
   5 N5             1.1985     1.7499     0.3792 N.2     
   6 C6            -1.0298    -0.7971    -0.3966 C.2     
   7 N7            -0.8364    -2.1209    -0.5599 N.am    
   8 O8            -2.1425    -0.3253    -0.5236 O.2     
   9 C9            -1.9676    -2.9911    -0.8906 C.3     
  10 C10           -2.1899    -2.9855    -2.4044 C.3     
  11 C11           -1.6674    -4.4171    -0.4245 C.3     
  12 N12           -1.1426     2.1579     0.0194 N.pl3   
  13 C13           -1.0146     3.5459     0.1319 C.ar    
  14 C14            0.2775     5.5436    -0.1702 C.ar    
  15 C15            0.1539     4.1726    -0.2820 C.ar    
  16 C16           -2.0578     4.3010     0.6523 C.ar    
  17 C17           -1.9288     5.6716     0.7618 C.ar    
  18 C18           -0.7617     6.2929     0.3531 C.ar    
  19 Cl19          -0.6027     8.0159     0.4927 Cl      
  20 N20            3.3977     0.7509     0.6202 N.pl3   
  21 H21            0.0517    -2.4974    -0.4586 H       
  22 H22           -2.8648    -2.6266    -0.3903 H       
  23 H23           -3.0316    -3.6329    -2.6504 H       
  24 H24           -2.4038    -1.9695    -2.7365 H       
  25 H25           -1.2927    -3.3500    -2.9047 H       
  26 H26           -1.5091    -4.4210     0.6539 H       
  27 H27           -2.5091    -5.0645    -0.6705 H       
  28 H28           -0.7702    -4.7816    -0.9248 H       
  29 H29           -2.0171     1.7610    -0.1172 H       
  30 H30            1.1859     6.0313    -0.4915 H       
  31 H31            0.9651     3.5883    -0.6904 H       
  32 H32           -2.9691     3.8167     0.9707 H       
  33 H33           -2.7396     6.2592     1.1663 H       
  34 H34            3.9267    -0.0617     0.5924 H       
  35 H35            3.8222     1.5993     0.8226 H       
@<TRIPOS>BOND
   1    1    2 1
   2    1    5 2
   3    1   12 1
   4    2    3 1
   5    2    6 am
   6    3    4 2
   7    4    5 1
   8    4   20 1
   9    6    7 am
  10    6    8 2
  11    7    9 1
  12    7   21 1
  13    9   10 1
  14    9   11 1
  15    9   22 1
  16   10   23 1
  17   10   24 1
  18   10   25 1
  19   11   26 1
  20   11   27 1
  21   11   28 1
  22   12   13 1
  23   12   29 1
  24   13   16 ar
  25   13   15 ar
  26   14   15 ar
  27   14   18 ar
  28   14   30 1
  29   15   31 1
  30   16   17 ar
  31   16   32 1
  32   17   18 ar
  33   17   33 1
  34   18   19 1
  35   20   34 1
  36   20   35 1

#	End of record

