#	Name: ASD10420075
#	Creating user name:	WinNT
#	Creation time:	15. 06. 2019 21:27

#	Modifying user name:	WinNT
#	Modification time:	15. 06. 2019 21:27

#	Program:	/corina/corina34_cracker 3.40 0067  02.08.2006

@<TRIPOS>MOLECULE
ASD10420075
  83   87    0    0    0
SMALL
NO_CHARGES


@<TRIPOS>ATOM
   1 N1             1.7608     0.5429    -4.5549 N.am    
   2 C2             1.1832     0.6547    -3.2081 C.3     
   3 C3             1.8986    -0.3385    -2.2840 C.3     
   4 N4             3.3495    -0.1716    -2.4485 N.am    
   5 C5             3.9271    -0.2834    -3.7952 C.3     
   6 C6             3.2117     0.7098    -4.7194 C.3     
   7 C7             0.9749     0.2864    -5.6192 C.2     
   8 O8            -0.2228     0.1453    -5.4702 O.2     
   9 O9             1.5167     0.1865    -6.8477 O.3     
  10 C10            4.1361     0.0799    -1.3834 C.2     
  11 O11            3.6375     0.2615    -0.2879 O.2     
  12 C12            7.6419     0.9033    -1.9426 C.2     
  13 C13            8.5954     1.8710    -2.2795 C.2     
  14 C14            8.1711     3.1639    -2.5579 C.2     
  15 C15            6.7946     3.4725    -2.4954 C.2     
  16 N16            5.9195     2.5592    -2.1795 N.2     
  17 N17            6.3144     1.2457    -1.8934 N.pl3   
  18 C18            7.7536    -0.4590    -1.6095 C.2     
  19 C19            6.4637    -0.9280    -1.3658 C.2     
  20 C20            5.5906     0.1347    -1.5441 C.2     
  21 C21            9.0055    -1.2463    -1.5322 C.ar    
  22 C22            9.9680    -0.9390    -0.5704 C.ar    
  23 C23           11.1323    -1.6762    -0.5035 C.ar    
  24 C24           11.3465    -2.7181    -1.3882 C.ar    
  25 C25           10.3960    -3.0276    -2.3447 C.ar    
  26 C26            9.2246    -2.3020    -2.4173 C.ar    
  27 C27            9.1520     4.2079    -2.9160 C.2     
  28 N28            9.7136     4.2130    -4.1411 N.am    
  29 O29            9.4529     5.0629    -2.1057 O.2     
  30 C30           10.7666     5.1803    -4.4602 C.3     
  31 O31            9.2860     3.2834    -5.1199 O.3     
  32 C32            8.1487     3.7124    -5.8713 C.3     
  33 C33            6.0868    -2.3338    -0.9750 C.3     
  34 C34            5.9934    -2.4299     0.5260 C.ar    
  35 C35            4.7593    -2.5625     1.1343 C.ar    
  36 C36            4.6739    -2.6513     2.5132 C.ar    
  37 C37            5.8252    -2.6072     3.2815 C.ar    
  38 C38            7.0577    -2.4746     2.6711 C.ar    
  39 C39            7.1422    -2.3913     1.2936 C.ar    
  40 C40            3.5073    -2.6099     0.2969 C.3     
  41 F41            3.4682    -2.7805     3.1089 F       
  42 C42            0.6102    -0.0914    -7.9474 C.3     
  43 C43           -0.4294     1.0269    -8.0464 C.3     
  44 C44            1.4022    -0.1685    -9.2542 C.3     
  45 C45           -0.0975    -1.4252    -7.7004 C.3     
  46 H46            1.3225     1.6688    -2.8333 H       
  47 H47            0.1197     0.4188    -3.2455 H       
  48 H48            1.6225    -0.1389    -1.2486 H       
  49 H49            1.6149    -1.3564    -2.5512 H       
  50 H50            4.9906    -0.0474    -3.7579 H       
  51 H51            3.7878    -1.2974    -4.1700 H       
  52 H52            3.4878     0.5103    -5.7547 H       
  53 H53            3.4955     1.7278    -4.4521 H       
  54 H54            9.6441     1.6165    -2.3219 H       
  55 H55            6.4628     4.4774    -2.7112 H       
  56 H56            9.8022    -0.1254     0.1203 H       
  57 H57           11.8782    -1.4392     0.2407 H       
  58 H58           12.2597    -3.2920    -1.3321 H       
  59 H59           10.5693    -3.8416    -3.0329 H       
  60 H60            8.4811    -2.5478    -3.1611 H       
  61 H61           11.7390     4.7526    -4.2160 H       
  62 H62           10.7311     5.4186    -5.5232 H       
  63 H63           10.6132     6.0894    -3.8787 H       
  64 H64            7.3089     3.8781    -5.1965 H       
  65 H65            8.3857     4.6406    -6.3912 H       
  66 H66            7.8839     2.9456    -6.5993 H       
  67 H67            5.1228    -2.5874    -1.4160 H       
  68 H68            6.8457    -3.0274    -1.3370 H       
  69 H69            5.7597    -2.6760     4.3573 H       
  70 H70            7.9557    -2.4401     3.2701 H       
  71 H71            8.1064    -2.2922     0.8171 H       
  72 H72            3.3362    -3.6312    -0.0434 H       
  73 H73            2.6579    -2.2788     0.8943 H       
  74 H74            3.6224    -1.9540    -0.5661 H       
  75 H75            0.0748     1.9771    -8.2223 H       
  76 H76           -1.1099     0.8183    -8.8719 H       
  77 H77           -0.9936     1.0818    -7.1154 H       
  78 H78            2.1428    -0.9652    -9.1837 H       
  79 H79            0.7217    -0.3771   -10.0797 H       
  80 H80            1.9064     0.7817    -9.4301 H       
  81 H81           -0.6617    -1.3702    -6.7695 H       
  82 H82           -0.7780    -1.6338    -8.5260 H       
  83 H83            0.6431    -2.2218    -7.6300 H       
@<TRIPOS>BOND
   1    1    2 1
   2    1    6 1
   3    1    7 am
   4    2    3 1
   5    2   46 1
   6    2   47 1
   7    3    4 1
   8    3   48 1
   9    3   49 1
  10    4    5 1
  11    4   10 am
  12    5    6 1
  13    5   50 1
  14    5   51 1
  15    6   52 1
  16    6   53 1
  17    7    8 2
  18    7    9 1
  19    9   42 1
  20   10   11 2
  21   10   20 1
  22   12   13 1
  23   12   17 1
  24   12   18 2
  25   13   14 2
  26   13   54 1
  27   14   15 1
  28   14   27 1
  29   15   16 2
  30   15   55 1
  31   16   17 1
  32   17   20 1
  33   18   19 1
  34   18   21 1
  35   19   20 2
  36   19   33 1
  37   21   22 ar
  38   21   26 ar
  39   22   23 ar
  40   22   56 1
  41   23   24 ar
  42   23   57 1
  43   24   25 ar
  44   24   58 1
  45   25   26 ar
  46   25   59 1
  47   26   60 1
  48   27   28 am
  49   27   29 2
  50   28   30 1
  51   28   31 1
  52   30   61 1
  53   30   62 1
  54   30   63 1
  55   31   32 1
  56   32   64 1
  57   32   65 1
  58   32   66 1
  59   33   34 1
  60   33   67 1
  61   33   68 1
  62   34   35 ar
  63   34   39 ar
  64   35   36 ar
  65   35   40 1
  66   36   37 ar
  67   36   41 1
  68   37   38 ar
  69   37   69 1
  70   38   39 ar
  71   38   70 1
  72   39   71 1
  73   40   72 1
  74   40   73 1
  75   40   74 1
  76   42   43 1
  77   42   45 1
  78   42   44 1
  79   43   75 1
  80   43   76 1
  81   43   77 1
  82   44   78 1
  83   44   79 1
  84   44   80 1
  85   45   81 1
  86   45   82 1
  87   45   83 1

#	End of record

