#	Name: ASD10420128
#	Creating user name:	WinNT
#	Creation time:	15. 06. 2019 21:27

#	Modifying user name:	WinNT
#	Modification time:	15. 06. 2019 21:27

#	Program:	/corina/corina34_cracker 3.40 0067  02.08.2006

@<TRIPOS>MOLECULE
ASD10420128
  70   73    0    0    0
SMALL
NO_CHARGES


@<TRIPOS>ATOM
   1 C1            -3.1189     0.4387     4.8293 C.2     
   2 C2            -2.9017    -0.9975     4.5702 C.ar    
   3 C3            -1.6270    -1.4627     4.2341 C.ar    
   4 C4            -1.4255    -2.8026     3.9932 C.ar    
   5 C5            -2.4932    -3.6967     4.0839 C.ar    
   6 C6            -3.7664    -3.2334     4.4189 C.ar    
   7 C7            -3.9691    -1.8950     4.6664 C.ar    
   8 C8            -2.2750    -5.1392     3.8237 C.ar    
   9 C9            -3.3406    -6.0346     3.9137 C.ar    
  10 C10           -3.1344    -7.3758     3.6707 C.ar    
  11 C11           -1.8673    -7.8357     3.3364 C.ar    
  12 C12           -0.8042    -6.9467     3.2459 C.ar    
  13 C13           -1.0048    -5.6035     3.4826 C.ar    
  14 O14           -2.1898     1.2175     4.7505 O.2     
  15 O15           -4.3489     0.8873     5.1478 O.3     
  16 O16           -1.6673    -9.1579     3.0979 O.3     
  17 C17           -0.3392    -9.5624     2.7591 C.3     
  18 C18           -0.3099   -11.0745     2.5282 C.3     
  19 C19            1.1120   -11.5076     2.1655 C.3     
  20 C20            1.1413   -13.0198     1.9346 C.3     
  21 C21            2.5631   -13.4529     1.5718 C.3     
  22 C22            2.5924   -14.9651     1.3409 C.3     
  23 O23            3.9205   -15.3695     1.0021 O.3     
  24 C24            4.1207   -16.6932     0.7634 C.ar    
  25 C25            5.3859   -17.1537     0.4294 C.ar    
  26 C26            5.5901   -18.4977     0.1868 C.ar    
  27 C27            4.5284   -19.3885     0.2772 C.ar    
  28 C28            3.2621   -18.9265     0.6116 C.ar    
  29 C29            3.0609   -17.5830     0.8594 C.ar    
  30 N30            4.7344   -20.7507     0.0310 N.pl3   
  31 C31            3.6595   -21.6296     0.0480 C.ar    
  32 C32            2.8029   -21.7188    -1.0613 C.ar    
  33 C33            3.0393   -20.8813    -2.2496 C.2     
  34 O34            4.0338   -20.1859    -2.3148 O.2     
  35 O35            2.1528   -20.8862    -3.2646 O.3     
  36 C36            1.7246   -22.6079    -1.0304 C.ar    
  37 C37            1.5095   -23.3885     0.0837 C.ar    
  38 C38            2.3568   -23.2977     1.1773 C.ar    
  39 C39            3.4289   -22.4300     1.1605 C.ar    
  40 H40           -0.8007    -0.7709     4.1632 H       
  41 H41           -0.4409    -3.1622     3.7335 H       
  42 H42           -4.5920    -3.9263     4.4881 H       
  43 H43           -4.9535    -1.5374     4.9300 H       
  44 H44           -4.3261    -5.6777     4.1740 H       
  45 H45           -3.9590    -8.0697     3.7406 H       
  46 H46            0.1801    -7.3075     2.9861 H       
  47 H47           -0.1786    -4.9120     3.4077 H       
  48 H48           -4.4421     1.8362     5.3087 H       
  49 H49           -0.0241    -9.0499     1.8502 H       
  50 H50            0.3377    -9.3061     3.5741 H       
  51 H51           -0.6251   -11.5871     3.4371 H       
  52 H52           -0.9869   -11.3308     1.7132 H       
  53 H53            1.4271   -10.9951     1.2566 H       
  54 H54            1.7889   -11.2513     2.9804 H       
  55 H55            0.8261   -13.5323     2.8435 H       
  56 H56            0.4643   -13.2761     1.1196 H       
  57 H57            2.8783   -12.9404     0.6629 H       
  58 H58            3.2401   -13.1966     2.3868 H       
  59 H59            2.2773   -15.4776     2.2498 H       
  60 H60            1.9155   -15.2214     0.5259 H       
  61 H61            6.2113   -16.4608     0.3588 H       
  62 H62            6.5752   -18.8560    -0.0735 H       
  63 H63            2.4358   -19.6184     0.6818 H       
  64 H64            2.0772   -17.2243     1.1241 H       
  65 H65            5.6281   -21.0809    -0.1514 H       
  66 H66            2.3509   -20.3203    -4.0233 H       
  67 H67            1.0609   -22.6824    -1.8791 H       
  68 H68            0.6759   -24.0749     0.1057 H       
  69 H69            2.1788   -23.9138     2.0463 H       
  70 H70            4.0871   -22.3692     2.0146 H       
@<TRIPOS>BOND
   1    1    2 1
   2    1   14 2
   3    1   15 1
   4    2    3 ar
   5    2    7 ar
   6    3    4 ar
   7    3   40 1
   8    4    5 ar
   9    4   41 1
  10    5    6 ar
  11    5    8 1
  12    6    7 ar
  13    6   42 1
  14    7   43 1
  15    8    9 ar
  16    8   13 ar
  17    9   10 ar
  18    9   44 1
  19   10   11 ar
  20   10   45 1
  21   11   12 ar
  22   11   16 1
  23   12   13 ar
  24   12   46 1
  25   13   47 1
  26   15   48 1
  27   16   17 1
  28   17   18 1
  29   17   49 1
  30   17   50 1
  31   18   19 1
  32   18   51 1
  33   18   52 1
  34   19   20 1
  35   19   53 1
  36   19   54 1
  37   20   21 1
  38   20   55 1
  39   20   56 1
  40   21   22 1
  41   21   57 1
  42   21   58 1
  43   22   23 1
  44   22   59 1
  45   22   60 1
  46   23   24 1
  47   24   25 ar
  48   24   29 ar
  49   25   26 ar
  50   25   61 1
  51   26   27 ar
  52   26   62 1
  53   27   28 ar
  54   27   30 1
  55   28   29 ar
  56   28   63 1
  57   29   64 1
  58   30   31 1
  59   30   65 1
  60   31   32 ar
  61   31   39 ar
  62   32   33 1
  63   32   36 ar
  64   33   34 2
  65   33   35 1
  66   35   66 1
  67   36   37 ar
  68   36   67 1
  69   37   38 ar
  70   37   68 1
  71   38   39 ar
  72   38   69 1
  73   39   70 1

#	End of record

