#	Name: ASD10610081
#	Creating user name:	WinNT
#	Creation time:	15. 06. 2019 21:27

#	Modifying user name:	WinNT
#	Modification time:	15. 06. 2019 21:27

#	Program:	/corina/corina34_cracker 3.40 0067  02.08.2006

@<TRIPOS>MOLECULE
ASD10610081
  56   61    0    0    0
SMALL
NO_CHARGES


@<TRIPOS>ATOM
   1 O1            -0.8261     1.7209    -1.3133 O.3     
   2 N2            -1.4407     0.8616    -1.9009 N.2     
   3 C3            -2.0497     1.3301    -2.9511 C.2     
   4 C4            -1.7520     2.7099    -3.0080 C.2     
   5 C5            -0.9508     2.9172    -1.9184 C.2     
   6 C6            -0.3465     4.1936    -1.4922 C.2     
   7 O7            -0.5443     5.2051    -2.1372 O.2     
   8 N8             0.4248     4.2385    -0.3879 N.am    
   9 C9             1.1154     5.4790    -0.0267 C.3     
  10 C10            0.2544     6.7160     0.2364 C.3     
  11 C11            0.9367     5.9969     1.4018 C.3     
  12 C12            2.4561     5.6908    -0.6815 C.2     
  13 N13            3.2719     4.6409    -0.9018 N.am    
  14 O14            2.8009     6.8062    -1.0103 O.2     
  15 C15            6.4072     3.2788    -1.9920 C.ar    
  16 C16            5.5076     3.7082    -1.0226 C.ar    
  17 C17            4.6209     4.8595    -1.4296 C.3     
  18 C18            4.5539     4.9744    -2.9650 C.3     
  19 S19            6.1795     4.2753    -3.4425 S.3     
  20 C20            5.5087     3.0508     0.2100 C.ar    
  21 C21            6.3735     2.0127     0.4639 C.ar    
  22 C22            7.2751     1.5906    -0.5125 C.ar    
  23 C23            7.2820     2.2321    -1.7482 C.ar    
  24 C24            8.2102     0.4728    -0.2399 C.ar    
  25 C25            8.9890     0.4736     0.9278 C.ar    
  26 C26            9.8646    -0.5827     1.1731 C.ar    
  27 C27            9.9619    -1.6235     0.2677 C.ar    
  28 C28            9.1929    -1.6228    -0.8839 C.ar    
  29 C29            8.3160    -0.5851    -1.1379 C.ar    
  30 N30            9.5473     1.7234     3.0256 N.2     
  31 N31            9.1737     2.8263     3.5777 N.pl3   
  32 N32            8.2925     3.3982     2.8338 N.2     
  33 N33            8.0874     2.6682     1.7903 N.2     
  34 C34            8.8811     1.5924     1.8951 C.2     
  35 C35            9.6730     3.3472     4.8527 C.3     
  36 F36           10.6181    -0.5896     2.2944 F       
  37 Cl37           9.3257    -2.9362    -2.0113 Cl      
  38 H38           -2.6625     0.7729    -3.6442 H       
  39 H39           -2.0799     3.4324    -3.7407 H       
  40 H40            0.5227     3.4494     0.1678 H       
  41 H41            0.6578     7.6831    -0.0637 H       
  42 H42           -0.8259     6.6069     0.1408 H       
  43 H43            0.3053     5.4146     2.0729 H       
  44 H44            1.7890     6.4909     1.8684 H       
  45 H45            2.9659     3.7405    -0.7108 H       
  46 H46            5.0223     5.7856    -1.0180 H       
  47 H47            3.7362     4.3767    -3.3678 H       
  48 H48            4.4674     6.0152    -3.2771 H       
  49 H49            4.8172     3.3643     0.9782 H       
  50 H50            6.3548     1.5214     1.4255 H       
  51 H51            7.9738     1.9173    -2.5156 H       
  52 H52           10.6413    -2.4408     0.4596 H       
  53 H53            7.7157    -0.5933    -2.0356 H       
  54 H54           10.5432     3.9781     4.6717 H       
  55 H55            8.8923     3.9348     5.3359 H       
  56 H56            9.9549     2.5162     5.4993 H       
@<TRIPOS>BOND
   1    1    2 1
   2    1    5 1
   3    2    3 2
   4    3    4 1
   5    3   38 1
   6    4    5 2
   7    4   39 1
   8    5    6 1
   9    6    7 2
  10    6    8 am
  11    8    9 1
  12    8   40 1
  13    9   10 1
  14    9   11 1
  15    9   12 1
  16   10   11 1
  17   10   41 1
  18   10   42 1
  19   11   43 1
  20   11   44 1
  21   12   13 am
  22   12   14 2
  23   13   17 1
  24   13   45 1
  25   15   16 ar
  26   15   19 1
  27   15   23 ar
  28   16   17 1
  29   16   20 ar
  30   17   18 1
  31   17   46 1
  32   18   19 1
  33   18   47 1
  34   18   48 1
  35   20   21 ar
  36   20   49 1
  37   21   22 ar
  38   21   50 1
  39   22   23 ar
  40   22   24 1
  41   23   51 1
  42   24   25 ar
  43   24   29 ar
  44   25   26 ar
  45   25   34 1
  46   26   27 ar
  47   26   36 1
  48   27   28 ar
  49   27   52 1
  50   28   29 ar
  51   28   37 1
  52   29   53 1
  53   30   31 1
  54   30   34 2
  55   31   32 1
  56   31   35 1
  57   32   33 2
  58   33   34 1
  59   35   54 1
  60   35   55 1
  61   35   56 1

#	End of record

