#	Name: ASD11030006
#	Creating user name:	WinNT
#	Creation time:	15. 06. 2019 21:29

#	Modifying user name:	WinNT
#	Modification time:	15. 06. 2019 21:29

#	Program:	/corina/corina34_cracker 3.40 0067  02.08.2006

@<TRIPOS>MOLECULE
ASD11030006
  24   25    0    0    0
SMALL
NO_CHARGES


@<TRIPOS>ATOM
   1 Cl1            0.0021    -0.0041     0.0020 Cl      
   2 C2            -0.0224     1.7987     0.0119 C.3     
   3 C3             1.3914     2.3204     0.0012 C.2     
   4 O4             2.3238     1.5449    -0.0118 O.2     
   5 N5             1.6197     3.6486     0.0062 N.am    
   6 C6             2.9233     4.1296    -0.0037 C.2     
   7 N7             4.0077     3.4073    -0.0184 N.2     
   8 N8             5.1145     4.0115    -0.0263 N.2     
   9 C9             5.0934     5.3147    -0.0193 C.2     
  10 S10            3.4048     5.8274    -0.0063 S.3     
  11 C11            6.2737     6.2049    -0.0257 C.ar    
  12 C12            7.5598     5.6629    -0.0412 C.ar    
  13 C13            8.6572     6.4985    -0.0476 C.ar    
  14 C14            8.4849     7.8725    -0.0383 C.ar    
  15 C15            7.2113     8.4160    -0.0229 C.ar    
  16 C16            6.1062     7.5905    -0.0222 C.ar    
  17 Cl17           9.8709     8.9178    -0.0453 Cl      
  18 H18           -0.5496     2.1598    -0.8711 H       
  19 H19           -0.5326     2.1503     0.9087 H       
  20 H20            0.8740     4.2689     0.0166 H       
  21 H21            7.6955     4.5915    -0.0478 H       
  22 H22            9.6529     6.0804    -0.0596 H       
  23 H23            7.0830     9.4883    -0.0157 H       
  24 H24            5.1134     8.0155    -0.0102 H       
@<TRIPOS>BOND
   1    1    2 1
   2    2    3 1
   3    2   18 1
   4    2   19 1
   5    3    4 2
   6    3    5 am
   7    5    6 1
   8    5   20 1
   9    6    7 2
  10    6   10 1
  11    7    8 1
  12    8    9 2
  13    9   10 1
  14    9   11 1
  15   11   12 ar
  16   11   16 ar
  17   12   13 ar
  18   12   21 1
  19   13   14 ar
  20   13   22 1
  21   14   15 ar
  22   14   17 1
  23   15   16 ar
  24   15   23 1
  25   16   24 1

#	End of record

