#	Name: ASD10800033
#	Creating user name:	WinNT
#	Creation time:	15. 06. 2019 21:28

#	Modifying user name:	WinNT
#	Modification time:	15. 06. 2019 21:28

#	Program:	/corina/corina34_cracker 3.40 0067  02.08.2006

@<TRIPOS>MOLECULE
ASD10800033
  52   55    0    0    0
SMALL
NO_CHARGES


@<TRIPOS>ATOM
   1 C1             0.0220     1.2339     0.2015 C.ar    
   2 C2             0.1046    -0.1301     0.4245 C.ar    
   3 C3             1.3364    -0.7511     0.4994 C.ar    
   4 C4             2.4940    -0.0099     0.3513 C.ar    
   5 C5             2.4178     1.3503     0.1304 C.ar    
   6 C6             1.1793     1.9792     0.0564 C.ar    
   7 C7             3.6806     2.1569    -0.0305 C.3     
   8 C8             4.0829     2.7496     1.3215 C.3     
   9 N9             4.7543     1.2903    -0.5227 N.pl3   
  10 C10            5.2738     3.6549     1.1387 C.ar    
  11 C11            5.0863     4.9972     0.8667 C.ar    
  12 C12            6.5536     3.1440     1.2486 C.ar    
  13 C13            7.6460     3.9744     1.0810 C.ar    
  14 C14            7.4585     5.3155     0.8030 C.ar    
  15 C15            6.1787     5.8275     0.6991 C.ar    
  16 C16            9.0411     3.4177     1.2018 C.3     
  17 C17            5.9744     7.2895     0.3960 C.3     
  18 C18            4.9044     1.0810    -1.8741 C.2     
  19 N19            5.8605     0.4154    -2.4151 N.2     
  20 S20            3.8059     1.6821    -3.1216 S.3     
  21 C21            4.7250     0.9747    -4.5269 C.3     
  22 C22            5.9093     0.2649    -3.8523 C.3     
  23 O23            1.1450     3.3211    -0.1523 O.3     
  24 C24           -0.0851     3.8965    -0.5945 C.3     
  25 C25           -1.2118     3.3869     0.3132 C.3     
  26 C26           -1.3403     1.8741     0.1161 C.3     
  27 H27           -0.7982    -0.7114     0.5408 H       
  28 H28            1.3951    -1.8153     0.6739 H       
  29 H29            3.4572    -0.4949     0.4087 H       
  30 H30            3.5084     2.9629    -0.7438 H       
  31 H31            3.2501     3.3226     1.7293 H       
  32 H32            4.3409     1.9441     2.0090 H       
  33 H33            5.3593     0.8639     0.1043 H       
  34 H34            4.0865     5.3971     0.7849 H       
  35 H35            6.7000     2.0963     1.4658 H       
  36 H36            8.3120     5.9643     0.6724 H       
  37 H37            9.3815     3.0751     0.2246 H       
  38 H38            9.7119     4.1948     1.5683 H       
  39 H39            9.0391     2.5806     1.8999 H       
  40 H40            5.9233     7.4332    -0.6832 H       
  41 H41            5.0443     7.6286     0.8522 H       
  42 H42            6.8078     7.8642     0.8000 H       
  43 H43            4.1080     0.2573    -5.0679 H       
  44 H44            5.0745     1.7629    -5.1937 H       
  45 H45            6.8407     0.6924    -4.2237 H       
  46 H46            5.8801    -0.7955    -4.1029 H       
  47 H47           -0.0258     4.9831    -0.5313 H       
  48 H48           -0.2805     3.5984    -1.6246 H       
  49 H49           -0.9712     3.6032     1.3541 H       
  50 H50           -2.1493     3.8733     0.0436 H       
  51 H51           -1.7770     1.6715    -0.8619 H       
  52 H52           -1.9838     1.4604     0.8926 H       
@<TRIPOS>BOND
   1    1    2 ar
   2    1    6 ar
   3    1   26 1
   4    2    3 ar
   5    2   27 1
   6    3    4 ar
   7    3   28 1
   8    4    5 ar
   9    4   29 1
  10    5    6 ar
  11    5    7 1
  12    6   23 1
  13    7    8 1
  14    7    9 1
  15    7   30 1
  16    8   10 1
  17    8   31 1
  18    8   32 1
  19    9   18 1
  20    9   33 1
  21   10   11 ar
  22   10   12 ar
  23   11   15 ar
  24   11   34 1
  25   12   13 ar
  26   12   35 1
  27   13   14 ar
  28   13   16 1
  29   14   15 ar
  30   14   36 1
  31   15   17 1
  32   16   37 1
  33   16   38 1
  34   16   39 1
  35   17   40 1
  36   17   41 1
  37   17   42 1
  38   18   19 2
  39   18   20 1
  40   19   22 1
  41   20   21 1
  42   21   22 1
  43   21   43 1
  44   21   44 1
  45   22   45 1
  46   22   46 1
  47   23   24 1
  48   24   25 1
  49   24   47 1
  50   24   48 1
  51   25   26 1
  52   25   49 1
  53   25   50 1
  54   26   51 1
  55   26   52 1

#	End of record

