#	Name: ASD10610117
#	Creating user name:	WinNT
#	Creation time:	15. 06. 2019 21:28

#	Modifying user name:	WinNT
#	Modification time:	15. 06. 2019 21:28

#	Program:	/corina/corina34_cracker 3.40 0067  02.08.2006

@<TRIPOS>MOLECULE
ASD10610117
  63   67    0    0    0
SMALL
NO_CHARGES


@<TRIPOS>ATOM
   1 C1             0.0480     1.2383    -0.2244 C.ar    
   2 C2             0.1144    -0.1544    -0.2258 C.ar    
   3 C3             1.3617    -0.7715    -0.1765 C.ar    
   4 C4             2.5144    -0.0039    -0.1264 C.ar    
   5 C5             2.4564     1.3853    -0.1177 C.ar    
   6 C6             1.1982     1.9896    -0.1716 C.ar    
   7 S7             4.2202    -0.4901    -0.0721 S.3     
   8 C8             4.9207     1.1467    -0.5076 C.3     
   9 C9             3.7909     2.0860    -0.0418 C.3     
  10 C10           -1.1249    -0.9665    -0.2785 C.ar    
  11 C11           -1.2487    -1.9939    -1.2091 C.ar    
  12 C12           -2.4051    -2.7492    -1.2558 C.ar    
  13 C13           -3.4460    -2.4907    -0.3797 C.ar    
  14 C14           -3.3389    -1.4738     0.5513 C.ar    
  15 C15           -2.1768    -0.7067     0.6137 C.ar    
  16 F16           -4.3582    -1.2270     1.4030 F       
  17 Cl17          -2.5540    -4.0287    -2.4196 Cl      
  18 C18           -2.0567     0.3850     1.6101 C.2     
  19 N19           -2.9631     0.7444     2.4980 N.2     
  20 N20           -2.4817     1.7285     3.1765 N.pl3   
  21 N21           -1.2997     2.0042     2.7474 N.2     
  22 N22           -1.0030     1.1951     1.7877 N.2     
  23 C23           -3.1715     2.4248     4.2654 C.3     
  24 N24            3.7637     3.2728    -0.9002 N.am    
  25 C25            4.5497     4.3296    -0.6141 C.2     
  26 O26            5.2116     4.3356     0.4021 O.2     
  27 C27            4.6061     5.5039    -1.5570 C.3     
  28 N28            4.5261     5.1742    -2.9822 N.am    
  29 C29            3.9581     6.8112    -1.0968 C.3     
  30 C30            5.4830     6.6914    -1.1548 C.3     
  31 C31            5.5140     4.4683    -3.5672 C.2     
  32 O32            5.4909     4.2516    -4.8958 O.3     
  33 O33            6.4255     4.0274    -2.8954 O.2     
  34 C34            6.5874     3.4833    -5.4575 C.3     
  35 C35            6.6191     2.0951    -4.8151 C.3     
  36 C36            6.3897     3.3418    -6.9681 C.3     
  37 C37            7.9088     4.2034    -5.1813 C.3     
  38 H38           -0.9126     1.7299    -0.2696 H       
  39 H39            1.4308    -1.8492    -0.1770 H       
  40 H40            1.1276     3.0673    -0.1714 H       
  41 H41            5.8420     1.3382     0.0425 H       
  42 H42            5.0827     1.2308    -1.5822 H       
  43 H43            3.9787     2.3921     0.9874 H       
  44 H44           -0.4408    -2.2008    -1.8953 H       
  45 H45           -4.3460    -3.0860    -0.4240 H       
  46 H46           -2.9429     1.9353     5.2121 H       
  47 H47           -2.8378     3.4618     4.3026 H       
  48 H48           -4.2472     2.3953     4.0915 H       
  49 H49            3.1800     3.2981    -1.6745 H       
  50 H50            3.7620     5.4641    -3.5049 H       
  51 H51            3.4725     7.4262    -1.8545 H       
  52 H52            3.4909     6.8220    -0.1121 H       
  53 H53            6.0189     6.6235    -0.2080 H       
  54 H54            6.0001     7.2276    -1.9505 H       
  55 H55            5.6777     1.5821    -5.0119 H       
  56 H56            7.4423     1.5183    -5.2368 H       
  57 H57            6.7599     2.1958    -3.7390 H       
  58 H58            6.3672     4.3308    -7.4258 H       
  59 H59            7.2129     2.7650    -7.3898 H       
  60 H60            5.4483     2.8288    -7.1649 H       
  61 H61            8.0496     4.3041    -4.1052 H       
  62 H62            8.7320     3.6266    -5.6030 H       
  63 H63            7.8862     5.1924    -5.6390 H       
@<TRIPOS>BOND
   1    1    2 ar
   2    1    6 ar
   3    1   38 1
   4    2    3 ar
   5    2   10 1
   6    3    4 ar
   7    3   39 1
   8    4    5 ar
   9    4    7 1
  10    5    6 ar
  11    5    9 1
  12    6   40 1
  13    7    8 1
  14    8    9 1
  15    8   41 1
  16    8   42 1
  17    9   24 1
  18    9   43 1
  19   10   11 ar
  20   10   15 ar
  21   11   12 ar
  22   11   44 1
  23   12   13 ar
  24   12   17 1
  25   13   14 ar
  26   13   45 1
  27   14   15 ar
  28   14   16 1
  29   15   18 1
  30   18   19 2
  31   18   22 1
  32   19   20 1
  33   20   21 1
  34   20   23 1
  35   21   22 2
  36   23   46 1
  37   23   47 1
  38   23   48 1
  39   24   25 am
  40   24   49 1
  41   25   26 2
  42   25   27 1
  43   27   28 1
  44   27   29 1
  45   27   30 1
  46   28   31 am
  47   28   50 1
  48   29   30 1
  49   29   51 1
  50   29   52 1
  51   30   53 1
  52   30   54 1
  53   31   32 1
  54   31   33 2
  55   32   34 1
  56   34   35 1
  57   34   36 1
  58   34   37 1
  59   35   55 1
  60   35   56 1
  61   35   57 1
  62   36   58 1
  63   36   59 1
  64   36   60 1
  65   37   61 1
  66   37   62 1
  67   37   63 1

#	End of record

