#	Name: ASD11000164
#	Creating user name:	WinNT
#	Creation time:	15. 06. 2019 21:28

#	Modifying user name:	WinNT
#	Modification time:	15. 06. 2019 21:28

#	Program:	/corina/corina34_cracker 3.40 0067  02.08.2006

@<TRIPOS>MOLECULE
ASD11000164
  31   32    0    0    0
SMALL
NO_CHARGES


@<TRIPOS>ATOM
   1 C1            -0.0162     1.3221     0.0163 C.ar    
   2 N2             0.0012    -0.0047     0.0214 N.ar    
   3 C3             1.1420    -0.6674     0.0140 C.ar    
   4 C4             2.3455     0.0512     0.0004 C.ar    
   5 C5             2.2822     1.4516    -0.0046 C.ar    
   6 N6             1.1005     2.0385     0.0036 N.ar    
   7 C7             3.6436    -0.6473    -0.0079 C.2     
   8 O8             3.6800    -1.8618    -0.0029 O.2     
   9 O9             4.7898     0.0611    -0.0209 O.3     
  10 N10           -1.2316     1.9760     0.0186 N.pl3   
  11 C11           -1.2758     3.3694     0.1319 C.ar    
  12 C12           -2.2562     4.0911    -0.5368 C.ar    
  13 C13           -2.2978     5.4667    -0.4228 C.ar    
  14 C14           -1.3639     6.1262     0.3570 C.ar    
  15 C15           -0.3861     5.4097     1.0244 C.ar    
  16 C16           -0.3430     4.0334     0.9181 C.ar    
  17 Cl17          -1.4188     7.8557     0.4977 Cl      
  18 C18            6.0307    -0.6929    -0.0284 C.3     
  19 C19            7.2155     0.2750    -0.0429 C.3     
  20 H20            1.1486    -1.7474     0.0186 H       
  21 H21            3.1870     2.0412    -0.0147 H       
  22 H22           -2.0552     1.4693    -0.0584 H       
  23 H23           -2.9850     3.5769    -1.1458 H       
  24 H24           -3.0596     6.0284    -0.9429 H       
  25 H25            0.3418     5.9269     1.6320 H       
  26 H26            0.4178     3.4743     1.4424 H       
  27 H27            6.0821    -1.3168     0.8639 H       
  28 H28            6.0667    -1.3245    -0.9160 H       
  29 H29            7.1641     0.8990    -0.9352 H       
  30 H30            7.1796     0.9067     0.8447 H       
  31 H31            8.1470    -0.2910    -0.0485 H       
@<TRIPOS>BOND
   1    1    2 ar
   2    1    6 ar
   3    1   10 1
   4    2    3 ar
   5    3    4 ar
   6    3   20 1
   7    4    5 ar
   8    4    7 1
   9    5    6 ar
  10    5   21 1
  11    7    8 2
  12    7    9 1
  13    9   18 1
  14   10   11 1
  15   10   22 1
  16   11   12 ar
  17   11   16 ar
  18   12   13 ar
  19   12   23 1
  20   13   14 ar
  21   13   24 1
  22   14   15 ar
  23   14   17 1
  24   15   16 ar
  25   15   25 1
  26   16   26 1
  27   18   19 1
  28   18   27 1
  29   18   28 1
  30   19   29 1
  31   19   30 1
  32   19   31 1

#	End of record

