#	Name: ASD14740008
#	Creating user name:	WinNT
#	Creation time:	15. 06. 2019 21:31

#	Modifying user name:	WinNT
#	Modification time:	15. 06. 2019 21:31

#	Program:	/corina/corina34_cracker 3.40 0067  02.08.2006

@<TRIPOS>MOLECULE
ASD14740008
  81   86    0    0    0
SMALL
NO_CHARGES


@<TRIPOS>ATOM
   1 C1            -3.5443     2.1421     6.8590 C.ar    
   2 C2            -4.0758     1.1837     7.7188 C.ar    
   3 C3            -3.3707     0.0200     7.9763 C.ar    
   4 C4            -2.1358    -0.1892     7.3772 C.ar    
   5 C5            -1.6078     0.7680     6.5207 C.ar    
   6 C6            -2.3104     1.9295     6.2624 C.ar    
   7 N7            -1.4227    -1.3649     7.6368 N.3     
   8 C8            -0.1489    -1.3809     6.9041 C.3     
   9 C9             0.6344    -2.6421     7.2757 C.3     
  10 N10           -0.1705    -3.8285     6.9529 N.3     
  11 C11           -1.4443    -3.8125     7.6856 C.3     
  12 C12           -2.2276    -2.5512     7.3140 C.3     
  13 C13            0.5781    -5.0627     7.2255 C.3     
  14 N14           -4.2596     3.3196     6.5920 N.pl3   
  15 C15           -4.1146     3.9558     5.3709 C.ar    
  16 C16           -3.2284     3.9528     3.2398 C.ar    
  17 N17           -3.4040     3.3718     4.4171 N.ar    
  18 N18           -4.6950     5.1340     5.1808 N.ar    
  19 C19           -4.5701     5.7592     4.0232 C.ar    
  20 C20           -3.8007     5.1904     3.0084 C.ar    
  21 C21           -3.5651     5.9055     1.7082 C.3     
  22 C22           -5.2947     7.4808     2.5080 C.2     
  23 C23           -4.7832     6.7372     1.2997 C.3     
  24 N24           -5.1961     6.9811     3.7745 N.pl3   
  25 C25           -5.7621     7.8491     4.6563 C.2     
  26 C26           -6.2279     8.9160     3.9802 C.2     
  27 C27           -5.9252     8.6792     2.5614 C.2     
  28 C28           -6.2511     9.5585     1.4262 C.2     
  29 O29           -5.9479     9.2292     0.2952 O.2     
  30 N30           -6.8854    10.7283     1.6403 N.am    
  31 O31           -5.2852     1.3908     8.3049 O.3     
  32 C32           -5.7685     0.3655     9.1751 C.3     
  33 C33           -6.1291    11.9699    -0.2880 C.ar    
  34 C34           -8.4436    12.0528     0.3559 C.ar    
  35 C35           -4.7272    11.4653    -0.0616 C.3     
  36 C36           -3.9981    11.3657    -1.4030 C.3     
  37 C37           -9.5579    11.6376     1.2816 C.3     
  38 C38           -9.5413    12.5234     2.5290 C.3     
  39 C39           -7.1531    11.5852     0.5677 C.ar    
  40 C40           -8.7046    12.8985    -0.7044 C.ar    
  41 C41           -7.6818    13.2838    -1.5515 C.ar    
  42 C42           -6.3958    12.8199    -1.3433 C.ar    
  43 H43           -3.7809    -0.7241     8.6429 H       
  44 H44           -0.6468     0.6043     6.0558 H       
  45 H45           -1.8982     2.6725     5.5957 H       
  46 H46           -0.3460    -1.3779     5.8321 H       
  47 H47            0.4344    -0.4992     7.1695 H       
  48 H48            1.5667    -2.6706     6.7116 H       
  49 H49            0.8551    -2.6319     8.3431 H       
  50 H50           -2.0275    -4.6942     7.4203 H       
  51 H51           -1.2472    -3.8155     8.7576 H       
  52 H52           -3.1598    -2.5227     7.8781 H       
  53 H53           -2.4483    -2.5615     6.2466 H       
  54 H54            0.8465    -5.0992     8.2813 H       
  55 H55           -0.0407    -5.9252     6.9779 H       
  56 H56            1.4840    -5.0795     6.6195 H       
  57 H57           -4.8555     3.6878     7.2629 H       
  58 H58           -2.6454     3.4670     2.4712 H       
  59 H59           -2.7031     6.5641     1.8145 H       
  60 H60           -3.3576     5.1712     0.9299 H       
  61 H61           -4.4958     7.4502     0.5270 H       
  62 H62           -5.5638     6.0786     0.9190 H       
  63 H63           -5.8274     7.7054     5.7247 H       
  64 H64           -6.7266     9.7777     4.3986 H       
  65 H65           -7.1563    10.9759     2.5382 H       
  66 H66           -6.7401     0.6562     9.5746 H       
  67 H67           -5.8686    -0.5662     8.6183 H       
  68 H68           -5.0655     0.2245     9.9960 H       
  69 H69           -4.1936    12.1557     0.5916 H       
  70 H70           -4.7663    10.4808     0.4046 H       
  71 H71           -3.9775    12.3461    -1.8790 H       
  72 H72           -2.9775    11.0209    -1.2372 H       
  73 H73           -4.5199    10.6594    -2.0487 H       
  74 H74          -10.5145    11.7472     0.7708 H       
  75 H75           -9.4189    10.5966     1.5734 H       
  76 H76          -10.2888    12.1669     3.2378 H       
  77 H77           -8.5546    12.4828     2.9905 H       
  78 H78           -9.7688    13.5516     2.2476 H       
  79 H79           -9.7079    13.2625    -0.8696 H       
  80 H80           -7.8885    13.9451    -2.3799 H       
  81 H81           -5.5992    13.1227    -2.0067 H       
@<TRIPOS>BOND
   1    1    2 ar
   2    1    6 ar
   3    1   14 1
   4    2    3 ar
   5    2   31 1
   6    3    4 ar
   7    3   43 1
   8    4    5 ar
   9    4    7 1
  10    5    6 ar
  11    5   44 1
  12    6   45 1
  13    7    8 1
  14    7   12 1
  15    8    9 1
  16    8   46 1
  17    8   47 1
  18    9   10 1
  19    9   48 1
  20    9   49 1
  21   10   11 1
  22   10   13 1
  23   11   12 1
  24   11   50 1
  25   11   51 1
  26   12   52 1
  27   12   53 1
  28   13   54 1
  29   13   55 1
  30   13   56 1
  31   14   15 1
  32   14   57 1
  33   15   18 ar
  34   15   17 ar
  35   16   17 ar
  36   16   20 ar
  37   16   58 1
  38   18   19 ar
  39   19   20 ar
  40   19   24 1
  41   20   21 1
  42   21   23 1
  43   21   59 1
  44   21   60 1
  45   22   23 1
  46   22   27 2
  47   22   24 1
  48   23   61 1
  49   23   62 1
  50   24   25 1
  51   25   26 2
  52   25   63 1
  53   26   27 1
  54   26   64 1
  55   27   28 1
  56   28   29 2
  57   28   30 am
  58   30   39 1
  59   30   65 1
  60   31   32 1
  61   32   66 1
  62   32   67 1
  63   32   68 1
  64   33   35 1
  65   33   42 ar
  66   33   39 ar
  67   34   37 1
  68   34   40 ar
  69   34   39 ar
  70   35   36 1
  71   35   69 1
  72   35   70 1
  73   36   71 1
  74   36   72 1
  75   36   73 1
  76   37   38 1
  77   37   74 1
  78   37   75 1
  79   38   76 1
  80   38   77 1
  81   38   78 1
  82   40   41 ar
  83   40   79 1
  84   41   42 ar
  85   41   80 1
  86   42   81 1

#	End of record

