#	Name: ASD14350001
#	Creating user name:	WinNT
#	Creation time:	15. 06. 2019 21:31

#	Modifying user name:	WinNT
#	Modification time:	15. 06. 2019 21:31

#	Program:	/corina/corina34_cracker 3.40 0067  02.08.2006

@<TRIPOS>MOLECULE
ASD14350001
  55   59    0    0    0
SMALL
NO_CHARGES


@<TRIPOS>ATOM
   1 C1             0.0387     1.2631    -0.6368 C.ar    
   2 C2             0.0678    -0.1165    -0.4388 C.ar    
   3 C3             1.2814    -0.7472    -0.1694 C.ar    
   4 C4             2.4417    -0.0103    -0.0998 C.ar    
   5 C5             1.2050     1.9959    -0.5657 C.ar    
   6 C6            -1.1842    -0.9079    -0.5140 C.2     
   7 C7            -1.2056    -2.2390    -0.3303 C.2     
   8 S8            -2.8692    -2.7942    -0.4991 S.3     
   9 C9            -3.3927    -1.1417    -0.8086 C.2     
  10 N10           -2.3675    -0.3483    -0.7626 N.2     
  11 C11            1.4547     3.4776    -0.7368 C.3     
  12 C12            2.4152     1.3726    -0.2978 C.ar    
  13 N13            3.4703     2.2893    -0.2696 N.am    
  14 C14            2.9698     3.6407    -0.5341 C.3     
  15 N15           -4.6977    -0.7492    -1.0580 N.pl3   
  16 C16           -5.7713    -1.7457    -1.0776 C.3     
  17 C17            4.7596     1.9759    -0.0328 C.2     
  18 C18            5.8037     3.0113    -0.1492 C.ar    
  19 O19            5.0620     0.8395     0.2767 O.2     
  20 C20            7.1581     2.6594    -0.0646 C.ar    
  21 C21            5.4489     4.3473    -0.3500 C.ar    
  22 C22            6.4294     5.3099    -0.4579 C.ar    
  23 C23            7.7662     4.9590    -0.3680 C.ar    
  24 C24            8.1311     3.6410    -0.1753 C.ar    
  25 O25            7.5151     1.3645     0.1251 O.3     
  26 C26            8.9137     1.0815     0.2013 C.3     
  27 C27            9.1164    -0.3967     0.4125 C.ar    
  28 C28            9.4879    -3.1092     0.8001 C.ar    
  29 C29            9.3589    -2.2658     1.8892 C.ar    
  30 C30            9.1726    -0.9102     1.6948 C.ar    
  31 C31            9.2405    -1.2396    -0.6762 C.ar    
  32 C32            9.4260    -2.5956    -0.4831 C.ar    
  33 Cl33           9.7226    -4.8120     1.0435 Cl      
  34 H34           -0.8972     1.7579    -0.8504 H       
  35 H35            1.3111    -1.8157    -0.0147 H       
  36 H36            3.3790    -0.5042     0.1096 H       
  37 H37           -0.3497    -2.8618    -0.1163 H       
  38 H38            1.1685     3.7982    -1.7385 H       
  39 H39            0.9072     4.0449     0.0159 H       
  40 H40            3.4305     4.0447    -1.4355 H       
  41 H41            3.1694     4.2912     0.3175 H       
  42 H42           -4.9006     0.1855    -1.2195 H       
  43 H43           -6.7206    -1.2531    -1.2881 H       
  44 H44           -5.5664    -2.4854    -1.8516 H       
  45 H45           -5.8258    -2.2403    -0.1078 H       
  46 H46            4.4078     4.6255    -0.4210 H       
  47 H47            6.1540     6.3426    -0.6135 H       
  48 H48            8.5279     5.7198    -0.4540 H       
  49 H49            9.1758     3.3746    -0.1108 H       
  50 H50            9.3970     1.3855    -0.7273 H       
  51 H51            9.3507     1.6310     1.0351 H       
  52 H52            9.4072    -2.6662     2.8911 H       
  53 H53            9.0712    -0.2518     2.5449 H       
  54 H54            9.1921    -0.8386    -1.6778 H       
  55 H55            9.5266    -3.2535    -1.3336 H       
@<TRIPOS>BOND
   1    1    2 ar
   2    1    5 ar
   3    1   34 1
   4    2    3 ar
   5    2    6 1
   6    3    4 ar
   7    3   35 1
   8    4   12 ar
   9    4   36 1
  10    5   12 ar
  11    5   11 1
  12    6    7 2
  13    6   10 1
  14    7    8 1
  15    7   37 1
  16    8    9 1
  17    9   10 2
  18    9   15 1
  19   11   14 1
  20   11   38 1
  21   11   39 1
  22   12   13 1
  23   13   14 1
  24   13   17 am
  25   14   40 1
  26   14   41 1
  27   15   16 1
  28   15   42 1
  29   16   43 1
  30   16   44 1
  31   16   45 1
  32   17   18 1
  33   17   19 2
  34   18   21 ar
  35   18   20 ar
  36   20   24 ar
  37   20   25 1
  38   21   22 ar
  39   21   46 1
  40   22   23 ar
  41   22   47 1
  42   23   24 ar
  43   23   48 1
  44   24   49 1
  45   25   26 1
  46   26   27 1
  47   26   50 1
  48   26   51 1
  49   27   31 ar
  50   27   30 ar
  51   28   29 ar
  52   28   32 ar
  53   28   33 1
  54   29   30 ar
  55   29   52 1
  56   30   53 1
  57   31   32 ar
  58   31   54 1
  59   32   55 1

#	End of record

