#	Name: ASD10610027
#	Creating user name:	WinNT
#	Creation time:	15. 06. 2019 21:27

#	Modifying user name:	WinNT
#	Modification time:	15. 06. 2019 21:27

#	Program:	/corina/corina34_cracker 3.40 0067  02.08.2006

@<TRIPOS>MOLECULE
ASD10610027
  56   60    0    0    0
SMALL
NO_CHARGES


@<TRIPOS>ATOM
   1 C1            -0.2431     1.6183    -0.1680 C.ar    
   2 C2            -0.3350     0.2273    -0.1742 C.ar    
   3 C3             0.8240    -0.5403    -0.1064 C.ar    
   4 C4             2.0657     0.0775    -0.0326 C.ar    
   5 C5             2.1482     1.4604    -0.0310 C.ar    
   6 C6             0.9935     2.2241    -0.0968 C.ar    
   7 C7             3.4790     2.1668     0.0364 C.3     
   8 C8            -1.6610    -0.4312    -0.2523 C.ar    
   9 C9            -1.8895    -1.4340    -1.1894 C.ar    
  10 C10           -3.1270    -2.0458    -1.2603 C.ar    
  11 C11           -4.1455    -1.6673    -0.4019 C.ar    
  12 C12           -3.9352    -0.6727     0.5358 C.ar    
  13 C13           -2.6907    -0.0500     0.6229 C.ar    
  14 F14           -4.9335    -0.3081     1.3699 F       
  15 Cl15          -3.4061    -3.2955    -2.4325 Cl      
  16 C16           -2.4595     1.0161     1.6260 C.2     
  17 N17           -3.3593     1.4869     2.5197 N.2     
  18 C18           -2.7295     2.4131     3.1983 C.2     
  19 O19           -1.4866     2.4821     2.7111 O.3     
  20 N20           -1.3450     1.6745     1.8173 N.2     
  21 N21            3.3801     3.3066     0.9514 N.am    
  22 C22            2.9191     4.4916     0.5044 C.2     
  23 O23            2.6727     4.6410    -0.6737 O.2     
  24 C24            2.7100     5.6309     1.4684 C.3     
  25 N25            3.6751     5.7139     2.5675 N.am    
  26 C26            2.1696     6.9454     0.9019 C.3     
  27 C27            1.2688     6.0538     1.7603 C.3     
  28 C28            4.9935     5.8008     2.3015 C.2     
  29 C29            5.9928     5.7782     3.4292 C.3     
  30 O30            5.3756     5.8973     1.1545 O.2     
  31 F31            7.2869     5.8809     2.9077 F       
  32 F32            5.7498     6.8546     4.2892 F       
  33 F33            5.8694     4.5782     4.1377 F       
  34 O34            3.1735    -0.7056     0.0431 O.3     
  35 C35            4.4359    -0.1072    -0.2536 C.3     
  36 C36            4.5513     1.1990     0.5425 C.3     
  37 C37           -3.2993     3.2456     4.3178 C.3     
  38 H38           -1.1382     2.2201    -0.2233 H       
  39 H39            0.7576    -1.6183    -0.1107 H       
  40 H40            1.0629     3.3019    -0.0922 H       
  41 H41            3.7518     2.5220    -0.9573 H       
  42 H42           -1.0997    -1.7342    -1.8621 H       
  43 H43           -5.1091    -2.1510    -0.4651 H       
  44 H44            3.6463     3.2084     1.8790 H       
  45 H45            3.3652     5.7063     3.4866 H       
  46 H46            2.5319     7.8720     1.3473 H       
  47 H47            1.9654     6.9862    -0.1680 H       
  48 H48            0.4720     5.5082     1.2548 H       
  49 H49            1.0388     6.3941     2.7699 H       
  50 H50            5.2399    -0.7846     0.0341 H       
  51 H51            4.4992     0.1063    -1.3206 H       
  52 H52            5.5393     1.6344     0.3927 H       
  53 H53            4.3945     0.9984     1.6023 H       
  54 H54           -3.1312     2.7397     5.2686 H       
  55 H55           -2.8091     4.2190     4.3326 H       
  56 H56           -4.3697     3.3801     4.1621 H       
@<TRIPOS>BOND
   1    1    2 ar
   2    1    6 ar
   3    1   38 1
   4    2    3 ar
   5    2    8 1
   6    3    4 ar
   7    3   39 1
   8    4    5 ar
   9    4   34 1
  10    5    6 ar
  11    5    7 1
  12    6   40 1
  13    7   21 1
  14    7   36 1
  15    7   41 1
  16    8    9 ar
  17    8   13 ar
  18    9   10 ar
  19    9   42 1
  20   10   11 ar
  21   10   15 1
  22   11   12 ar
  23   11   43 1
  24   12   13 ar
  25   12   14 1
  26   13   16 1
  27   16   17 1
  28   16   20 2
  29   17   18 2
  30   18   19 1
  31   18   37 1
  32   19   20 1
  33   21   22 am
  34   21   44 1
  35   22   23 2
  36   22   24 1
  37   24   25 1
  38   24   26 1
  39   24   27 1
  40   25   28 am
  41   25   45 1
  42   26   27 1
  43   26   46 1
  44   26   47 1
  45   27   48 1
  46   27   49 1
  47   28   29 1
  48   28   30 2
  49   29   31 1
  50   29   32 1
  51   29   33 1
  52   34   35 1
  53   35   36 1
  54   35   50 1
  55   35   51 1
  56   36   52 1
  57   36   53 1
  58   37   54 1
  59   37   55 1
  60   37   56 1

#	End of record

