#	Name: ASD11920008
#	Creating user name:	WinNT
#	Creation time:	15. 06. 2019 21:29

#	Modifying user name:	WinNT
#	Modification time:	15. 06. 2019 21:29

#	Program:	/corina/corina34_cracker 3.40 0067  02.08.2006

@<TRIPOS>MOLECULE
ASD11920008
  22   22    0    0    0
SMALL
NO_CHARGES


@<TRIPOS>ATOM
   1 C1            -0.0187     1.5258     0.0104 C.3     
   2 C2             0.0021    -0.0041     0.0020 C.3     
   3 C3             0.7421    -0.5109     1.2415 C.3     
   4 C4             0.7628    -2.0407     1.2331 C.3     
   5 C5            -0.6726    -2.5703     1.2440 C.3     
   6 C6            -1.4126    -2.0635     0.0045 C.3     
   7 C7            -1.4333    -0.5336     0.0129 C.3     
   8 O8            -2.1022    -0.0728     1.1886 O.3     
   9 H9             1.0039     1.9031     0.0027 H       
  10 H10           -0.5459     1.8868    -0.8726 H       
  11 H11           -0.5289     1.8773     0.9072 H       
  12 H12            0.5123    -0.3556    -0.8948 H       
  13 H13            1.7647    -0.1336     1.2338 H       
  14 H14            0.2319    -0.1594     2.1383 H       
  15 H15            1.2730    -2.3923     0.3363 H       
  16 H16            1.2900    -2.4018     2.1162 H       
  17 H17           -0.6578    -3.6602     1.2380 H       
  18 H18           -1.1828    -2.2188     2.1408 H       
  19 H19           -0.9024    -2.4150    -0.8923 H       
  20 H20           -2.4352    -2.4408     0.0122 H       
  21 H21           -1.9605    -0.1726    -0.8702 H       
  22 H22           -3.0191    -0.3710     1.2619 H       
@<TRIPOS>BOND
   1    1    2 1
   2    1    9 1
   3    1   10 1
   4    1   11 1
   5    2    3 1
   6    2    7 1
   7    2   12 1
   8    3    4 1
   9    3   13 1
  10    3   14 1
  11    4    5 1
  12    4   15 1
  13    4   16 1
  14    5    6 1
  15    5   17 1
  16    5   18 1
  17    6    7 1
  18    6   19 1
  19    6   20 1
  20    7    8 1
  21    7   21 1
  22    8   22 1

#	End of record

