#	Name: ASD10950068
#	Creating user name:	WinNT
#	Creation time:	15. 06. 2019 21:28

#	Modifying user name:	WinNT
#	Modification time:	15. 06. 2019 21:28

#	Program:	/corina/corina34_cracker 3.40 0067  02.08.2006

@<TRIPOS>MOLECULE
ASD10950068
  52   55    0    0    0
SMALL
NO_CHARGES


@<TRIPOS>ATOM
   1 C1            -2.2436     1.2855     0.5360 C.3     
   2 O2            -1.8449    -0.1066     0.4286 O.3     
   3 C3            -1.0581    -0.4388    -0.6132 C.2     
   4 O4            -0.7145     0.4111    -1.4101 O.2     
   5 C5            -0.6131    -1.8368    -0.7864 C.ar    
   6 C6             0.2024    -2.1846    -1.8651 C.ar    
   7 C7             0.6142    -3.4919    -2.0209 C.ar    
   8 C8             0.2210    -4.4575    -1.1112 C.ar    
   9 C9            -0.5871    -4.1197    -0.0400 C.ar    
  10 C10           -1.0015    -2.8151     0.1310 C.ar    
  11 C11            0.6745    -5.8837    -1.2882 C.3     
  12 N12            1.2004    -6.4068    -0.0219 N.am    
  13 C13            2.3454    -5.8748     0.7212 C.3     
  14 C14            1.8626    -4.8107     1.7089 C.3     
  15 C15            3.0404    -4.2635     2.4732 C.2     
  16 C16            3.3891    -2.9662     2.5674 C.2     
  17 N17            4.5104    -2.9133     3.3506 N.pl3   
  18 C18            4.8082    -4.1810     3.7080 C.2     
  19 N19            3.9219    -4.9827     3.1838 N.2     
  20 C20            0.4452    -7.4611     0.3361 C.2     
  21 O21            0.6088    -8.1276     1.3386 O.2     
  22 C22           -0.6138    -7.6882    -0.6705 C.2     
  23 C23           -0.5007    -6.7611    -1.6513 C.2     
  24 C24           -1.3536    -6.6334    -2.8356 C.2     
  25 O25           -2.5236    -6.3248    -2.7120 O.2     
  26 C26           -0.7911    -6.8802    -4.1837 C.ar    
  27 C27           -1.5787    -6.7300    -5.3300 C.ar    
  28 C28           -1.0132    -6.9699    -6.5670 C.ar    
  29 N29            0.2488    -7.3353    -6.6751 N.ar    
  30 C30            1.0258    -7.4884    -5.6212 C.ar    
  31 C31            0.5442    -7.2642    -4.3463 C.ar    
  32 O32           -1.5463    -8.6665    -0.6203 O.3     
  33 H33           -1.3561     1.9116     0.6278 H       
  34 H34           -2.8008     1.5736    -0.3555 H       
  35 H35           -2.8732     1.4163     1.4161 H       
  36 H36            0.5098    -1.4319    -2.5760 H       
  37 H37            1.2448    -3.7623    -2.8549 H       
  38 H38           -0.8907    -4.8784     0.6661 H       
  39 H39           -1.6322    -2.5528     0.9675 H       
  40 H40            1.4389    -5.9400    -2.0632 H       
  41 H41            2.8317    -6.6833     1.2670 H       
  42 H42            3.0550    -5.4285     0.0245 H       
  43 H43            1.3763    -4.0022     1.1630 H       
  44 H44            1.1529    -5.2570     2.4056 H       
  45 H45            2.8816    -2.1285     2.1122 H       
  46 H46            4.9998    -2.1144     3.6019 H       
  47 H47            5.6397    -4.4814     4.3283 H       
  48 H48           -2.6134    -6.4312    -5.2489 H       
  49 H49           -1.6132    -6.8570    -7.4579 H       
  50 H50            2.0542    -7.7892    -5.7568 H       
  51 H51            1.1865    -7.3913    -3.4874 H       
  52 H52           -1.4745    -9.2388     0.1559 H       
@<TRIPOS>BOND
   1    1    2 1
   2    1   33 1
   3    1   34 1
   4    1   35 1
   5    2    3 1
   6    3    4 2
   7    3    5 1
   8    5    6 ar
   9    5   10 ar
  10    6    7 ar
  11    6   36 1
  12    7    8 ar
  13    7   37 1
  14    8    9 ar
  15    8   11 1
  16    9   10 ar
  17    9   38 1
  18   10   39 1
  19   11   12 1
  20   11   23 1
  21   11   40 1
  22   12   13 1
  23   12   20 am
  24   13   14 1
  25   13   41 1
  26   13   42 1
  27   14   15 1
  28   14   43 1
  29   14   44 1
  30   15   16 2
  31   15   19 1
  32   16   17 1
  33   16   45 1
  34   17   18 1
  35   17   46 1
  36   18   19 2
  37   18   47 1
  38   20   21 2
  39   20   22 1
  40   22   23 2
  41   22   32 1
  42   23   24 1
  43   24   25 2
  44   24   26 1
  45   26   27 ar
  46   26   31 ar
  47   27   28 ar
  48   27   48 1
  49   28   29 ar
  50   28   49 1
  51   29   30 ar
  52   30   31 ar
  53   30   50 1
  54   31   51 1
  55   32   52 1

#	End of record

