#	Name: ASD13680023
#	Creating user name:	WinNT
#	Creation time:	15. 06. 2019 21:30

#	Modifying user name:	WinNT
#	Modification time:	15. 06. 2019 21:30

#	Program:	/corina/corina34_cracker 3.40 0067  02.08.2006

@<TRIPOS>MOLECULE
ASD13680023
  51   54    0    0    0
SMALL
NO_CHARGES


@<TRIPOS>ATOM
   1 C1            -0.0808     1.6111    -0.3219 C.3     
   2 C2             0.0227     0.1002    -0.3413 C.2     
   3 C3             0.9228    -0.6175     0.3373 C.2     
   4 C4             2.0033    -0.0279     1.2274 C.3     
   5 C5             1.9679     2.4337     0.8286 C.3     
   6 C6             1.2993     2.2331    -0.5285 C.3     
   7 C7             1.5488     1.3181     1.7834 C.3     
   8 C8             0.7601    -2.0479     0.1288 C.2     
   9 C9            -0.2633    -2.3601    -0.7203 C.2     
  10 S10           -1.0389    -0.9493    -1.2711 S.3     
  11 N11           -0.6204    -3.6485    -1.0834 N.am    
  12 C12            1.6112    -3.0557     0.7674 C.2     
  13 O13            1.3001    -3.5177     1.8496 O.2     
  14 N14            2.7384    -3.4710     0.1563 N.am    
  15 C15           -1.6492    -3.8491    -1.9306 C.2     
  16 C16           -2.0302    -5.2235    -2.3180 C.ar    
  17 C17           -1.0915    -6.0709    -2.9099 C.ar    
  18 C18           -1.4537    -7.3524    -3.2691 C.ar    
  19 C19           -2.7443    -7.7986    -3.0445 C.ar    
  20 C20           -3.6794    -6.9641    -2.4589 C.ar    
  21 C21           -3.3285    -5.6821    -2.0887 C.ar    
  22 O22           -2.2638    -2.8996    -2.3760 O.2     
  23 C23            3.6033    -4.3459     0.8100 C.ar    
  24 C24            4.6976    -4.8693     0.1299 C.ar    
  25 C25            5.5487    -5.7367     0.7911 C.ar    
  26 C26            5.2752    -6.0522     2.1153 C.ar    
  27 C27            4.1706    -5.4955     2.7287 C.ar    
  28 N28            3.3791    -4.6671     2.0743 N.ar    
  29 N29           -4.3284    -4.7927    -1.4562 N.pl3   
  30 O30           -5.4443    -5.2118    -1.2058 O.2     
  31 O31           -4.0354    -3.6417    -1.1861 O.2     
  32 H32           -0.7480     1.9382    -1.1194 H       
  33 H33           -0.4828     1.9337     0.6386 H       
  34 H34            2.2040    -0.7108     2.0529 H       
  35 H35            2.9148     0.1106     0.6458 H       
  36 H36            3.0507     2.4168     0.7049 H       
  37 H37            1.6667     3.3962     1.2419 H       
  38 H38            1.9099     1.5693    -1.1406 H       
  39 H39            1.1937     3.1960    -1.0283 H       
  40 H40            0.4639     1.3195     1.8894 H       
  41 H41            2.0087     1.4824     2.7579 H       
  42 H42           -0.1300    -4.4061    -0.7280 H       
  43 H43            2.9475    -3.1606    -0.7386 H       
  44 H44           -0.0842    -5.7236    -3.0864 H       
  45 H45           -0.7286    -8.0088    -3.7270 H       
  46 H46           -3.0228    -8.8029    -3.3280 H       
  47 H47           -4.6849    -7.3184    -2.2867 H       
  48 H48            4.8803    -4.6027    -0.9006 H       
  49 H49            6.4062    -6.1591     0.2885 H       
  50 H50            5.9197    -6.7264     2.6599 H       
  51 H51            3.9540    -5.7380     3.7585 H       
@<TRIPOS>BOND
   1    1    2 1
   2    1    6 1
   3    1   32 1
   4    1   33 1
   5    2   10 1
   6    2    3 2
   7    3    4 1
   8    3    8 1
   9    4    7 1
  10    4   34 1
  11    4   35 1
  12    5    6 1
  13    5    7 1
  14    5   36 1
  15    5   37 1
  16    6   38 1
  17    6   39 1
  18    7   40 1
  19    7   41 1
  20    8    9 2
  21    8   12 1
  22    9   10 1
  23    9   11 1
  24   11   15 am
  25   11   42 1
  26   12   13 2
  27   12   14 am
  28   14   23 1
  29   14   43 1
  30   15   16 1
  31   15   22 2
  32   16   17 ar
  33   16   21 ar
  34   17   18 ar
  35   17   44 1
  36   18   19 ar
  37   18   45 1
  38   19   20 ar
  39   19   46 1
  40   20   21 ar
  41   20   47 1
  42   21   29 1
  43   23   24 ar
  44   23   28 ar
  45   24   25 ar
  46   24   48 1
  47   25   26 ar
  48   25   49 1
  49   26   27 ar
  50   26   50 1
  51   27   28 ar
  52   27   51 1
  53   29   30 2
  54   29   31 2

#	End of record

