#	Name: ASD17380001
#	Creating user name:	WinNT
#	Creation time:	15. 06. 2019 21:31

#	Modifying user name:	WinNT
#	Modification time:	15. 06. 2019 21:31

#	Program:	/corina/corina34_cracker 3.40 0067  02.08.2006

@<TRIPOS>MOLECULE
ASD17380001
  72   76    0    0    0
SMALL
NO_CHARGES


@<TRIPOS>ATOM
   1 O1             3.7223     7.5118    -2.1321 O.2     
   2 C2            -0.0167     1.3796     0.0096 C.ar    
   3 C3            -1.2205     2.0611     0.0190 C.ar    
   4 O4             3.9716     5.1576    -3.0079 O.3     
   5 C5            -2.4113     1.3641     0.0209 C.ar    
   6 N6            -0.7093    10.1626   -10.0742 N.pl3   
   7 C7            -1.2314     3.5680     0.0277 C.3     
   8 C8             0.3032     5.2883    -0.1921 C.3     
   9 N9            -1.6480    11.9564    -9.2588 N.2     
  10 C10            1.7225     5.6108    -0.6639 C.3     
  11 O11            2.5825     6.9657    -4.3170 O.3     
  12 C12            2.9842     8.2063    -8.0879 C.3     
  13 O13            3.4537     9.3370    -5.0450 O.3     
  14 C14            1.9600     7.9199    -9.1878 C.3     
  15 C15            0.2015     9.0236   -10.2135 C.3     
  16 N16           -4.0184    13.3703   -10.6131 N.pl3   
  17 C17            1.4516     9.4222   -11.0385 C.3     
  18 O18            4.7003     7.2314    -5.6643 O.2     
  19 C19            2.5040     8.3983   -10.5478 C.3     
  20 O20            2.5151     7.6706    -6.8489 O.3     
  21 C21           -0.7023    11.0828    -9.0686 C.2     
  22 N22           -3.8057    11.6530   -12.2156 N.ar    
  23 P23            3.3427     7.7889    -5.4730 P.3     
  24 O24            2.6004     7.3035   -11.4611 O.3     
  25 O25            1.2076     9.2726   -12.4386 O.3     
  26 C26           -1.7221    10.5021   -10.9352 C.ar    
  27 N27           -2.2018     9.9952   -12.0665 N.ar    
  28 C28           -3.2169    10.5658   -12.6800 C.ar    
  29 C29           -3.3955    12.2310   -11.0916 C.ar    
  30 C30           -2.3139    11.6585   -10.4003 C.ar    
  31 O31            0.7493     8.6509    -8.9307 O.3     
  32 P32            3.0068     6.4376    -2.8564 P.3     
  33 O33            1.6879     6.0210    -2.0323 O.3     
  34 O34           -0.1710     4.0692    -0.8033 O.3     
  35 C35            0.2927     4.9611     1.3228 C.3     
  36 O36            0.1744     6.1535     2.1013 O.3     
  37 C37           -0.9770     4.0856     1.4568 C.3     
  38 O38           -2.0816     4.8721     1.9078 O.3     
  39 C39            0.0021    -0.0041     0.0020 C.ar    
  40 C40           -1.1812    -0.7129     0.0086 C.ar    
  41 C41           -2.3995    -0.0314     0.0132 C.ar    
  42 C42           -3.6716    -0.7847     0.0151 C.2     
  43 O43           -4.7309    -0.1886     0.0234 O.2     
  44 N44           -3.6568    -2.1324     0.0078 N.am    
  45 H45            0.9126     1.9299     0.0037 H       
  46 H46            3.5671     4.4132    -3.4740 H       
  47 H47           -3.3505     1.8973     0.0285 H       
  48 H48           -2.1926     3.9337    -0.3333 H       
  49 H49           -0.3702     6.1171    -0.4105 H       
  50 H50            2.1342     6.4148    -0.0538 H       
  51 H51            2.3482     4.7237    -0.5662 H       
  52 H52            3.9356     7.7420    -8.3475 H       
  53 H53            3.1203     9.2833    -7.9897 H       
  54 H54            2.5998     9.7678    -4.9023 H       
  55 H55            1.7467     6.8516    -9.2264 H       
  56 H56           -0.3083     8.1772   -10.6737 H       
  57 H57           -4.7638    13.7561   -11.0994 H       
  58 H58           -3.7098    13.7830    -9.7913 H       
  59 H59            1.7623    10.4409   -10.8064 H       
  60 H60            3.4744     8.8787   -10.4229 H       
  61 H61           -0.0135    11.0863    -8.2367 H       
  62 H62            2.9376     7.5478   -12.3339 H       
  63 H63            1.9608     9.5099   -12.9966 H       
  64 H64           -3.5822    10.1283   -13.5974 H       
  65 H65            1.1838     4.4008     1.6059 H       
  66 H66            0.1633     6.0005     3.0561 H       
  67 H67           -0.7967     3.2536     2.1374 H       
  68 H68           -1.9748     5.2236     2.8023 H       
  69 H69            0.9452    -0.5301    -0.0095 H       
  70 H70           -1.1652    -1.7928     0.0023 H       
  71 H71           -2.8114    -2.6081     0.0012 H       
  72 H72           -4.4914    -2.6266     0.0090 H       
@<TRIPOS>BOND
   1    1   32 2
   2    2   39 ar
   3    2   45 1
   4    2    3 ar
   5    3    5 ar
   6    3    7 1
   7    4   32 1
   8    4   46 1
   9    5   41 ar
  10    5   47 1
  11    6   21 1
  12    6   15 1
  13    6   26 1
  14    7   37 1
  15    7   48 1
  16    7   34 1
  17    8   10 1
  18    8   35 1
  19    8   49 1
  20    8   34 1
  21    9   21 2
  22    9   30 1
  23   10   50 1
  24   10   51 1
  25   10   33 1
  26   11   23 1
  27   11   32 1
  28   12   52 1
  29   12   53 1
  30   12   14 1
  31   12   20 1
  32   13   54 1
  33   13   23 1
  34   14   31 1
  35   14   55 1
  36   14   19 1
  37   15   31 1
  38   15   17 1
  39   15   56 1
  40   16   57 1
  41   16   58 1
  42   16   29 1
  43   17   59 1
  44   17   19 1
  45   17   25 1
  46   18   23 2
  47   19   60 1
  48   19   24 1
  49   20   23 1
  50   21   61 1
  51   22   29 ar
  52   22   28 ar
  53   24   62 1
  54   25   63 1
  55   26   30 ar
  56   26   27 ar
  57   27   28 ar
  58   28   64 1
  59   29   30 ar
  60   32   33 1
  61   35   36 1
  62   35   65 1
  63   35   37 1
  64   36   66 1
  65   37   67 1
  66   37   38 1
  67   38   68 1
  68   39   69 1
  69   39   40 ar
  70   40   70 1
  71   40   41 ar
  72   41   42 1
  73   42   43 2
  74   42   44 am
  75   44   71 1
  76   44   72 1

#	End of record

