#	Name: ASD11000076
#	Creating user name:	WinNT
#	Creation time:	15. 06. 2019 21:28

#	Modifying user name:	WinNT
#	Modification time:	15. 06. 2019 21:28

#	Program:	/corina/corina34_cracker 3.40 0067  02.08.2006

@<TRIPOS>MOLECULE
ASD11000076
  37   40    0    0    0
SMALL
NO_CHARGES


@<TRIPOS>ATOM
   1 C1            -0.0164     1.3567     0.0090 C.ar    
   2 C2             0.0020    -0.0039    -0.0143 C.ar    
   3 C3             1.1913    -0.7204    -0.0296 C.ar    
   4 C4             2.4135    -0.0610    -0.0210 C.ar    
   5 C5             2.4201     1.4002     0.0040 C.ar    
   6 C6             1.1827     2.0895     0.0186 C.ar    
   7 C7             3.6775    -0.8190    -0.0362 C.2     
   8 O8             4.7377    -0.2315    -0.1346 O.2     
   9 N9             3.6583    -2.1633     0.0590 N.am    
  10 C10            4.8454    -2.8751     0.0447 C.2     
  11 C11            4.9314    -4.2337     0.1352 C.2     
  12 C12            6.3113    -4.7320     0.0955 C.2     
  13 C13            7.1992    -3.7277    -0.0228 C.2     
  14 S14            6.3879    -2.1709    -0.0953 S.3     
  15 C15            3.7648    -5.1067     0.2593 C.2     
  16 O16            3.2892    -5.4274     1.4804 O.3     
  17 O17            3.2231    -5.5436    -0.7385 O.2     
  18 C18            3.6166     2.1264     0.0134 C.ar    
  19 C19            3.5775     3.4891     0.0364 C.ar    
  20 C20            2.3629     4.1698     0.0507 C.ar    
  21 C21            1.1802     3.4945     0.0427 C.ar    
  22 C22            7.0371    -6.0266     0.1470 C.2     
  23 C23            8.3419    -5.8410     0.0635 C.2     
  24 C24            8.5808    -4.3552    -0.0535 C.3     
  25 H25           -0.9619     1.8785     0.0158 H       
  26 H26           -0.9347    -0.5414    -0.0208 H       
  27 H27            1.1657    -1.7999    -0.0480 H       
  28 H28            2.8127    -2.6319     0.1375 H       
  29 H29            2.5165    -6.0086     1.4613 H       
  30 H30            4.5652     1.6103     0.0028 H       
  31 H31            4.5015     4.0483     0.0440 H       
  32 H32            2.3585     5.2496     0.0692 H       
  33 H33            0.2458     4.0358     0.0536 H       
  34 H34            6.5611    -6.9916     0.2406 H       
  35 H35            9.0991    -6.6110     0.0765 H       
  36 H36            9.0799    -4.1252    -0.9948 H       
  37 H37            9.1762    -4.0004     0.7878 H       
@<TRIPOS>BOND
   1    1    2 ar
   2    1    6 ar
   3    1   25 1
   4    2    3 ar
   5    2   26 1
   6    3    4 ar
   7    3   27 1
   8    4    5 ar
   9    4    7 1
  10    5    6 ar
  11    5   18 ar
  12    6   21 ar
  13    7    8 2
  14    7    9 am
  15    9   10 1
  16    9   28 1
  17   10   11 2
  18   10   14 1
  19   11   12 1
  20   11   15 1
  21   12   13 2
  22   12   22 1
  23   13   14 1
  24   13   24 1
  25   15   16 1
  26   15   17 2
  27   16   29 1
  28   18   19 ar
  29   18   30 1
  30   19   20 ar
  31   19   31 1
  32   20   21 ar
  33   20   32 1
  34   21   33 1
  35   22   23 2
  36   22   34 1
  37   23   24 1
  38   23   35 1
  39   24   36 1
  40   24   37 1

#	End of record

