#	Name: ASD10160165
#	Creating user name:	WinNT
#	Creation time:	15. 06. 2019 21:25

#	Modifying user name:	WinNT
#	Modification time:	15. 06. 2019 21:25

#	Program:	/corina/corina34_cracker 3.40 0067  02.08.2006

@<TRIPOS>MOLECULE
ASD10160165
  37   39    0    0    0
SMALL
NO_CHARGES


@<TRIPOS>ATOM
   1 C1            -0.0366     1.4701     0.0140 C.2     
   2 C2            -0.0117    -0.0043     0.0049 C.ar    
   3 C3             1.2036    -0.6851    -0.1328 C.ar    
   4 C4             1.2217    -2.0655    -0.1402 C.ar    
   5 C5             0.0371    -2.7777    -0.0119 C.ar    
   6 C6            -1.1738    -2.1044     0.1252 C.ar    
   7 C7            -1.2011    -0.7265     0.1395 C.ar    
   8 O8             0.9997     2.0964    -0.0982 O.2     
   9 N9            -1.2085     2.1235     0.1411 N.am    
  10 O10            0.0594    -4.1353    -0.0206 O.3     
  11 N11           -0.0384    -6.0787    -1.2429 N.ar    
  12 C12           -0.1514    -4.7671    -1.2000 C.ar    
  13 N13           -0.4646    -4.0378    -2.2673 N.ar    
  14 C14           -0.6816    -4.5923    -3.4420 C.ar    
  15 C15           -0.5755    -5.9908    -3.5527 C.ar    
  16 C16           -0.7902    -6.6601    -4.7664 C.ar    
  17 C17           -0.6731    -8.0166    -4.8142 C.ar    
  18 C18           -0.3437    -8.7483    -3.6751 C.ar    
  19 C19           -0.1289    -8.1304    -2.4802 C.ar    
  20 C20           -0.2396    -6.7349    -2.3923 C.ar    
  21 S21           -1.2364     3.7793     0.1513 S.o2    
  22 O22           -2.6086     4.1055     0.3241 O.2     
  23 O23           -0.2691     4.1401     1.1276 O.2     
  24 C24           -0.6738     4.2517    -1.5073 C.3     
  25 F25           -2.3236    -2.8029     0.2493 F       
  26 F26            2.3567     0.0075    -0.2585 F       
  27 H27            2.1587    -2.5919    -0.2463 H       
  28 H28           -2.1406    -0.2054     0.2501 H       
  29 H29           -2.0355     1.6239     0.2265 H       
  30 H30           -0.9355    -3.9876    -4.3001 H       
  31 H31           -1.0467    -6.1045    -5.6563 H       
  32 H32           -0.8383    -8.5324    -5.7486 H       
  33 H33           -0.2576    -9.8228    -3.7405 H       
  34 H34            0.1250    -8.7114    -1.6060 H       
  35 H35           -1.3527     3.8378    -2.2529 H       
  36 H36           -0.6611     5.3384    -1.5908 H       
  37 H37            0.3306     3.8627    -1.6747 H       
@<TRIPOS>BOND
   1    1    2 1
   2    1    8 2
   3    1    9 am
   4    2    3 ar
   5    2    7 ar
   6    3    4 ar
   7    3   26 1
   8    4    5 ar
   9    4   27 1
  10    5    6 ar
  11    5   10 1
  12    6    7 ar
  13    6   25 1
  14    7   28 1
  15    9   21 am
  16    9   29 1
  17   10   12 1
  18   11   12 ar
  19   11   20 ar
  20   12   13 ar
  21   13   14 ar
  22   14   15 ar
  23   14   30 1
  24   15   16 ar
  25   15   20 ar
  26   16   17 ar
  27   16   31 1
  28   17   18 ar
  29   17   32 1
  30   18   19 ar
  31   18   33 1
  32   19   20 ar
  33   19   34 1
  34   21   22 2
  35   21   23 2
  36   21   24 1
  37   24   35 1
  38   24   36 1
  39   24   37 1

#	End of record

