#	Name: ASD10410163
#	Creating user name:	WinNT
#	Creation time:	15. 06. 2019 21:27

#	Modifying user name:	WinNT
#	Modification time:	15. 06. 2019 21:27

#	Program:	/corina/corina34_cracker 3.40 0067  02.08.2006

@<TRIPOS>MOLECULE
ASD10410163
  71   77    0    0    0
SMALL
NO_CHARGES


@<TRIPOS>ATOM
   1 C1            -0.1975     1.1657     0.2379 C.ar    
   2 C2            -0.0272    -0.2094     0.1652 C.ar    
   3 C3             1.2457    -0.7445    -0.0022 C.ar    
   4 C4             2.3401     0.0942    -0.0962 C.ar    
   5 C5             2.1679     1.4708    -0.0233 C.ar    
   6 C6             0.8970     2.0037     0.1439 C.ar    
   7 F7             1.4122    -2.0833    -0.0726 F       
   8 N8             3.2765     2.3209    -0.1185 N.pl3   
   9 C9             3.1366     3.5889    -0.6823 C.2     
  10 N10            4.0726     4.5062    -0.7354 N.2     
  11 N11            2.0275     4.0636    -1.2615 N.2     
  12 C12            2.2400     5.2907    -1.6864 C.2     
  13 N13            3.5163     5.6225    -1.3805 N.pl3   
  14 C14            4.1533     6.8346    -1.6525 C.ar    
  15 N15            1.3232     6.0971    -2.3336 N.pl3   
  16 N16           -1.1375    -1.0591     0.2611 N.3     
  17 C17           -1.8293    -0.8789     1.5451 C.3     
  18 C18           -3.0775    -1.7641     1.5776 C.3     
  19 N19           -2.6848    -3.1673     1.3866 N.3     
  20 C20           -1.9931    -3.3475     0.1026 C.3     
  21 C21           -0.7449    -2.4623     0.0701 C.3     
  22 N22            3.7346     7.5937    -2.6544 N.ar    
  23 N23            4.2894     8.7150    -2.9413 N.ar    
  24 C24            5.3199     9.1886    -2.2527 C.ar    
  25 C25            5.8316     8.4566    -1.1768 C.ar    
  26 C26            5.2274     7.2505    -0.8665 C.ar    
  27 C27           -3.8487    -4.0580     1.4871 C.3     
  28 C28           -4.4842    -3.9638     2.9078 C.3     
  29 C29           -3.4107    -5.5343     1.3519 C.3     
  30 C30           -3.8229    -6.1931     2.7037 C.3     
  31 C31           -5.8187    -4.7619     2.7922 C.3     
  32 C32           -5.3808    -6.2382     2.6570 C.3     
  33 C33           -3.5969    -4.9944     3.6914 C.3     
  34 C34            5.9275    10.4899    -2.6232 C.ar    
  35 C35            5.4180    11.2196    -3.6959 C.ar    
  36 C36            5.9869    12.4301    -4.0359 C.ar    
  37 C37            7.0609    12.9194    -3.3144 C.ar    
  38 C38            7.5710    12.1993    -2.2492 C.ar    
  39 C39            7.0063    10.9904    -1.8966 C.ar    
  40 H40           -1.1864     1.5812     0.3634 H       
  41 H41            3.3289    -0.3204    -0.2259 H       
  42 H42            0.7637     3.0740     0.2009 H       
  43 H43            4.1418     2.0279     0.2077 H       
  44 H44            0.4281     5.7681    -2.5111 H       
  45 H45            1.5748     6.9921    -2.6104 H       
  46 H46           -1.1625    -1.1604     2.3601 H       
  47 H47           -2.1210     0.1653     1.6576 H       
  48 H48           -3.5764    -1.6539     2.5405 H       
  49 H49           -3.7566    -1.4646     0.7794 H       
  50 H50           -1.7014    -4.3917    -0.0099 H       
  51 H51           -2.6599    -3.0660    -0.7124 H       
  52 H52           -0.2460    -2.5725    -0.8928 H       
  53 H53           -0.0658    -2.7618     0.8683 H       
  54 H54            6.6700     8.8230    -0.6029 H       
  55 H55            5.5828     6.6454    -0.0456 H       
  56 H56           -4.5853    -3.8069     0.7239 H       
  57 H57           -4.5633    -2.9616     3.3289 H       
  58 H58           -3.9326    -6.0110     0.5222 H       
  59 H59           -2.3318    -5.5992     1.2109 H       
  60 H60           -3.3261    -7.1322     2.9471 H       
  61 H61           -6.4222    -4.6252     3.6895 H       
  62 H62           -6.3740    -4.4478     1.9083 H       
  63 H63           -5.7207    -6.6499     1.7067 H       
  64 H64           -5.7690    -6.8273     3.4879 H       
  65 H65           -2.5516    -4.6878     3.7297 H       
  66 H66           -3.9935    -5.2030     4.6850 H       
  67 H67            4.5797    10.8383    -4.2601 H       
  68 H68            5.5932    12.9962    -4.8671 H       
  69 H69            7.5031    13.8672    -3.5840 H       
  70 H70            8.4101    12.5858    -1.6898 H       
  71 H71            7.4054    10.4290    -1.0647 H       
@<TRIPOS>BOND
   1    1    2 ar
   2    1    6 ar
   3    1   40 1
   4    2    3 ar
   5    2   16 1
   6    3    4 ar
   7    3    7 1
   8    4    5 ar
   9    4   41 1
  10    5    6 ar
  11    5    8 1
  12    6   42 1
  13    8    9 1
  14    8   43 1
  15    9   10 2
  16    9   11 1
  17   10   13 1
  18   11   12 2
  19   12   13 1
  20   12   15 1
  21   13   14 1
  22   14   22 ar
  23   14   26 ar
  24   15   44 1
  25   15   45 1
  26   16   17 1
  27   16   21 1
  28   17   18 1
  29   17   46 1
  30   17   47 1
  31   18   19 1
  32   18   48 1
  33   18   49 1
  34   19   20 1
  35   19   27 1
  36   20   21 1
  37   20   50 1
  38   20   51 1
  39   21   52 1
  40   21   53 1
  41   22   23 ar
  42   23   24 ar
  43   24   25 ar
  44   24   34 1
  45   25   26 ar
  46   25   54 1
  47   26   55 1
  48   27   28 1
  49   27   29 1
  50   27   56 1
  51   28   31 1
  52   28   33 1
  53   28   57 1
  54   29   30 1
  55   29   58 1
  56   29   59 1
  57   30   32 1
  58   30   33 1
  59   30   60 1
  60   31   32 1
  61   31   61 1
  62   31   62 1
  63   32   63 1
  64   32   64 1
  65   33   65 1
  66   33   66 1
  67   34   35 ar
  68   34   39 ar
  69   35   36 ar
  70   35   67 1
  71   36   37 ar
  72   36   68 1
  73   37   38 ar
  74   37   69 1
  75   38   39 ar
  76   38   70 1
  77   39   71 1

#	End of record

