#	Name: ASD11000296
#	Creating user name:	WinNT
#	Creation time:	15. 06. 2019 21:29

#	Modifying user name:	WinNT
#	Modification time:	15. 06. 2019 21:29

#	Program:	/corina/corina34_cracker 3.40 0067  02.08.2006

@<TRIPOS>MOLECULE
ASD11000296
  42   45    0    0    0
SMALL
NO_CHARGES


@<TRIPOS>ATOM
   1 N1            -0.0225     1.3523     0.1459 N.am    
   2 C2            -0.0062     0.0081     0.1345 C.2     
   3 C3             1.2037    -0.7176     0.0977 C.2     
   4 C4             2.3915    -0.0641     0.0727 C.2     
   5 C5             2.3852     1.4000     0.0849 C.ar    
   6 C6             3.5798     2.1274     0.0599 C.ar    
   7 C7             3.5377     3.5069     0.0718 C.ar    
   8 C8             2.3147     4.1730     0.1084 C.ar    
   9 C9             1.1320     3.4679     0.1333 C.ar    
  10 C10            1.1518     2.0770     0.1219 C.ar    
  11 O11           -1.0628    -0.5992     0.1569 O.2     
  12 O12            4.6955     4.2193     0.0481 O.3     
  13 C13            4.5813     5.6436     0.0622 C.3     
  14 C14            5.9569     6.2582     0.0323 C.ar    
  15 C15            7.0743     5.4454    -0.0024 C.ar    
  16 N16            6.0914     7.5739     0.0337 N.ar    
  17 N17            8.2830     5.9804    -0.0288 N.ar    
  18 C18            8.4228     7.3000    -0.0224 C.ar    
  19 C19            7.2942     8.1158     0.0070 C.ar    
  20 N20            9.6925     7.8668    -0.0495 N.pl3   
  21 C21           10.8242     7.0515     0.0468 C.ar    
  22 C22           11.9846     7.3881    -0.6386 C.ar    
  23 C23           13.1016     6.5804    -0.5415 C.ar    
  24 C24           13.0642     5.4362     0.2385 C.ar    
  25 C25           11.9093     5.0993     0.9214 C.ar    
  26 C26           10.7920     5.9067     0.8326 C.ar    
  27 Cl27          14.4688     4.4232     0.3588 Cl      
  28 Cl28          14.5523     6.9994    -1.3980 Cl      
  29 H29           -0.8722     1.8198     0.1673 H       
  30 H30            1.1834    -1.7974     0.0897 H       
  31 H31            3.3220    -0.6116     0.0449 H       
  32 H32            4.5290     1.6128     0.0319 H       
  33 H33            2.2939     5.2527     0.1178 H       
  34 H34            0.1896     3.9945     0.1620 H       
  35 H35            4.0177     5.9716    -0.8113 H       
  36 H36            4.0627     5.9576     0.9681 H       
  37 H37            6.9598     4.3715    -0.0076 H       
  38 H38            7.4034     9.1903     0.0080 H       
  39 H39            9.7929     8.8278    -0.1353 H       
  40 H40           12.0136     8.2800    -1.2470 H       
  41 H41           11.8827     4.2065     1.5286 H       
  42 H42            9.8925     5.6456     1.3702 H       
@<TRIPOS>BOND
   1    1    2 am
   2    1   10 1
   3    1   29 1
   4    2    3 1
   5    2   11 2
   6    3    4 2
   7    3   30 1
   8    4    5 1
   9    4   31 1
  10    5    6 ar
  11    5   10 ar
  12    6    7 ar
  13    6   32 1
  14    7    8 ar
  15    7   12 1
  16    8    9 ar
  17    8   33 1
  18    9   10 ar
  19    9   34 1
  20   12   13 1
  21   13   14 1
  22   13   35 1
  23   13   36 1
  24   14   15 ar
  25   14   16 ar
  26   15   17 ar
  27   15   37 1
  28   16   19 ar
  29   17   18 ar
  30   18   19 ar
  31   18   20 1
  32   19   38 1
  33   20   21 1
  34   20   39 1
  35   21   22 ar
  36   21   26 ar
  37   22   23 ar
  38   22   40 1
  39   23   24 ar
  40   23   28 1
  41   24   25 ar
  42   24   27 1
  43   25   26 ar
  44   25   41 1
  45   26   42 1

#	End of record

