#	Name: ASD10410009
#	Creating user name:	WinNT
#	Creation time:	15. 06. 2019 21:26

#	Modifying user name:	WinNT
#	Modification time:	15. 06. 2019 21:26

#	Program:	/corina/corina34_cracker 3.40 0067  02.08.2006

@<TRIPOS>MOLECULE
ASD10410009
  64   67    0    0    0
SMALL
NO_CHARGES


@<TRIPOS>ATOM
   1 N1            -0.0724     1.9628     0.8140 N.pl3   
   2 C2            -0.5268     0.8791     0.0710 C.ar    
   3 C3            -1.8685     0.4770     0.1583 C.ar    
   4 C4             1.2731     2.0679     1.1360 C.ar    
   5 N5             2.1198     1.0933     0.8212 N.ar    
   6 C6             1.7590     3.2027     1.7910 C.ar    
   7 C7             3.1065     3.2634     2.0917 C.ar    
   8 N8             3.8923     2.2516     1.7527 N.ar    
   9 C9             3.4049     1.1907     1.1273 C.ar    
  10 Cl10           0.6945     4.5063     2.2166 Cl      
  11 N11            4.2598     0.1534     0.7905 N.pl3   
  12 C12            5.6364     0.2879     0.9943 C.ar    
  13 C13            6.3898    -0.8055     1.4023 C.ar    
  14 C14            7.7494    -0.6692     1.6028 C.ar    
  15 C15            8.3608     0.5542     1.3982 C.ar    
  16 C16            7.6136     1.6448     0.9924 C.ar    
  17 C17            6.2547     1.5137     0.7837 C.ar    
  18 C18            9.8445     0.6993     1.6184 C.3     
  19 N19           10.5560     0.4104     0.3661 N.3     
  20 C20           11.9772     0.7688     0.4731 C.3     
  21 C21           12.6973     0.3800    -0.8202 C.3     
  22 N22           12.0673     1.0693    -1.9549 N.3     
  23 C23           10.6461     0.7109    -2.0619 C.3     
  24 C24            9.9260     1.0998    -0.7686 C.3     
  25 C25           12.7788     0.7804    -3.2073 C.3     
  26 C26            0.3436     0.1921    -0.7660 C.ar    
  27 C27           -0.1099    -0.8828    -1.5027 C.ar    
  28 C28           -1.4330    -1.2859    -1.4144 C.ar    
  29 C29           -2.3121    -0.6137    -0.5938 C.ar    
  30 C30           -2.8041     1.2009     1.0386 C.2     
  31 O31           -2.5046     1.4179     2.1970 O.2     
  32 N32           -3.9913     1.6221     0.5592 N.am    
  33 C33           -4.9725     2.2285     1.4625 C.3     
  34 C34           -4.3005     1.4736    -0.8650 C.3     
  35 H35           -0.6953     2.6476     1.1039 H       
  36 H36            3.5147     4.1262     2.5970 H       
  37 H37            3.9032    -0.6661     0.4133 H       
  38 H38            5.9128    -1.7610     1.5630 H       
  39 H39            8.3357    -1.5189     1.9201 H       
  40 H40            8.0941     2.5990     0.8342 H       
  41 H41            5.6718     2.3658     0.4665 H       
  42 H42           10.0668     1.7181     1.9359 H       
  43 H43           10.1675    -0.0001     2.3895 H       
  44 H44           12.0704     1.8431     0.6323 H       
  45 H45           12.4243     0.2363     1.3125 H       
  46 H46           13.7456     0.6712    -0.7544 H       
  47 H47           12.6275    -0.6981    -0.9654 H       
  48 H48           10.1990     1.2434    -2.9013 H       
  49 H49           10.5530    -0.3634    -2.2212 H       
  50 H50            8.8777     0.8085    -0.8344 H       
  51 H51            9.9958     2.1778    -0.6235 H       
  52 H52           12.7603    -0.2929    -3.3964 H       
  53 H53           12.2918     1.3028    -4.0307 H       
  54 H54           13.8122     1.1169    -3.1240 H       
  55 H55            1.3761     0.5000    -0.8404 H       
  56 H56            0.5704    -1.4132    -2.1525 H       
  57 H57           -1.7778    -2.1283    -1.9955 H       
  58 H58           -3.3420    -0.9323    -0.5285 H       
  59 H59           -4.8125     3.3059     1.5023 H       
  60 H60           -5.9785     2.0238     1.0963 H       
  61 H61           -4.8564     1.8068     2.4609 H       
  62 H62           -3.4759     0.9652    -1.3648 H       
  63 H63           -5.2120     0.8869    -0.9797 H       
  64 H64           -4.4437     2.4581    -1.3103 H       
@<TRIPOS>BOND
   1    1    2 1
   2    1    4 1
   3    1   35 1
   4    2    3 ar
   5    2   26 ar
   6    3   30 1
   7    3   29 ar
   8    4    5 ar
   9    4    6 ar
  10    5    9 ar
  11    6    7 ar
  12    6   10 1
  13    7    8 ar
  14    7   36 1
  15    8    9 ar
  16    9   11 1
  17   11   12 1
  18   11   37 1
  19   12   13 ar
  20   12   17 ar
  21   13   14 ar
  22   13   38 1
  23   14   15 ar
  24   14   39 1
  25   15   16 ar
  26   15   18 1
  27   16   17 ar
  28   16   40 1
  29   17   41 1
  30   18   19 1
  31   18   42 1
  32   18   43 1
  33   19   20 1
  34   19   24 1
  35   20   21 1
  36   20   44 1
  37   20   45 1
  38   21   22 1
  39   21   46 1
  40   21   47 1
  41   22   23 1
  42   22   25 1
  43   23   24 1
  44   23   48 1
  45   23   49 1
  46   24   50 1
  47   24   51 1
  48   25   52 1
  49   25   53 1
  50   25   54 1
  51   26   27 ar
  52   26   55 1
  53   27   28 ar
  54   27   56 1
  55   28   29 ar
  56   28   57 1
  57   29   58 1
  58   30   31 2
  59   30   32 am
  60   32   33 1
  61   32   34 1
  62   33   59 1
  63   33   60 1
  64   33   61 1
  65   34   62 1
  66   34   63 1
  67   34   64 1

#	End of record

