#	Name: ASD11000053
#	Creating user name:	WinNT
#	Creation time:	15. 06. 2019 21:28

#	Modifying user name:	WinNT
#	Modification time:	15. 06. 2019 21:28

#	Program:	/corina/corina34_cracker 3.40 0067  02.08.2006

@<TRIPOS>MOLECULE
ASD11000053
  59   62    0    0    0
SMALL
NO_CHARGES


@<TRIPOS>ATOM
   1 C1            -1.4206    -0.0800    -0.6218 C.ar    
   2 C2            -0.9025    -1.3371    -0.3787 C.ar    
   3 C3             0.4705    -1.5339    -0.3814 C.ar    
   4 C4             1.3232    -0.4681    -0.6279 C.ar    
   5 C5             0.8052     0.7890    -0.8710 C.ar    
   6 C6            -0.5678     0.9857    -0.8687 C.ar    
   7 O7            -1.0779     2.2232    -1.1085 O.3     
   8 C8            -2.5008     2.3530    -1.0909 C.3     
   9 O9             0.9805    -2.7715    -0.1421 O.3     
  10 C10            2.4035    -2.9014    -0.1602 C.3     
  11 C11            2.7866    -4.3544     0.1276 C.3     
  12 N12            2.2747    -4.7421     1.4463 N.am    
  13 C13            2.1926    -5.2493    -0.9313 C.ar    
  14 C14            1.4975    -6.3971    -0.6205 C.ar    
  15 C15            2.3675    -4.8825    -2.2590 C.ar    
  16 C16            0.9870    -7.1893    -1.6420 C.ar    
  17 C17            1.1620    -6.8306    -2.9657 C.ar    
  18 C18            1.8554    -5.6651    -3.2777 C.ar    
  19 C19            2.2309    -6.1803     1.7581 C.3     
  20 C20            1.2432    -6.8394     0.7967 C.3     
  21 C21            1.8614    -3.8189     2.3370 C.2     
  22 O22            2.0033    -2.6358     2.0963 O.2     
  23 C23            1.2357    -4.2447     3.6061 C.ar    
  24 C24            1.3679    -3.4575     4.7526 C.ar    
  25 C25            0.5047    -5.4330     3.6637 C.ar    
  26 C26           -0.0770    -5.8245     4.8511 C.ar    
  27 C27            0.0615    -5.0427     5.9849 C.ar    
  28 C28            0.7797    -3.8622     5.9353 C.ar    
  29 O29            2.0295    -5.2989    -4.5758 O.3     
  30 C30            2.7519    -4.0899    -4.8175 C.3     
  31 O31            0.6586    -7.6127    -3.9579 O.3     
  32 C32           -0.0418    -8.7933    -3.5611 C.3     
  33 Cl33           2.2694    -1.9752     4.6913 Cl      
  34 H34           -2.4898     0.0723    -0.6241 H       
  35 H35           -1.5665    -2.1668    -0.1861 H       
  36 H36            2.3923    -0.6212    -0.6293 H       
  37 H37            1.4692     1.6190    -1.0626 H       
  38 H38           -2.8798     2.0650    -0.1103 H       
  39 H39           -2.7738     3.3881    -1.2962 H       
  40 H40           -2.9343     1.7049    -1.8526 H       
  41 H41            2.7821    -2.6132    -1.1408 H       
  42 H42            2.8372    -2.2535     0.6016 H       
  43 H43            3.8722    -4.4521     0.1170 H       
  44 H44            2.9077    -3.9783    -2.4981 H       
  45 H45            0.4489    -8.0937    -1.3995 H       
  46 H46            3.2210    -6.6166     1.6260 H       
  47 H47            1.8976    -6.3250     2.7857 H       
  48 H48            0.2278    -6.5639     1.0814 H       
  49 H49            1.3508    -7.9223     0.8590 H       
  50 H50            0.3949    -6.0440     2.7800 H       
  51 H51           -0.6426    -6.7434     4.8964 H       
  52 H52           -0.3970    -5.3542     6.9118 H       
  53 H53            0.8839    -3.2570     6.8237 H       
  54 H54            2.8185    -3.9149    -5.8913 H       
  55 H55            2.2329    -3.2559    -4.3449 H       
  56 H56            3.7552    -4.1765    -4.4005 H       
  57 H57           -0.8964    -8.5184    -2.9429 H       
  58 H58           -0.3902    -9.3242    -4.4471 H       
  59 H59            0.6268    -9.4381    -2.9907 H       
@<TRIPOS>BOND
   1    1    2 ar
   2    1    6 ar
   3    1   34 1
   4    2    3 ar
   5    2   35 1
   6    3    4 ar
   7    3    9 1
   8    4    5 ar
   9    4   36 1
  10    5    6 ar
  11    5   37 1
  12    6    7 1
  13    7    8 1
  14    8   38 1
  15    8   39 1
  16    8   40 1
  17    9   10 1
  18   10   11 1
  19   10   41 1
  20   10   42 1
  21   11   12 1
  22   11   13 1
  23   11   43 1
  24   12   19 1
  25   12   21 am
  26   13   14 ar
  27   13   15 ar
  28   14   16 ar
  29   14   20 1
  30   15   18 ar
  31   15   44 1
  32   16   17 ar
  33   16   45 1
  34   17   18 ar
  35   17   31 1
  36   18   29 1
  37   19   20 1
  38   19   46 1
  39   19   47 1
  40   20   48 1
  41   20   49 1
  42   21   22 2
  43   21   23 1
  44   23   24 ar
  45   23   25 ar
  46   24   33 1
  47   24   28 ar
  48   25   26 ar
  49   25   50 1
  50   26   27 ar
  51   26   51 1
  52   27   28 ar
  53   27   52 1
  54   28   53 1
  55   29   30 1
  56   30   54 1
  57   30   55 1
  58   30   56 1
  59   31   32 1
  60   32   57 1
  61   32   58 1
  62   32   59 1

#	End of record

