#	Name: ASD10160285
#	Creating user name:	WinNT
#	Creation time:	15. 06. 2019 21:25

#	Modifying user name:	WinNT
#	Modification time:	15. 06. 2019 21:25

#	Program:	/corina/corina34_cracker 3.40 0067  02.08.2006

@<TRIPOS>MOLECULE
ASD10160285
  32   33    0    0    0
SMALL
NO_CHARGES


@<TRIPOS>ATOM
   1 C1             0.3719     1.0991     1.9655 C.2     
   2 C2             0.2892    -0.2786     1.4422 C.ar    
   3 C3             1.3729    -0.8335     0.7559 C.ar    
   4 C4             1.2918    -2.1199     0.2695 C.ar    
   5 C5             0.1328    -2.8656     0.4606 C.ar    
   6 C6            -0.9462    -2.3166     1.1426 C.ar    
   7 C7            -0.8704    -1.0331     1.6368 C.ar    
   8 O8             1.3836     1.7527     1.7997 O.2     
   9 N9            -0.6762     1.6345     2.6223 N.am    
  10 S10           -0.5834     3.1802     3.2094 S.o2    
  11 O11           -1.8353     3.3879     3.8488 O.2     
  12 O12            0.6296     3.2018     3.9492 O.2     
  13 C13           -0.4446     4.2192     1.7289 C.3     
  14 O14            0.0558    -4.1323    -0.0206 O.3     
  15 C15           -1.3977    -5.5730     1.2029 C.ar    
  16 C16           -1.1301    -4.7863     0.0914 C.ar    
  17 C17           -2.0932    -4.6764    -0.9063 C.ar    
  18 C18           -3.2880    -5.3621    -0.7469 C.ar    
  19 C19           -3.4810    -6.1267     0.3898 C.ar    
  20 N20           -2.5466    -6.2088     1.3167 N.ar    
  21 Cl21          -4.5268    -5.2618    -1.9590 Cl      
  22 Cl22           2.6368    -2.8109    -0.5833 Cl      
  23 H23            2.2724    -0.2546     0.6068 H       
  24 H24           -1.8443    -2.8984     1.2887 H       
  25 H25           -1.7082    -0.6089     2.1703 H       
  26 H26           -1.4848     1.1145     2.7511 H       
  27 H27           -1.3231     4.0748     1.1000 H       
  28 H28           -0.3776     5.2661     2.0247 H       
  29 H29            0.4503     3.9409     1.1723 H       
  30 H30           -0.6549    -5.6687     1.9810 H       
  31 H31           -1.9150    -4.0716    -1.7831 H       
  32 H32           -4.4092    -6.6631     0.5198 H       
@<TRIPOS>BOND
   1    1    2 1
   2    1    8 2
   3    1    9 am
   4    2    3 ar
   5    2    7 ar
   6    3    4 ar
   7    3   23 1
   8    4    5 ar
   9    4   22 1
  10    5    6 ar
  11    5   14 1
  12    6    7 ar
  13    6   24 1
  14    7   25 1
  15    9   10 am
  16    9   26 1
  17   10   11 2
  18   10   12 2
  19   10   13 1
  20   13   27 1
  21   13   28 1
  22   13   29 1
  23   14   16 1
  24   15   16 ar
  25   15   20 ar
  26   15   30 1
  27   16   17 ar
  28   17   18 ar
  29   17   31 1
  30   18   19 ar
  31   18   21 1
  32   19   20 ar
  33   19   32 1

#	End of record

