#	Name: ASD10160485
#	Creating user name:	WinNT
#	Creation time:	15. 06. 2019 21:26

#	Modifying user name:	WinNT
#	Modification time:	15. 06. 2019 21:26

#	Program:	/corina/corina34_cracker 3.40 0067  02.08.2006

@<TRIPOS>MOLECULE
ASD10160485
  21   22    0    0    0
SMALL
NO_CHARGES


@<TRIPOS>ATOM
   1 C1            -0.0167     1.3781     0.0096 C.ar    
   2 C2             0.0021    -0.0041     0.0020 C.ar    
   3 C3             1.2216    -0.6630    -0.0131 C.ar    
   4 C4             2.3820     0.0963    -0.0201 C.ar    
   5 C5             2.2849     1.4746    -0.0118 C.ar    
   6 N6             1.1070     2.0678     0.0026 N.ar    
   7 C7            -1.2869    -0.7847     0.0106 C.3     
   8 F8            -1.0027    -2.1545     0.0004 F       
   9 F9            -2.0161    -0.4683     1.1619 F       
  10 F10           -2.0387    -0.4560    -1.1225 F       
  11 C11           -1.3367     2.1050     0.0198 C.3     
  12 C12           -1.6227     3.0337     1.2015 C.3     
  13 C13           -1.3093     3.6222    -0.1756 C.3     
  14 H14            1.2670    -1.7420    -0.0190 H       
  15 H15            3.3495    -0.3836    -0.0316 H       
  16 H16            3.1839     2.0731    -0.0171 H       
  17 H17           -2.1781     1.5576    -0.4052 H       
  18 H18           -2.6522     3.0977     1.5537 H       
  19 H19           -0.8560     3.1190     1.9716 H       
  20 H20           -0.3364     4.0946    -0.3114 H       
  21 H21           -2.1326     4.0733    -0.7294 H       
@<TRIPOS>BOND
   1    1    2 ar
   2    1    6 ar
   3    1   11 1
   4    2    3 ar
   5    2    7 1
   6    3    4 ar
   7    3   14 1
   8    4    5 ar
   9    4   15 1
  10    5    6 ar
  11    5   16 1
  12    7    8 1
  13    7    9 1
  14    7   10 1
  15   11   12 1
  16   11   13 1
  17   11   17 1
  18   12   13 1
  19   12   18 1
  20   12   19 1
  21   13   20 1
  22   13   21 1

#	End of record

