#	Name: ASD11370001
#	Creating user name:	WinNT
#	Creation time:	15. 06. 2019 21:29

#	Modifying user name:	WinNT
#	Modification time:	15. 06. 2019 21:29

#	Program:	/corina/corina34_cracker 3.40 0067  02.08.2006

@<TRIPOS>MOLECULE
ASD11370001
  34   34    0    0    0
SMALL
NO_CHARGES


@<TRIPOS>ATOM
   1 O1             0.6670    -0.0444    -0.2456 O.3     
   2 N2             0.4355     1.3974    -0.1563 N.3     
   3 C3             1.7114     2.1303     0.0227 C.3     
   4 C4             1.9552     2.4155     1.5060 C.3     
   5 C5             2.8730     1.3218    -0.5586 C.3     
   6 C6             1.5397     3.4248    -0.7379 C.2     
   7 C7             0.5307     3.3139    -1.5654 C.2     
   8 C8            -0.0732     1.9343    -1.4409 C.3     
   9 C9             0.3826     1.0494    -2.6028 C.3     
  10 C10           -1.6002     2.0250    -1.4099 C.3     
  11 C11            0.0471     4.3947    -2.4977 C.3     
  12 S12           -1.4783     5.1231    -1.8396 S.3     
  13 S13           -0.7971     6.3407    -0.3375 S.o2    
  14 O14           -1.9740     6.7367     0.3534 O.2     
  15 O15            0.2079     5.5714     0.3085 O.2     
  16 C16           -0.0594     7.7552    -1.2010 C.3     
  17 H17            2.0051     1.4743     2.0535 H       
  18 H18            2.8956     2.9541     1.6227 H       
  19 H19            1.1384     3.0212     1.8985 H       
  20 H20            2.6746     1.1037    -1.6079 H       
  21 H21            3.7944     1.8982    -0.4752 H       
  22 H22            2.9776     0.3877    -0.0067 H       
  23 H23            2.1539     4.3049    -0.6177 H       
  24 H24            1.4699     1.0761    -2.6750 H       
  25 H25            0.0552     0.0243    -2.4290 H       
  26 H26           -0.0524     1.4172    -3.5321 H       
  27 H27           -1.9555     2.4875    -2.3307 H       
  28 H28           -2.0219     1.0239    -1.3199 H       
  29 H29           -1.9111     2.6282    -0.5568 H       
  30 H30            0.8107     5.1676    -2.5850 H       
  31 H31           -0.1496     3.9657    -3.4803 H       
  32 H32           -0.8190     8.2458    -1.8096 H       
  33 H33            0.3332     8.4623    -0.4703 H       
  34 H34            0.7508     7.4074    -1.8418 H       
@<TRIPOS>BOND
   1    1    2 1
   2    2    3 1
   3    2    8 1
   4    3    4 1
   5    3    5 1
   6    3    6 1
   7    4   17 1
   8    4   18 1
   9    4   19 1
  10    5   20 1
  11    5   21 1
  12    5   22 1
  13    6    7 2
  14    6   23 1
  15    7    8 1
  16    7   11 1
  17    8    9 1
  18    8   10 1
  19    9   24 1
  20    9   25 1
  21    9   26 1
  22   10   27 1
  23   10   28 1
  24   10   29 1
  25   11   12 1
  26   11   30 1
  27   11   31 1
  28   12   13 1
  29   13   14 2
  30   13   15 2
  31   13   16 1
  32   16   32 1
  33   16   33 1
  34   16   34 1

#	End of record

