#	Name: ASD10160530
#	Creating user name:	WinNT
#	Creation time:	15. 06. 2019 21:26

#	Modifying user name:	WinNT
#	Modification time:	15. 06. 2019 21:26

#	Program:	/corina/corina34_cracker 3.40 0067  02.08.2006

@<TRIPOS>MOLECULE
ASD10160530
  39   41    0    0    0
SMALL
NO_CHARGES


@<TRIPOS>ATOM
   1 C1            -2.6159    -3.1165    -4.8392 C.2     
   2 C2            -1.9130    -3.3842    -3.5726 C.ar    
   3 C3            -0.7760    -4.2021    -3.5592 C.ar    
   4 C4            -0.1213    -4.4490    -2.3696 C.ar    
   5 C5            -0.5889    -3.8881    -1.1882 C.ar    
   6 C6            -1.7185    -3.0749    -1.1978 C.ar    
   7 C7            -2.3754    -2.8178    -2.3803 C.ar    
   8 O8            -2.2095    -3.6056    -5.8748 O.2     
   9 O9            -3.7129    -2.3337    -4.8487 O.3     
  10 F10           -0.3215    -4.7485    -4.7081 F       
  11 O11            0.0574    -4.1342    -0.0206 O.3     
  12 C12            2.4300    -4.1948    -0.2494 C.ar    
  13 C13            1.2158    -4.8430    -0.0697 C.ar    
  14 C14            1.2008    -6.2272     0.0599 C.ar    
  15 C15            2.4116    -6.9082     0.0035 C.ar    
  16 C16            3.5834    -6.1881    -0.1787 C.ar    
  17 N17            3.5577    -4.8753    -0.2972 N.ar    
  18 O18            2.4468    -8.2614     0.1257 O.3     
  19 C19            1.1970    -8.9288     0.3112 C.3     
  20 C20            1.4358   -10.4356     0.4276 C.3     
  21 F21            0.5878    -8.4615     1.4807 F       
  22 F22            0.3641    -8.6718    -0.7831 F       
  23 C23            4.9018    -6.9153    -0.2414 C.3     
  24 C24            5.7269    -6.7730    -1.5219 C.3     
  25 C25            6.1763    -6.0689    -0.2401 C.3     
  26 Cl26          -2.2967    -2.3782     0.2835 Cl      
  27 H27            0.7556    -5.0794    -2.3573 H       
  28 H28           -3.2491    -2.1829    -2.3865 H       
  29 H29           -4.1400    -2.1869    -5.7038 H       
  30 H30            2.4505    -3.1202    -0.3555 H       
  31 H31            0.2720    -6.7599     0.2011 H       
  32 H32            2.0846   -10.6358     1.2802 H       
  33 H33            0.4824   -10.9447     0.5691 H       
  34 H34            1.9104   -10.7997    -0.4836 H       
  35 H35            4.9342    -7.8752     0.2741 H       
  36 H36            6.3025    -7.6391    -1.8487 H       
  37 H37            5.3162    -6.1533    -2.3191 H       
  38 H38            6.0612    -4.9860    -0.1939 H       
  39 H39            7.0475    -6.4717     0.2765 H       
@<TRIPOS>BOND
   1    1    2 1
   2    1    8 2
   3    1    9 1
   4    2    3 ar
   5    2    7 ar
   6    3    4 ar
   7    3   10 1
   8    4    5 ar
   9    4   27 1
  10    5    6 ar
  11    5   11 1
  12    6    7 ar
  13    6   26 1
  14    7   28 1
  15    9   29 1
  16   11   13 1
  17   12   13 ar
  18   12   17 ar
  19   12   30 1
  20   13   14 ar
  21   14   15 ar
  22   14   31 1
  23   15   16 ar
  24   15   18 1
  25   16   17 ar
  26   16   23 1
  27   18   19 1
  28   19   20 1
  29   19   21 1
  30   19   22 1
  31   20   32 1
  32   20   33 1
  33   20   34 1
  34   23   24 1
  35   23   25 1
  36   23   35 1
  37   24   25 1
  38   24   36 1
  39   24   37 1
  40   25   38 1
  41   25   39 1

#	End of record

