#	Name: ASD11000113
#	Creating user name:	WinNT
#	Creation time:	15. 06. 2019 21:28

#	Modifying user name:	WinNT
#	Modification time:	15. 06. 2019 21:28

#	Program:	/corina/corina34_cracker 3.40 0067  02.08.2006

@<TRIPOS>MOLECULE
ASD11000113
  56   59    0    0    0
SMALL
NO_CHARGES


@<TRIPOS>ATOM
   1 C1             0.3943     1.4705     0.7768 C.ar    
   2 C2             0.3368     0.0906     0.7554 C.ar    
   3 C3             1.4460    -0.6437     0.3627 C.ar    
   4 C4             2.6128     0.0077    -0.0089 C.ar    
   5 C5             2.6702     1.3876     0.0121 C.ar    
   6 C6             1.5612     2.1219     0.4057 C.ar    
   7 O7             1.3898    -2.0022     0.3424 O.3     
   8 C8             2.5691    -2.6943    -0.0726 C.3     
   9 C9             2.3164    -4.2027    -0.0314 C.3     
  10 N10            1.5363    -4.5992    -1.2085 N.am    
  11 C11            3.6363    -4.9327    -0.0269 C.ar    
  12 C12            3.8972    -5.9879    -0.8729 C.ar    
  13 C13            4.6057    -4.5083     0.8719 C.ar    
  14 C14            5.1278    -6.6309    -0.8104 C.ar    
  15 C15            6.0949    -6.2148     0.0856 C.ar    
  16 C16            5.8336    -5.1418     0.9323 C.ar    
  17 C17            1.4886    -6.0339    -1.5355 C.3     
  18 C18            2.9049    -6.4815    -1.8930 C.3     
  19 O19            6.7788    -4.7199     1.8143 O.3     
  20 C20            6.4376    -3.6126     2.6506 C.3     
  21 O21            7.2959    -6.8507     0.1389 O.3     
  22 C22            7.4921    -7.9432    -0.7611 C.3     
  23 C23            0.8889    -3.6869    -1.9602 C.2     
  24 O24            0.8479    -2.5238    -1.6044 O.2     
  25 C25            0.2339    -4.0958    -3.2070 C.2     
  26 C26           -0.5650    -3.3112    -3.9884 C.2     
  27 O27            1.6175     3.4804     0.4259 O.3     
  28 C28            0.4385     4.1724     0.8418 C.3     
  29 O29            0.3199    -5.3113    -3.7860 O.3     
  30 C30           -0.4073    -5.3204    -4.9107 C.2     
  31 C31           -0.9716    -4.1034    -5.0734 C.2     
  32 H32           -0.4708     2.0424     1.0783 H       
  33 H33           -0.5717    -0.4166     1.0447 H       
  34 H34            3.4767    -0.5641    -0.3143 H       
  35 H35            3.5789     1.8948    -0.2765 H       
  36 H36            2.8264    -2.3966    -1.0891 H       
  37 H37            3.3915    -2.4452     0.5981 H       
  38 H38            1.7613    -4.4528     0.8727 H       
  39 H39            4.3994    -3.6765     1.5290 H       
  40 H40            5.3303    -7.4636    -1.4677 H       
  41 H41            1.1304    -6.5969    -0.6737 H       
  42 H42            0.8250    -6.1966    -2.3848 H       
  43 H43            3.1700    -6.0836    -2.8726 H       
  44 H44            2.9386    -7.5704    -1.9282 H       
  45 H45            7.2775    -3.3789     3.3048 H       
  46 H46            6.2080    -2.7461     2.0305 H       
  47 H47            5.5669    -3.8682     3.2545 H       
  48 H48            7.3927    -7.5906    -1.7877 H       
  49 H49            8.4886    -8.3599    -0.6149 H       
  50 H50            6.7445    -8.7124    -0.5671 H       
  51 H51           -0.8324    -2.2807    -3.8067 H       
  52 H52            0.1820     3.8747     1.8585 H       
  53 H53            0.6185     5.2470     0.8124 H       
  54 H54           -0.3844     3.9234     0.1718 H       
  55 H55           -0.5214    -6.1611    -5.5791 H       
  56 H56           -1.6145    -3.7978    -5.8856 H       
@<TRIPOS>BOND
   1    1    2 ar
   2    1    6 ar
   3    1   32 1
   4    2    3 ar
   5    2   33 1
   6    3    4 ar
   7    3    7 1
   8    4    5 ar
   9    4   34 1
  10    5    6 ar
  11    5   35 1
  12    6   27 1
  13    7    8 1
  14    8    9 1
  15    8   36 1
  16    8   37 1
  17    9   10 1
  18    9   11 1
  19    9   38 1
  20   10   17 1
  21   10   23 am
  22   11   12 ar
  23   11   13 ar
  24   12   14 ar
  25   12   18 1
  26   13   16 ar
  27   13   39 1
  28   14   15 ar
  29   14   40 1
  30   15   16 ar
  31   15   21 1
  32   16   19 1
  33   17   18 1
  34   17   41 1
  35   17   42 1
  36   18   43 1
  37   18   44 1
  38   19   20 1
  39   20   45 1
  40   20   46 1
  41   20   47 1
  42   21   22 1
  43   22   48 1
  44   22   49 1
  45   22   50 1
  46   23   24 2
  47   23   25 1
  48   25   29 1
  49   25   26 2
  50   26   31 1
  51   26   51 1
  52   27   28 1
  53   28   52 1
  54   28   53 1
  55   28   54 1
  56   29   30 1
  57   30   31 2
  58   30   55 1
  59   31   56 1

#	End of record

