#	Name: ASD13680060
#	Creating user name:	WinNT
#	Creation time:	15. 06. 2019 21:30

#	Modifying user name:	WinNT
#	Modification time:	15. 06. 2019 21:30

#	Program:	/corina/corina34_cracker 3.40 0067  02.08.2006

@<TRIPOS>MOLECULE
ASD13680060
  42   43    0    0    0
SMALL
NO_CHARGES


@<TRIPOS>ATOM
   1 C1            -0.0169     1.3922     0.0097 C.ar    
   2 C2             0.0021    -0.0041     0.0020 C.ar    
   3 C3             1.2196    -0.6825    -0.0132 C.ar    
   4 C4             2.4136     0.0366    -0.0207 C.ar    
   5 C5             2.3855     1.4328    -0.0130 C.ar    
   6 C6             1.1727     2.1034     0.0022 C.ar    
   7 C7            -1.2276    -0.7379     0.0103 C.1     
   8 C8             3.6672    -0.6553    -0.0359 C.1     
   9 N9             4.6618    -1.2041    -0.0480 N.1     
  10 N10           -2.2031    -1.3200     0.0168 N.1     
  11 O11            1.1498     3.4621     0.0092 O.3     
  12 C12            2.3414     4.1217     0.0014 C.2     
  13 C13            3.0764     4.5106     1.1295 C.2     
  14 C14            3.0298     4.5134    -1.0995 C.2     
  15 N15            4.1614     5.1347    -0.6763 N.pl3   
  16 N16            4.1627     5.1173     0.7244 N.2     
  17 C17            2.6825     4.2715     2.5643 C.3     
  18 C18            1.8515     5.4530     3.0687 C.3     
  19 C19            2.6150     4.2981    -2.5322 C.3     
  20 C20            1.6746     5.4245    -2.9657 C.3     
  21 C21            5.2039     5.6795     1.5881 C.3     
  22 C22            6.1973     4.5807     1.9709 C.3     
  23 O23            7.2130     5.1291     2.8133 O.3     
  24 H24           -0.9598     1.9187     0.0170 H       
  25 H25            1.2378    -1.7623    -0.0188 H       
  26 H26            3.3102     1.9908    -0.0188 H       
  27 H27            4.8477     5.5198    -1.2434 H       
  28 H28            2.0927     3.3574     2.6317 H       
  29 H29            3.5795     4.1710     3.1754 H       
  30 H30            1.5666     5.2801     4.1065 H       
  31 H31            2.4414     6.3671     3.0013 H       
  32 H32            0.9546     5.5535     2.4576 H       
  33 H33            3.4989     4.2970    -3.1701 H       
  34 H34            2.1011     3.3410    -2.6218 H       
  35 H35            1.3746     5.2687    -4.0020 H       
  36 H36            0.7908     5.4256    -2.3278 H       
  37 H37            2.1886     6.3815    -2.8761 H       
  38 H38            5.7278     6.4736     1.0560 H       
  39 H39            4.7471     6.0866     2.4901 H       
  40 H40            5.6735     3.7866     2.5030 H       
  41 H41            6.6542     4.1736     1.0688 H       
  42 H42            7.8789     4.4872     3.0955 H       
@<TRIPOS>BOND
   1    1    2 ar
   2    1    6 ar
   3    1   24 1
   4    2    3 ar
   5    2    7 1
   6    3    4 ar
   7    3   25 1
   8    4    5 ar
   9    4    8 1
  10    5    6 ar
  11    5   26 1
  12    6   11 1
  13    7   10 3
  14    8    9 3
  15   11   12 1
  16   12   14 2
  17   12   13 1
  18   13   16 2
  19   13   17 1
  20   14   15 1
  21   14   19 1
  22   15   16 1
  23   15   27 1
  24   16   21 1
  25   17   18 1
  26   17   28 1
  27   17   29 1
  28   18   30 1
  29   18   31 1
  30   18   32 1
  31   19   20 1
  32   19   33 1
  33   19   34 1
  34   20   35 1
  35   20   36 1
  36   20   37 1
  37   21   22 1
  38   21   38 1
  39   21   39 1
  40   22   23 1
  41   22   40 1
  42   22   41 1
  43   23   42 1

#	End of record

