#	Name: ASD16010001
#	Creating user name:	WinNT
#	Creation time:	15. 06. 2019 21:31

#	Modifying user name:	WinNT
#	Modification time:	15. 06. 2019 21:31

#	Program:	/corina/corina34_cracker 3.40 0067  02.08.2006

@<TRIPOS>MOLECULE
ASD16010001
  99  102    0    0    0
SMALL
NO_CHARGES


@<TRIPOS>ATOM
   1 O1            -0.0162     1.3433     0.0094 O.3     
   2 C2             0.0021    -0.0041     0.0020 C.2     
   3 O3             1.0619    -0.5969    -0.0113 O.2     
   4 C4            -1.2657    -0.7592     0.0101 C.2     
   5 C5            -1.2475    -2.1021     0.0027 C.2     
   6 C6            -2.5153    -2.8573     0.0107 C.2     
   7 O7            -2.4970    -4.2046     0.0033 O.3     
   8 O8            -3.5751    -2.2644     0.0240 O.2     
   9 H9             0.8393     1.7940     0.0037 H       
  10 H10           -2.2082    -0.2320     0.0219 H       
  11 H11           -0.3050    -2.6293    -0.0091 H       
  12 H12           -3.3526    -4.6553     0.0091 H       
  13 O13            9.6209    12.7926     5.0447 O.3     
  14 C14            9.6391    11.4452     5.0373 C.2     
  15 O15           10.6990    10.8524     5.0240 O.2     
  16 C16            8.3714    10.6901     5.0454 C.2     
  17 C17            8.3896     9.3472     5.0380 C.2     
  18 C18            7.1218     8.5921     5.0461 C.2     
  19 O19            7.1400     7.2447     5.0386 O.3     
  20 O20            6.0619     9.1849     5.0594 O.2     
  21 H21           10.4764    13.2433     5.0390 H       
  22 H22            7.4288    11.2173     5.0572 H       
  23 H23            9.3321     8.8200     5.0262 H       
  24 H24            6.2845     6.7940     5.0444 H       
  25 C25           18.6473    32.5287    16.3404 C.3     
  26 C26           18.6681    30.9989    16.3320 C.3     
  27 C27           19.3734    30.5129    15.0921 C.2     
  28 N28           18.7947    30.2681    13.9529 N.2     
  29 C29           19.7213    29.8478    13.0553 C.ar    
  30 C30           19.6639    29.4571    11.7143 C.ar    
  31 C31           18.3563    29.4492    10.9652 C.3     
  32 C32           20.8398    29.0787    11.0944 C.ar    
  33 C33           22.0264    29.0970    11.8099 C.ar    
  34 C34           23.3054    28.6833    11.1287 C.3     
  35 N35           22.0595    29.4689    13.0730 N.ar    
  36 C36           20.9636    29.8403    13.7149 C.ar    
  37 N37           20.7098    30.2715    14.9992 N.pl3   
  38 C38           21.6969    30.4362    16.0692 C.3     
  39 C39           21.8206    29.1478    16.8411 C.ar    
  40 C40           21.0050    28.9213    17.9344 C.ar    
  41 C41           21.1204    27.7435    18.6511 C.ar    
  42 C42           22.0610    26.8018    18.2570 C.ar    
  43 N43           22.2502    25.6238    18.9720 N.pl3   
  44 C44           21.9871    24.3641    18.4493 C.ar    
  45 C45           21.2991    23.4827    19.2912 C.ar    
  46 C46           20.9595    22.2187    18.8652 C.ar    
  47 C47           21.3023    21.8208    17.5858 C.ar    
  48 C48           20.9249    20.4464    17.0965 C.3     
  49 N49           19.6018    20.4992    16.4605 N.3     
  50 C50           19.6394    21.3058    15.2327 C.3     
  51 C51           18.2294    21.4018    14.6451 C.3     
  52 N52           17.7238    20.0500    14.3685 N.3     
  53 C53           16.4006    20.1028    13.7325 C.3     
  54 C54           17.6861    19.2433    15.5963 C.3     
  55 C55           19.0961    19.1474    16.1838 C.3     
  56 C56           21.9887    22.6815    16.7605 C.ar    
  57 C57           22.3557    23.9617    17.1847 C.ar    
  58 C58           23.1652    24.7420    16.1801 C.3     
  59 C59           23.8426    25.9695    16.7374 C.3     
  60 C60           22.8595    27.0173    17.1642 C.ar    
  61 C61           22.7459    28.1971    16.4476 C.ar    
  62 H62           19.6699    32.9060    16.3327 H       
  63 H63           18.1201    32.8898    15.4574 H       
  64 H64           18.1371    32.8802    17.2372 H       
  65 H65           19.1952    30.6378    17.2151 H       
  66 H66           17.6455    30.6216    16.3398 H       
  67 H67           18.2015    30.4200    10.4944 H       
  68 H68           18.3809    28.6738    10.1996 H       
  69 H69           17.5408    29.2481    11.6600 H       
  70 H70           20.8339    28.7704    10.0594 H       
  71 H71           23.7738    29.5563    10.6742 H       
  72 H72           23.9836    28.2479    11.8626 H       
  73 H73           23.0839    27.9465    10.3566 H       
  74 H74           22.6631    30.6942    15.6356 H       
  75 H75           21.3755    31.2326    16.7405 H       
  76 H76           20.2782    29.6639    18.2291 H       
  77 H77           20.4870    27.5593    19.5063 H       
  78 H78           22.5829    25.6851    19.8811 H       
  79 H79           21.0314    23.7986    20.2887 H       
  80 H80           20.4313    21.5446    19.5232 H       
  81 H81           21.6631    20.1035    16.3715 H       
  82 H82           20.8956    19.7559    17.9394 H       
  83 H83           20.0052    22.3058    15.4656 H       
  84 H84           20.3039    20.8348    14.5084 H       
  85 H85           17.5711    21.8973    15.3587 H       
  86 H86           18.2598    21.9754    13.7188 H       
  87 H87           16.4711    20.6489    12.7918 H       
  88 H88           16.0499    19.0891    13.5388 H       
  89 H89           15.6990    20.6096    14.3951 H       
  90 H90           17.0216    19.7144    16.3206 H       
  91 H91           17.3204    18.2433    15.3634 H       
  92 H92           19.7544    18.6518    15.4703 H       
  93 H93           19.0658    18.5738    17.1102 H       
  94 H94           22.2504    22.3605    15.7631 H       
  95 H95           23.9294    24.0838    15.7666 H       
  96 H96           22.5050    25.0502    15.3694 H       
  97 H97           24.4463    25.6802    17.5976 H       
  98 H98           24.4973    26.3894    15.9737 H       
  99 H99           23.3777    28.3755    15.5900 H       
@<TRIPOS>BOND
   1    1    2 1
   2    1    9 1
   3    2    3 2
   4    2    4 1
   5    4    5 2
   6    4   10 1
   7    5    6 1
   8    5   11 1
   9    6    7 1
  10    6    8 2
  11    7   12 1
  12   13   14 1
  13   13   21 1
  14   14   15 2
  15   14   16 1
  16   16   17 2
  17   16   22 1
  18   17   18 1
  19   17   23 1
  20   18   19 1
  21   18   20 2
  22   19   24 1
  23   25   26 1
  24   25   62 1
  25   25   63 1
  26   25   64 1
  27   26   27 1
  28   26   65 1
  29   26   66 1
  30   27   37 1
  31   27   28 2
  32   28   29 1
  33   29   36 ar
  34   29   30 ar
  35   30   31 1
  36   30   32 ar
  37   31   67 1
  38   31   68 1
  39   31   69 1
  40   32   33 ar
  41   32   70 1
  42   33   34 1
  43   33   35 ar
  44   34   71 1
  45   34   72 1
  46   34   73 1
  47   35   36 ar
  48   36   37 1
  49   37   38 1
  50   38   39 1
  51   38   74 1
  52   38   75 1
  53   39   61 ar
  54   39   40 ar
  55   40   41 ar
  56   40   76 1
  57   41   42 ar
  58   41   77 1
  59   42   60 ar
  60   42   43 1
  61   43   44 1
  62   43   78 1
  63   44   57 ar
  64   44   45 ar
  65   45   46 ar
  66   45   79 1
  67   46   47 ar
  68   46   80 1
  69   47   48 1
  70   47   56 ar
  71   48   49 1
  72   48   81 1
  73   48   82 1
  74   49   55 1
  75   49   50 1
  76   50   51 1
  77   50   83 1
  78   50   84 1
  79   51   52 1
  80   51   85 1
  81   51   86 1
  82   52   53 1
  83   52   54 1
  84   53   87 1
  85   53   88 1
  86   53   89 1
  87   54   55 1
  88   54   90 1
  89   54   91 1
  90   55   92 1
  91   55   93 1
  92   56   57 ar
  93   56   94 1
  94   57   58 1
  95   58   59 1
  96   58   95 1
  97   58   96 1
  98   59   60 1
  99   59   97 1
 100   59   98 1
 101   60   61 ar
 102   61   99 1

#	End of record

