#	Name: ASD10610098
#	Creating user name:	WinNT
#	Creation time:	15. 06. 2019 21:28

#	Modifying user name:	WinNT
#	Modification time:	15. 06. 2019 21:28

#	Program:	/corina/corina34_cracker 3.40 0067  02.08.2006

@<TRIPOS>MOLECULE
ASD10610098
  58   61    0    0    0
SMALL
NO_CHARGES


@<TRIPOS>ATOM
   1 O1             1.5729    -1.1834    -3.2692 O.3     
   2 C2             0.8731    -1.3038    -2.1220 C.2     
   3 N3             1.4441    -0.5242    -1.2332 N.2     
   4 N4             2.4525     0.0650    -1.7734 N.2     
   5 C5             2.5620    -0.3150    -3.0207 C.2     
   6 C6            -0.3133    -2.1528    -1.9066 C.2     
   7 O7            -0.7478    -2.8324    -2.8164 O.2     
   8 N8            -0.9159    -2.1754    -0.7012 N.am    
   9 O9            -1.6412    -4.5216     0.7123 O.3     
  10 C10           -2.0011    -4.4531    -0.6736 C.3     
  11 C11           -2.1545    -2.9353    -0.5157 C.3     
  12 C12           -2.4371    -3.3501     0.9335 C.3     
  13 C13           -3.3365    -2.3462    -1.2416 C.2     
  14 N14           -3.4655    -1.0086    -1.3450 N.am    
  15 O15           -4.1716    -3.0757    -1.7328 O.2     
  16 C16           -4.6672    -0.4335    -1.9544 C.3     
  17 C17           -4.4961    -0.3872    -3.4741 C.3     
  18 C18           -4.8771     0.9636    -1.4297 C.ar    
  19 C19           -6.1444     1.3609    -1.0350 C.ar    
  20 C20           -6.3310     2.6471    -0.5529 C.ar    
  21 C21           -5.2231     3.4961    -0.4846 C.ar    
  22 C22           -3.9818     3.0199    -0.9012 C.ar    
  23 N23           -3.8508     1.7876    -1.3481 N.ar    
  24 F24           -7.1862     0.5050    -1.1196 F       
  25 C25           -5.3666     4.8826     0.0229 C.ar    
  26 C26           -5.9273     5.1145     1.2822 C.ar    
  27 C27           -6.0579     6.4133     1.7492 C.ar    
  28 C28           -5.6344     7.4752     0.9708 C.ar    
  29 C29           -5.0791     7.2483    -0.2769 C.ar    
  30 C30           -4.9379     5.9584    -0.7509 C.ar    
  31 O31           -6.3435     4.0703     2.0459 O.3     
  32 C32           -5.3703     3.4598     2.8957 C.3     
  33 C33           -5.9926     2.2509     3.5973 C.3     
  34 F34           -7.0854     2.6685     4.3645 F       
  35 F35           -6.4216     1.3257     2.6396 F       
  36 Cl36          -4.5514     8.5886    -1.2458 Cl      
  37 Cl37          -6.7541     6.7070     3.3122 Cl      
  38 C38            3.6117     0.1417    -4.0008 C.3     
  39 H39           -0.5294    -1.6885     0.0434 H       
  40 H40           -1.1918    -4.7387    -1.3455 H       
  41 H41           -2.9378    -4.9612    -0.9031 H       
  42 H42           -3.4876    -3.5701     1.1237 H       
  43 H43           -2.0098    -2.6692     1.6697 H       
  44 H44           -2.7626    -0.4267    -1.0159 H       
  45 H45           -5.5314    -1.0491    -1.7046 H       
  46 H46           -4.3443    -1.3977    -3.8536 H       
  47 H47           -5.3902     0.0407    -3.9275 H       
  48 H48           -3.6319     0.2284    -3.7239 H       
  49 H49           -7.3076     2.9844    -0.2384 H       
  50 H50           -3.1177     3.6661    -0.8535 H       
  51 H51           -5.7376     8.4857     1.3377 H       
  52 H52           -4.4998     5.7846    -1.7227 H       
  53 H53           -4.5189     3.1344     2.2980 H       
  54 H54           -5.0361     4.1806     3.6419 H       
  55 H55           -5.2504     1.7851     4.2455 H       
  56 H56            3.2565     1.0276    -4.5272 H       
  57 H57            4.5298     0.3815    -3.4644 H       
  58 H58            3.8082    -0.6537    -4.7197 H       
@<TRIPOS>BOND
   1    1    2 1
   2    1    5 1
   3    2    3 2
   4    2    6 1
   5    3    4 1
   6    4    5 2
   7    5   38 1
   8    6    7 2
   9    6    8 am
  10    8   11 1
  11    8   39 1
  12    9   10 1
  13    9   12 1
  14   10   11 1
  15   10   40 1
  16   10   41 1
  17   11   12 1
  18   11   13 1
  19   12   42 1
  20   12   43 1
  21   13   14 am
  22   13   15 2
  23   14   16 1
  24   14   44 1
  25   16   17 1
  26   16   18 1
  27   16   45 1
  28   17   46 1
  29   17   47 1
  30   17   48 1
  31   18   19 ar
  32   18   23 ar
  33   19   20 ar
  34   19   24 1
  35   20   21 ar
  36   20   49 1
  37   21   22 ar
  38   21   25 1
  39   22   23 ar
  40   22   50 1
  41   25   26 ar
  42   25   30 ar
  43   26   27 ar
  44   26   31 1
  45   27   28 ar
  46   27   37 1
  47   28   29 ar
  48   28   51 1
  49   29   30 ar
  50   29   36 1
  51   30   52 1
  52   31   32 1
  53   32   33 1
  54   32   53 1
  55   32   54 1
  56   33   34 1
  57   33   35 1
  58   33   55 1
  59   38   56 1
  60   38   57 1
  61   38   58 1

#	End of record

