#	Name: ASD13530001
#	Creating user name:	WinNT
#	Creation time:	15. 06. 2019 21:30

#	Modifying user name:	WinNT
#	Modification time:	15. 06. 2019 21:30

#	Program:	/corina/corina34_cracker 3.40 0067  02.08.2006

@<TRIPOS>MOLECULE
ASD13530001
  69   75    0    0    0
SMALL
NO_CHARGES


@<TRIPOS>ATOM
   1 C1            -0.0161     1.3379     0.0094 C.2     
   2 N2             0.0021    -0.0041     0.0020 N.2     
   3 C3             1.1348    -0.6733    -0.0124 C.2     
   4 N4             2.3464    -0.0585    -0.0207 N.pl3   
   5 C5             2.4334     1.3099    -0.0141 C.2     
   6 C6             1.2617     2.0568     0.0011 C.2     
   7 N7             3.4591     2.2044    -0.0184 N.pl3   
   8 C8             2.9138     3.4546    -0.0061 C.2     
   9 N9             1.6148     3.3632     0.0051 N.2     
  10 C10            4.8862     1.8836    -0.0330 C.3     
  11 O11            5.6284     2.9797    -0.5698 O.3     
  12 C12            6.8940     3.0677     0.0915 C.3     
  13 C13            6.7724     2.3320     1.4357 C.3     
  14 C14            5.3868     1.6543     1.4005 C.3     
  15 O15            7.2315     4.4348     0.3163 O.3     
  16 P16            7.7326     5.4311    -0.8439 P.3     
  17 P17            9.5018     1.9863     1.2777 P.3     
  18 O18           -1.0743     1.9472     0.0177 O.2     
  19 N19            1.0908    -2.0418    -0.0189 N.pl3   
  20 O20            4.5054     2.2648     2.3428 O.3     
  21 O21            8.7956     6.4757    -0.2414 O.3     
  22 O22            9.5390     3.5134     1.7968 O.3     
  23 C23           10.1640     6.1590     0.0191 C.3     
  24 C24           10.3371     5.8013     1.4925 C.3     
  25 C25           10.7109     4.3165     1.6476 C.3     
  26 C26           11.5265     6.5423     2.1332 C.3     
  27 C27           12.2311     5.4678     2.9837 C.3     
  28 O28           11.5344     4.2291     2.8152 O.3     
  29 N29           13.6140     5.3158     2.5260 N.pl3   
  30 C30           14.6780     6.0692     2.9163 C.2     
  31 C31           15.7815     5.5734     2.2327 C.2     
  32 N32           15.3520     4.5482     1.4608 N.2     
  33 C33           14.0713     4.3895     1.6354 C.2     
  34 O34            9.8315     1.9533    -0.2979 O.3     
  35 O35           10.5267     1.2033     2.0069 O.2     
  36 O36            8.4145     4.5817    -2.0284 O.3     
  37 O37            6.5702     6.1761    -1.3839 O.2     
  38 O38           12.4273     7.0371     1.1422 O.3     
  39 N39           14.8499     7.1247     3.7745 N.pl3   
  40 C40           16.0787     7.6764     3.9528 C.2     
  41 N41           17.1488     7.2379     3.3254 N.2     
  42 C42           17.0820     6.2087     2.4664 C.2     
  43 N43           16.2083     8.7294     4.8183 N.pl3   
  44 O44           18.0828     5.8108     1.8910 O.2     
  45 C45            7.8587     1.2660     1.5780 C.3     
  46 H46            3.1564    -0.5920    -0.0309 H       
  47 H47            3.4734     4.3783    -0.0053 H       
  48 H48            5.0618     0.9900    -0.6344 H       
  49 H49            7.6517     2.5918    -0.5240 H       
  50 H50            6.8194     3.0420     2.2659 H       
  51 H51            5.4874     0.5915     1.6016 H       
  52 H52            0.2357    -2.4996    -0.0128 H       
  53 H53            1.9149    -2.5534    -0.0295 H       
  54 H54            3.6053     1.9120     2.3252 H       
  55 H55           10.4659     5.3111    -0.5988 H       
  56 H56           10.7785     7.0219    -0.2400 H       
  57 H57            9.4200     6.0156     2.0454 H       
  58 H58           11.2766     3.9861     0.7756 H       
  59 H59           11.1729     7.3513     2.7708 H       
  60 H60           12.2193     5.7605     4.0326 H       
  61 H61           13.4642     3.6410     1.1480 H       
  62 H62           10.6997     2.3132    -0.5257 H       
  63 H63            8.7398     5.1210    -2.7622 H       
  64 H64           13.1893     7.5096     1.5042 H       
  65 H65           14.0881     7.4807     4.2580 H       
  66 H66           15.4313     9.0677     5.2904 H       
  67 H67           17.0770     9.1371     4.9594 H       
  68 H68            7.8210     0.8447     2.5858 H       
  69 H69            7.6726     0.4699     0.8545 H       
@<TRIPOS>BOND
   1    1    2 1
   2    1    6 1
   3    1   18 2
   4    2    3 2
   5    3    4 1
   6    3   19 1
   7    4    5 1
   8    4   46 1
   9    5    7 1
  10    5    6 2
  11    6    9 1
  12    7    8 1
  13    7   10 1
  14    8    9 2
  15    8   47 1
  16   10   11 1
  17   10   14 1
  18   10   48 1
  19   11   12 1
  20   12   15 1
  21   12   13 1
  22   12   49 1
  23   13   14 1
  24   13   45 1
  25   13   50 1
  26   14   20 1
  27   14   51 1
  28   15   16 1
  29   16   21 1
  30   16   36 1
  31   16   37 2
  32   17   22 1
  33   17   34 1
  34   17   35 2
  35   17   45 1
  36   19   52 1
  37   19   53 1
  38   20   54 1
  39   21   23 1
  40   22   25 1
  41   23   24 1
  42   23   55 1
  43   23   56 1
  44   24   26 1
  45   24   25 1
  46   24   57 1
  47   25   28 1
  48   25   58 1
  49   26   27 1
  50   26   38 1
  51   26   59 1
  52   27   28 1
  53   27   29 1
  54   27   60 1
  55   29   30 1
  56   29   33 1
  57   30   39 1
  58   30   31 2
  59   31   32 1
  60   31   42 1
  61   32   33 2
  62   33   61 1
  63   34   62 1
  64   36   63 1
  65   38   64 1
  66   39   40 1
  67   39   65 1
  68   40   41 2
  69   40   43 1
  70   41   42 1
  71   42   44 2
  72   43   66 1
  73   43   67 1
  74   45   68 1
  75   45   69 1

#	End of record

