#	Name: ASD11810003
#	Creating user name:	WinNT
#	Creation time:	15. 06. 2019 21:29

#	Modifying user name:	WinNT
#	Modification time:	15. 06. 2019 21:29

#	Program:	/corina/corina34_cracker 3.40 0067  02.08.2006

@<TRIPOS>MOLECULE
ASD11810003
  47   49    0    0    0
SMALL
NO_CHARGES


@<TRIPOS>ATOM
   1 C1             0.3341     2.6601    -0.8785 C.ar    
   2 C2             0.4227     1.8076    -1.9691 C.ar    
   3 N3             1.4932     3.0421    -0.1893 N.am    
   4 C4             2.5748     2.2379    -0.1920 C.2     
   5 N5             3.7272     2.6564     0.3676 N.am    
   6 C6             4.8188     1.7854     0.4562 C.ar    
   7 C7             6.1120     2.2755     0.3307 C.ar    
   8 C8             7.1873     1.4131     0.4186 C.ar    
   9 C9             6.9771     0.0630     0.6314 C.ar    
  10 C10            5.6906    -0.4281     0.7568 C.ar    
  11 C11            4.6113     0.4299     0.6755 C.ar    
  12 S12            8.3516    -1.0339     0.7424 S.o2    
  13 N13            8.7043    -1.2166     2.3500 N.am    
  14 C14            9.0783    -0.1083     3.1133 C.ar    
  15 C15            8.5320     0.0837     4.3760 C.ar    
  16 C16            8.9043     1.1803     5.1283 C.ar    
  17 C17            9.8199     2.0868     4.6259 C.ar    
  18 C18           10.3657     1.8987     3.3693 C.ar    
  19 C19           10.0018     0.8013     2.6139 C.ar    
  20 O20            7.8932    -2.2990     0.2858 O.2     
  21 O21            9.4564    -0.3525     0.1641 O.2     
  22 O22            2.5108     1.1347    -0.6994 O.2     
  23 C23           -0.7216     1.4322    -2.6471 C.ar    
  24 C24           -1.9562     1.9045    -2.2411 C.ar    
  25 C25           -2.0522     2.7545    -1.1550 C.ar    
  26 C26           -0.9092     3.1401    -0.4736 C.ar    
  27 O27           -1.0020     3.9761     0.5949 O.3     
  28 C28           -2.3106     4.4189     0.9604 C.3     
  29 H29            1.3857     1.4375    -2.2886 H       
  30 H30            1.5170     3.8853     0.2896 H       
  31 H31            3.7999     3.5615     0.7089 H       
  32 H32            6.2768     3.3297     0.1642 H       
  33 H33            8.1933     1.7936     0.3208 H       
  34 H34            5.5297    -1.4831     0.9229 H       
  35 H35            3.6068     0.0457     0.7739 H       
  36 H36            8.6512    -2.0934     2.7616 H       
  37 H37            7.8166    -0.6237     4.7688 H       
  38 H38            8.4797     1.3304     6.1099 H       
  39 H39           10.1091     2.9437     5.2162 H       
  40 H40           11.0805     2.6085     2.9800 H       
  41 H41           10.4287     0.6548     1.6327 H       
  42 H42           -0.6514     0.7687    -3.4963 H       
  43 H43           -2.8477     1.6089    -2.7741 H       
  44 H44           -3.0179     3.1216    -0.8404 H       
  45 H45           -2.7576     4.9593     0.1259 H       
  46 H46           -2.9298     3.5568     1.2084 H       
  47 H47           -2.2425     5.0783     1.8256 H       
@<TRIPOS>BOND
   1    1    2 ar
   2    1    3 1
   3    1   26 ar
   4    2   23 ar
   5    2   29 1
   6    3    4 am
   7    3   30 1
   8    4    5 am
   9    4   22 2
  10    5    6 1
  11    5   31 1
  12    6    7 ar
  13    6   11 ar
  14    7    8 ar
  15    7   32 1
  16    8    9 ar
  17    8   33 1
  18    9   10 ar
  19    9   12 1
  20   10   11 ar
  21   10   34 1
  22   11   35 1
  23   12   13 am
  24   12   20 2
  25   12   21 2
  26   13   14 1
  27   13   36 1
  28   14   15 ar
  29   14   19 ar
  30   15   16 ar
  31   15   37 1
  32   16   17 ar
  33   16   38 1
  34   17   18 ar
  35   17   39 1
  36   18   19 ar
  37   18   40 1
  38   19   41 1
  39   23   24 ar
  40   23   42 1
  41   24   25 ar
  42   24   43 1
  43   25   26 ar
  44   25   44 1
  45   26   27 1
  46   27   28 1
  47   28   45 1
  48   28   46 1
  49   28   47 1

#	End of record

