#	Name: ASD10410239
#	Creating user name:	WinNT
#	Creation time:	15. 06. 2019 21:27

#	Modifying user name:	WinNT
#	Modification time:	15. 06. 2019 21:27

#	Program:	/corina/corina34_cracker 3.40 0067  02.08.2006

@<TRIPOS>MOLECULE
ASD10410239
  52   55    0    0    0
SMALL
NO_CHARGES


@<TRIPOS>ATOM
   1 C1            -0.0183     1.3926    -0.0800 C.ar    
   2 C2            -0.0058     0.0095     0.0248 C.ar    
   3 C3             1.2006    -0.6691     0.1149 C.ar    
   4 C4             2.3904     0.0319     0.1004 C.ar    
   5 C5             2.3788     1.4166    -0.0050 C.ar    
   6 C6             1.1705     2.0952    -0.0952 C.ar    
   7 O7            -1.1769    -0.6815     0.0396 O.3     
   8 N8             3.5843     2.1280    -0.0193 N.pl3   
   9 C9             3.6716     3.3382    -0.7067 C.2     
  10 N10            4.7102     4.1385    -0.7075 N.2     
  11 N11            2.7108     3.8649    -1.4752 N.2     
  12 C12            3.1198     5.0119    -1.9733 C.2     
  13 N13            4.3820     5.2363    -1.5195 N.pl3   
  14 C14            5.1881     6.3359    -1.8028 C.ar    
  15 N15            2.3974     5.8388    -2.8114 N.pl3   
  16 N16            4.7229     7.2914    -2.5923 N.ar    
  17 N17            6.3987     6.4030    -1.2718 N.ar    
  18 C18            5.4620     8.3492    -2.8817 C.ar    
  19 C19            6.7374     8.4493    -2.3472 C.ar    
  20 C20            7.1902     7.4334    -1.5202 C.ar    
  21 C21           -1.0898    -2.1036     0.1497 C.3     
  22 C22           -2.4977    -2.7024     0.1500 C.3     
  23 N23           -3.1368    -2.4516    -1.1488 N.3     
  24 C24           -3.0082    -1.0308    -1.5370 C.3     
  25 C25           -4.5690    -2.7996    -1.1089 C.3     
  26 C26           -5.3577    -1.5372    -1.5159 C.3     
  27 C27           -4.3116    -0.7128    -2.3113 C.3     
  28 C28            8.5692     7.4991    -0.9160 C.3     
  29 F29            8.5066     8.1541     0.3186 F       
  30 F30            9.0597     6.2020    -0.7314 F       
  31 F31            9.4214     8.2022    -1.7742 F       
  32 H32           -0.9580     1.9199    -0.1543 H       
  33 H33            1.2095    -1.7459     0.1968 H       
  34 H34            3.3296    -0.4966     0.1713 H       
  35 H35            1.1605     3.1720    -0.1775 H       
  36 H36            4.3589     1.7791     0.4489 H       
  37 H37            1.5002     5.5897    -3.0833 H       
  38 H38            2.7872     6.6687    -3.1281 H       
  39 H39            5.0771     9.1253    -3.5267 H       
  40 H40            7.3626     9.3021    -2.5669 H       
  41 H41           -0.5267    -2.4996    -0.6955 H       
  42 H42           -0.5833    -2.3657     1.0786 H       
  43 H43           -2.4356    -3.7768     0.3229 H       
  44 H44           -3.0887    -2.2406     0.9409 H       
  45 H45           -2.9299    -0.4009    -0.6509 H       
  46 H46           -2.1402    -0.8905    -2.1812 H       
  47 H47           -4.7740    -3.6074    -1.8114 H       
  48 H48           -4.8490    -3.1026    -0.1000 H       
  49 H49           -6.2046    -1.7996    -2.1500 H       
  50 H50           -5.6903    -0.9896    -0.6340 H       
  51 H51           -4.5403     0.3521    -2.2699 H       
  52 H52           -4.2463    -1.0567    -3.3435 H       
@<TRIPOS>BOND
   1    1    2 ar
   2    1    6 ar
   3    1   32 1
   4    2    3 ar
   5    2    7 1
   6    3    4 ar
   7    3   33 1
   8    4    5 ar
   9    4   34 1
  10    5    6 ar
  11    5    8 1
  12    6   35 1
  13    7   21 1
  14    8    9 1
  15    8   36 1
  16    9   10 2
  17    9   11 1
  18   10   13 1
  19   11   12 2
  20   12   13 1
  21   12   15 1
  22   13   14 1
  23   14   16 ar
  24   14   17 ar
  25   15   37 1
  26   15   38 1
  27   16   18 ar
  28   17   20 ar
  29   18   19 ar
  30   18   39 1
  31   19   20 ar
  32   19   40 1
  33   20   28 1
  34   21   22 1
  35   21   41 1
  36   21   42 1
  37   22   23 1
  38   22   43 1
  39   22   44 1
  40   23   25 1
  41   23   24 1
  42   24   27 1
  43   24   45 1
  44   24   46 1
  45   25   26 1
  46   25   47 1
  47   25   48 1
  48   26   27 1
  49   26   49 1
  50   26   50 1
  51   27   51 1
  52   27   52 1
  53   28   29 1
  54   28   30 1
  55   28   31 1

#	End of record

