#	Name: ASD11000279
#	Creating user name:	WinNT
#	Creation time:	15. 06. 2019 21:29

#	Modifying user name:	WinNT
#	Modification time:	15. 06. 2019 21:29

#	Program:	/corina/corina34_cracker 3.40 0067  02.08.2006

@<TRIPOS>MOLECULE
ASD11000279
  50   53    0    0    0
SMALL
NO_CHARGES


@<TRIPOS>ATOM
   1 N1            -0.0193     1.3456     0.0624 N.am    
   2 C2            -0.0020     0.0014     0.0489 C.2     
   3 C3             1.2086    -0.7235     0.0198 C.2     
   4 C4             2.3961    -0.0691     0.0048 C.2     
   5 C5             2.3887     1.3949     0.0194 C.ar    
   6 C6             3.5831     2.1232     0.0045 C.ar    
   7 C7             3.5399     3.5026     0.0184 C.ar    
   8 C8             2.3162     4.1678     0.0471 C.ar    
   9 C9             1.1339     3.4619     0.0620 C.ar    
  10 C10            1.1547     2.0710     0.0484 C.ar    
  11 O11           -1.0584    -0.6066     0.0624 O.2     
  12 O12            4.6974     4.2158     0.0045 O.3     
  13 C13            4.5821     5.6400     0.0202 C.3     
  14 C14            8.4045     7.3511    -0.0310 C.ar    
  15 N15            7.3455     8.1471    -0.0048 N.ar    
  16 C16            6.1188     7.6407     0.0118 C.ar    
  17 C17            5.9575     6.2556     0.0014 C.ar    
  18 C18            7.0873     5.4601    -0.0259 C.ar    
  19 N19            8.2819     6.0321    -0.0413 N.ar    
  20 O20            5.0384     8.4581     0.0389 O.3     
  21 C21            5.2892     9.8649     0.0484 C.3     
  22 N22            9.6705     7.9119    -0.0536 N.pl3   
  23 C23           10.8016     7.0912     0.0377 C.ar    
  24 C24           11.9591     7.4244    -0.6533 C.ar    
  25 C25           13.0742     6.6148    -0.5624 C.ar    
  26 C26           13.0381     5.4689     0.2185 C.ar    
  27 C27           11.8820     5.1352     0.9086 C.ar    
  28 C28           10.7681     5.9470     0.8237 C.ar    
  29 O29           14.1364     4.6720     0.3072 O.3     
  30 C30           14.0288     3.5080     1.1291 C.3     
  31 F31           13.7345     3.8901     2.4424 F       
  32 F32           13.0065     2.6864     0.6423 F       
  33 H33           -0.8694     1.8124     0.0783 H       
  34 H34            1.1891    -1.8032     0.0099 H       
  35 H35            3.3271    -0.6160    -0.0171 H       
  36 H36            4.5327     1.6093    -0.0174 H       
  37 H37            2.2946     5.2475     0.0581 H       
  38 H38            0.1909     3.9879     0.0846 H       
  39 H39            4.0248     5.9691    -0.8569 H       
  40 H40            4.0566     5.9521     0.9227 H       
  41 H41            6.9972     4.3839    -0.0342 H       
  42 H42            5.8745    10.1236     0.9308 H       
  43 H43            5.8431    10.1413    -0.8488 H       
  44 H44            4.3415    10.4028     0.0705 H       
  45 H45            9.7738     8.8732    -0.1327 H       
  46 H46           11.9872     8.3161    -1.2619 H       
  47 H47           13.9746     6.8738    -1.0997 H       
  48 H48           11.8544     4.2425     1.5159 H       
  49 H49            9.8695     5.6895     1.3646 H       
  50 H50           14.9724     2.9627     1.1121 H       
@<TRIPOS>BOND
   1    1    2 am
   2    1   10 1
   3    1   33 1
   4    2    3 1
   5    2   11 2
   6    3    4 2
   7    3   34 1
   8    4    5 1
   9    4   35 1
  10    5    6 ar
  11    5   10 ar
  12    6    7 ar
  13    6   36 1
  14    7    8 ar
  15    7   12 1
  16    8    9 ar
  17    8   37 1
  18    9   10 ar
  19    9   38 1
  20   12   13 1
  21   13   17 1
  22   13   39 1
  23   13   40 1
  24   14   15 ar
  25   14   19 ar
  26   14   22 1
  27   15   16 ar
  28   16   17 ar
  29   16   20 1
  30   17   18 ar
  31   18   19 ar
  32   18   41 1
  33   20   21 1
  34   21   42 1
  35   21   43 1
  36   21   44 1
  37   22   23 1
  38   22   45 1
  39   23   24 ar
  40   23   28 ar
  41   24   25 ar
  42   24   46 1
  43   25   26 ar
  44   25   47 1
  45   26   27 ar
  46   26   29 1
  47   27   28 ar
  48   27   48 1
  49   28   49 1
  50   29   30 1
  51   30   31 1
  52   30   32 1
  53   30   50 1

#	End of record

