#	Name: ASD11710013
#	Creating user name:	WinNT
#	Creation time:	15. 06. 2019 21:29

#	Modifying user name:	WinNT
#	Modification time:	15. 06. 2019 21:29

#	Program:	/corina/corina34_cracker 3.40 0067  02.08.2006

@<TRIPOS>MOLECULE
ASD11710013
  59   61    0    0    0
SMALL
NO_CHARGES


@<TRIPOS>ATOM
   1 C1             2.9655     5.4268     2.6498 C.ar    
   2 C2             2.0804     6.4877     2.6936 C.ar    
   3 C3             1.0293     6.5483     1.7978 C.ar    
   4 C4             0.8636     5.5483     0.8580 C.ar    
   5 C5             1.7492     4.4878     0.8136 C.ar    
   6 C6             2.7995     4.4265     1.7103 C.ar    
   7 C7             1.5683     3.3973    -0.2107 C.3     
   8 N8             2.3042     3.7447    -1.4289 N.am    
   9 C9             3.5871     3.3581    -1.5745 C.2     
  10 C10            4.2972     3.6161    -2.8454 C.ar    
  11 O11            4.1604     2.7975    -0.6610 O.2     
  12 C12            4.0313     4.7766    -3.5738 C.ar    
  13 C13            5.2405     2.7028    -3.3191 C.ar    
  14 C14            5.8999     2.9498    -4.5054 C.ar    
  15 C15            5.6282     4.0998    -5.2251 C.ar    
  16 C16            4.6977     5.0115    -4.7587 C.ar    
  17 S17            6.4757     4.4081    -6.7388 S.o2    
  18 N18            5.5056     3.8603    -7.9640 N.am    
  19 C19            5.1725     2.5059    -8.0387 C.ar    
  20 C20            3.8582     2.1244    -8.2781 C.ar    
  21 C21            6.1554     1.5376    -7.8794 C.ar    
  22 C22            5.8225     0.1991    -7.9537 C.ar    
  23 C23            4.5126    -0.1772    -8.1869 C.ar    
  24 C24            3.5323     0.7846    -8.3513 C.ar    
  25 O25            6.5426     5.8204    -6.8808 O.2     
  26 O26            7.6249     3.5722    -6.7326 O.2     
  27 C27            2.1060     0.3697    -8.6053 C.3     
  28 C28            2.0164    -1.1574    -8.6335 C.3     
  29 C29            1.2106     0.9126    -7.4897 C.3     
  30 C30            1.6429     0.9327    -9.9504 C.3     
  31 C31            1.6456     4.5121    -2.4889 C.3     
  32 H32            3.7893     5.3818     3.3467 H       
  33 H33            2.2098     7.2691     3.4279 H       
  34 H34            0.3373     7.3768     1.8325 H       
  35 H35            0.0419     5.5953     0.1586 H       
  36 H36            3.4916     3.5982     1.6754 H       
  37 H37            1.9492     2.4572     0.1883 H       
  38 H38            0.5090     3.2903    -0.4442 H       
  39 H39            3.3053     5.4890    -3.2108 H       
  40 H40            5.4540     1.8051    -2.7579 H       
  41 H41            6.6300     2.2440    -4.8731 H       
  42 H42            4.4902     5.9073    -5.3252 H       
  43 H43            5.1688     4.4800    -8.6299 H       
  44 H44            3.0923     2.8749    -8.4066 H       
  45 H45            7.1788     1.8309    -7.6979 H       
  46 H46            6.5863    -0.5544    -7.8299 H       
  47 H47            4.2552    -1.2244    -8.2453 H       
  48 H48            2.3463    -1.5585    -7.6752 H       
  49 H49            0.9847    -1.4575    -8.8172 H       
  50 H50            2.6543    -1.5442    -9.4283 H       
  51 H51            1.2745     2.0005    -7.4696 H       
  52 H52            0.1790     0.6125    -7.6734 H       
  53 H53            1.5405     0.5114    -6.5314 H       
  54 H54            2.2808     0.5460   -10.7452 H       
  55 H55            0.6113     0.6326   -10.1341 H       
  56 H56            1.7068     2.0207    -9.9303 H       
  57 H57            1.8191     5.5762    -2.3284 H       
  58 H58            2.0533     4.2193    -3.4564 H       
  59 H59            0.5743     4.3118    -2.4704 H       
@<TRIPOS>BOND
   1    1    2 ar
   2    1    6 ar
   3    1   32 1
   4    2    3 ar
   5    2   33 1
   6    3    4 ar
   7    3   34 1
   8    4    5 ar
   9    4   35 1
  10    5    6 ar
  11    5    7 1
  12    6   36 1
  13    7    8 1
  14    7   37 1
  15    7   38 1
  16    8    9 am
  17    8   31 1
  18    9   10 1
  19    9   11 2
  20   10   12 ar
  21   10   13 ar
  22   12   16 ar
  23   12   39 1
  24   13   14 ar
  25   13   40 1
  26   14   15 ar
  27   14   41 1
  28   15   16 ar
  29   15   17 1
  30   16   42 1
  31   17   18 am
  32   17   25 2
  33   17   26 2
  34   18   19 1
  35   18   43 1
  36   19   20 ar
  37   19   21 ar
  38   20   24 ar
  39   20   44 1
  40   21   22 ar
  41   21   45 1
  42   22   23 ar
  43   22   46 1
  44   23   24 ar
  45   23   47 1
  46   24   27 1
  47   27   28 1
  48   27   29 1
  49   27   30 1
  50   28   48 1
  51   28   49 1
  52   28   50 1
  53   29   51 1
  54   29   52 1
  55   29   53 1
  56   30   54 1
  57   30   55 1
  58   30   56 1
  59   31   57 1
  60   31   58 1
  61   31   59 1

#	End of record

