#	Name: ASD10030004
#	Creating user name:	WinNT
#	Creation time:	15. 06. 2019 21:24

#	Modifying user name:	WinNT
#	Modification time:	15. 06. 2019 21:24

#	Program:	/corina/corina34_cracker 3.40 0067  02.08.2006

@<TRIPOS>MOLECULE
ASD10030004
  25   25    0    0    0
SMALL
NO_CHARGES


@<TRIPOS>ATOM
   1 C1            -0.0172     1.4135     0.0098 C.2     
   2 C2             0.0021    -0.0041     0.0020 C.2     
   3 C3             1.1811    -0.6636    -0.0128 C.2     
   4 O4             1.0280     2.0360     0.0032 O.2     
   5 O5            -1.1947     2.0722     0.0190 O.3     
   6 C6             1.2010    -2.1330    -0.0209 C.ar    
   7 C7            -0.0006    -2.8510    -0.0132 C.ar    
   8 C8             0.0221    -4.2323    -0.0208 C.ar    
   9 C9             1.2387    -4.9106    -0.0356 C.ar    
  10 C10            2.4362    -4.1997    -0.0427 C.ar    
  11 C11            2.4213    -2.8178    -0.0420 C.ar    
  12 O12            3.6216    -4.8661    -0.0567 O.3     
  13 C13            4.8110    -4.0742    -0.0634 C.3     
  14 O14            1.2572    -6.2695    -0.0426 O.3     
  15 O15           -1.1448    -4.9308    -0.0134 O.3     
  16 H16           -0.9258    -0.5567     0.0079 H       
  17 H17            2.1090    -0.1109    -0.0187 H       
  18 H18           -1.1067     3.0352     0.0238 H       
  19 H19           -0.9442    -2.3258    -0.0011 H       
  20 H20            3.3503    -2.2671    -0.0524 H       
  21 H21            5.6830    -4.7282    -0.0744 H       
  22 H22            4.8208    -3.4406    -0.9503 H       
  23 H23            4.8367    -3.4496     0.8296 H       
  24 H24            1.2543    -6.6584    -0.9279 H       
  25 H25           -1.4907    -5.1281    -0.8947 H       
@<TRIPOS>BOND
   1    1    2 1
   2    1    4 2
   3    1    5 1
   4    2    3 2
   5    2   16 1
   6    3    6 1
   7    3   17 1
   8    5   18 1
   9    6    7 ar
  10    6   11 ar
  11    7    8 ar
  12    7   19 1
  13    8    9 ar
  14    8   15 1
  15    9   10 ar
  16    9   14 1
  17   10   11 ar
  18   10   12 1
  19   11   20 1
  20   12   13 1
  21   13   21 1
  22   13   22 1
  23   13   23 1
  24   14   24 1
  25   15   25 1

#	End of record

