#	Name: ASD11030031
#	Creating user name:	WinNT
#	Creation time:	15. 06. 2019 21:29

#	Modifying user name:	WinNT
#	Modification time:	15. 06. 2019 21:29

#	Program:	/corina/corina34_cracker 3.40 0067  02.08.2006

@<TRIPOS>MOLECULE
ASD11030031
  82   84    0    0    0
SMALL
NO_CHARGES


@<TRIPOS>ATOM
   1 O1            -0.3209    -0.4919    -0.2372 O.2     
   2 C2            -0.1401     0.6473    -0.6218 C.2     
   3 N3             1.0599     1.0086    -1.1177 N.am    
   4 C4             2.1464     0.0288    -1.1933 C.3     
   5 C5             1.7170    -1.1414    -2.0804 C.3     
   6 C6             3.3900     0.6913    -1.7895 C.3     
   7 C7             2.4669    -0.4867     0.2112 C.3     
   8 N8            -1.1414     1.5472    -0.5574 N.am    
   9 C9            -2.4475     1.1528    -0.0240 C.3     
  10 C10           -2.4344     1.2772     1.5009 C.3     
  11 C11           -2.0141     2.6950     1.8933 C.3     
  12 C12           -3.8341     0.9904     2.0481 C.3     
  13 C13           -1.4418     0.2706     2.0862 C.3     
  14 C14           -3.5147     2.0525    -0.5922 C.2     
  15 O15           -3.2575     3.2087    -0.8527 O.2     
  16 N16           -4.7548     1.5722    -0.8108 N.am    
  17 C17           -5.2845     0.2325    -0.4654 C.3     
  18 C18           -6.1685    -0.1591    -1.6690 C.3     
  19 C19           -6.5727     1.1805    -2.3190 C.3     
  20 C20           -5.8994     2.2665    -1.4453 C.3     
  21 C21           -6.8619     2.7729    -0.4021 C.2     
  22 O22           -6.7944     2.3602     0.7364 O.2     
  23 N23           -7.7975     3.6843    -0.7342 N.am    
  24 C24           -8.7331     4.1765     0.2800 C.3     
  25 C25           -8.0999     5.3154     1.0370 C.2     
  26 O26           -7.1688     5.9161     0.5566 O.2     
  27 C27           -8.6228     5.7004     2.3791 C.2     
  28 O28           -9.5584     5.0967     2.8619 O.2     
  29 N29           -8.0565     6.7189     3.0561 N.am    
  30 C30          -10.0127     4.6660    -0.4013 C.3     
  31 C31          -10.7210     3.4838    -1.0657 C.3     
  32 C32          -12.0845     3.8471    -1.6771 C.3     
  33 C33          -11.7117     2.9317    -2.8553 C.3     
  34 C34          -10.2407     3.2045    -2.4996 C.3     
  35 C35           -5.6748     0.1973    -3.0726 C.3     
  36 C36           -4.1984     0.5674    -3.2280 C.3     
  37 C37           -6.2913    -0.5602    -4.2504 C.3     
  38 H38            1.2041     1.9174    -1.4245 H       
  39 H39            1.4887    -0.7742    -3.0810 H       
  40 H40            2.5254    -1.8704    -2.1367 H       
  41 H41            0.8311    -1.6134    -1.6557 H       
  42 H42            3.6959     1.5250    -1.1574 H       
  43 H43            4.1984    -0.0377    -1.8457 H       
  44 H44            3.1617     1.0586    -2.7900 H       
  45 H45            1.5809    -0.9586     0.6359 H       
  46 H46            3.2753    -1.2157     0.1550 H       
  47 H47            2.7727     0.3470     0.8432 H       
  48 H48           -0.9971     2.4560    -0.8643 H       
  49 H49           -2.6569     0.1200    -0.3025 H       
  50 H50           -2.7212     3.4121     1.4764 H       
  51 H51           -2.0047     2.7837     2.9797 H       
  52 H52           -1.0169     2.8994     1.5035 H       
  53 H53           -4.1629     0.0083     1.7082 H       
  54 H54           -3.8089     1.0081     3.1377 H       
  55 H55           -4.5277     1.7504     1.6883 H       
  56 H56           -0.4446     0.4750     1.6963 H       
  57 H57           -1.4324     0.3593     3.1725 H       
  58 H58           -1.7413    -0.7395     1.8066 H       
  59 H59           -4.4681    -0.4797    -0.3457 H       
  60 H60           -5.8823     0.2833     0.4446 H       
  61 H61           -6.8848    -0.9685    -1.5277 H       
  62 H62           -7.5901     1.3690    -2.6618 H       
  63 H63           -5.5445     3.0884    -2.0671 H       
  64 H64           -7.8515     4.0143    -1.6447 H       
  65 H65           -8.9757     3.3704     0.9723 H       
  66 H66           -7.3087     7.2014     2.6703 H       
  67 H67           -8.3967     6.9694     3.9293 H       
  68 H68          -10.6720     5.1133     0.3425 H       
  69 H69           -9.7602     5.4097    -1.1571 H       
  70 H70          -10.7488     2.5969    -0.4326 H       
  71 H71          -12.9335     3.4871    -1.0960 H       
  72 H72          -12.1736     4.8981    -1.9520 H       
  73 H73          -12.0101     1.8931    -2.7126 H       
  74 H74          -12.0069     3.3283    -3.8267 H       
  75 H75           -9.8258     4.0799    -2.9993 H       
  76 H76           -9.6012     2.3257    -2.5825 H       
  77 H77           -3.7452     0.6749    -2.2425 H       
  78 H78           -3.6832    -0.2180    -3.7811 H       
  79 H79           -4.1150     1.5088    -3.7710 H       
  80 H80           -6.6334     0.1520    -5.0013 H       
  81 H81           -5.5431    -1.2200    -4.6897 H       
  82 H82           -7.1365    -1.1521    -3.8993 H       
@<TRIPOS>BOND
   1    1    2 2
   2    2    3 am
   3    2    8 am
   4    3    4 1
   5    3   38 1
   6    4    5 1
   7    4    6 1
   8    4    7 1
   9    5   39 1
  10    5   40 1
  11    5   41 1
  12    6   42 1
  13    6   43 1
  14    6   44 1
  15    7   45 1
  16    7   46 1
  17    7   47 1
  18    8    9 1
  19    8   48 1
  20    9   10 1
  21    9   14 1
  22    9   49 1
  23   10   11 1
  24   10   12 1
  25   10   13 1
  26   11   50 1
  27   11   51 1
  28   11   52 1
  29   12   53 1
  30   12   54 1
  31   12   55 1
  32   13   56 1
  33   13   57 1
  34   13   58 1
  35   14   15 2
  36   14   16 am
  37   16   17 1
  38   16   20 1
  39   17   18 1
  40   17   59 1
  41   17   60 1
  42   18   19 1
  43   18   35 1
  44   18   61 1
  45   19   20 1
  46   19   35 1
  47   19   62 1
  48   20   21 1
  49   20   63 1
  50   21   22 2
  51   21   23 am
  52   23   24 1
  53   23   64 1
  54   24   25 1
  55   24   30 1
  56   24   65 1
  57   25   26 2
  58   25   27 1
  59   27   28 2
  60   27   29 am
  61   29   66 1
  62   29   67 1
  63   30   31 1
  64   30   68 1
  65   30   69 1
  66   31   32 1
  67   31   34 1
  68   31   70 1
  69   32   33 1
  70   32   71 1
  71   32   72 1
  72   33   34 1
  73   33   73 1
  74   33   74 1
  75   34   75 1
  76   34   76 1
  77   35   36 1
  78   35   37 1
  79   36   77 1
  80   36   78 1
  81   36   79 1
  82   37   80 1
  83   37   81 1
  84   37   82 1

#	End of record

