#	Name: ASD10410039
#	Creating user name:	WinNT
#	Creation time:	15. 06. 2019 21:26

#	Modifying user name:	WinNT
#	Modification time:	15. 06. 2019 21:26

#	Program:	/corina/corina34_cracker 3.40 0067  02.08.2006

@<TRIPOS>MOLECULE
ASD10410039
  59   62    0    0    0
SMALL
NO_CHARGES


@<TRIPOS>ATOM
   1 C1             0.3357     0.6286     0.1930 C.1     
   2 C2             0.2436     1.9159    -0.4275 C.ar    
   3 C3             1.3685     2.4854    -1.0296 C.ar    
   4 C4             1.2801     3.7263    -1.6272 C.ar    
   5 C5             0.0809     4.4121    -1.6346 C.ar    
   6 C6            -1.0493     3.8547    -1.0372 C.ar    
   7 C7            -0.9701     2.6017    -0.4376 C.ar    
   8 N8             0.4088    -0.3926     0.6853 N.1     
   9 C9            -4.6384     4.5975    -1.1604 C.ar    
  10 N10           -3.4895     3.9400    -1.1524 N.ar    
  11 C11           -2.3352     4.5938    -1.0464 C.ar    
  12 C12           -2.3533     5.9874    -0.9433 C.ar    
  13 C13           -3.5767     6.6333    -0.9558 C.ar    
  14 N14           -4.6853     5.9183    -1.0642 N.ar    
  15 N15           -5.8219     3.8869    -1.2780 N.pl3   
  16 C16           -7.0485     4.5491    -1.1704 C.ar    
  17 C17           -8.1334     4.1329    -1.9314 C.ar    
  18 C18           -9.3437     4.7889    -1.8223 C.ar    
  19 C19           -9.4764     5.8590    -0.9566 C.ar    
  20 C20           -8.3982     6.2763    -0.1978 C.ar    
  21 C21           -7.1866     5.6211    -0.2979 C.ar    
  22 C22          -10.7987     6.5725    -0.8402 C.3     
  23 N23          -11.6064     5.9383     0.2103 N.3     
  24 C24          -12.7968     6.7434     0.5175 C.3     
  25 C25          -13.6502     6.0116     1.5561 C.3     
  26 N26          -12.8500     5.7769     2.7662 N.3     
  27 C27          -11.6597     4.9718     2.4590 C.3     
  28 C28          -10.8063     5.7036     1.4203 C.3     
  29 C29          -13.6578     5.1427     3.8166 C.3     
  30 C30           -1.0703     6.7683    -0.8209 C.3     
  31 C31            2.6804     1.7438    -1.0259 C.3     
  32 H32            2.1523     4.1631    -2.0908 H       
  33 H33            0.0186     5.3828    -2.1041 H       
  34 H34           -1.8439     2.1643     0.0224 H       
  35 H35           -3.6266     7.7093    -0.8777 H       
  36 H36           -5.7994     2.9300    -1.4351 H       
  37 H37           -8.0303     3.2974    -2.6080 H       
  38 H38          -10.1875     4.4660    -2.4140 H       
  39 H39           -8.5050     7.1126     0.4771 H       
  40 H40           -6.3463     5.9443     0.2986 H       
  41 H41          -10.6262     7.6179    -0.5845 H       
  42 H42          -11.3283     6.5136    -1.7910 H       
  43 H43          -12.4891     7.7103     0.9157 H       
  44 H44          -13.3793     6.8929    -0.3916 H       
  45 H45          -14.5189     6.6203     1.8070 H       
  46 H46          -13.9806     5.0566     1.1476 H       
  47 H47          -11.0772     4.8223     3.3681 H       
  48 H48          -11.9674     4.0049     2.0608 H       
  49 H49           -9.9375     5.0949     1.1694 H       
  50 H50          -10.4759     6.6586     1.8288 H       
  51 H51          -14.0357     4.1859     3.4564 H       
  52 H52          -13.0413     4.9803     4.7007 H       
  53 H53          -14.4957     5.7914     4.0720 H       
  54 H54           -0.7097     7.0329    -1.8149 H       
  55 H55           -1.2512     7.6767    -0.2463 H       
  56 H56           -0.3218     6.1601    -0.3129 H       
  57 H57            2.7465     1.1178    -1.9157 H       
  58 H58            3.5024     2.4597    -1.0235 H       
  59 H59            2.7414     1.1177    -0.1358 H       
@<TRIPOS>BOND
   1    1    2 1
   2    1    8 3
   3    2    3 ar
   4    2    7 ar
   5    3    4 ar
   6    3   31 1
   7    4    5 ar
   8    4   32 1
   9    5    6 ar
  10    5   33 1
  11    6    7 ar
  12    6   11 1
  13    7   34 1
  14    9   10 ar
  15    9   14 ar
  16    9   15 1
  17   10   11 ar
  18   11   12 ar
  19   12   13 ar
  20   12   30 1
  21   13   14 ar
  22   13   35 1
  23   15   16 1
  24   15   36 1
  25   16   17 ar
  26   16   21 ar
  27   17   18 ar
  28   17   37 1
  29   18   19 ar
  30   18   38 1
  31   19   20 ar
  32   19   22 1
  33   20   21 ar
  34   20   39 1
  35   21   40 1
  36   22   23 1
  37   22   41 1
  38   22   42 1
  39   23   24 1
  40   23   28 1
  41   24   25 1
  42   24   43 1
  43   24   44 1
  44   25   26 1
  45   25   45 1
  46   25   46 1
  47   26   27 1
  48   26   29 1
  49   27   28 1
  50   27   47 1
  51   27   48 1
  52   28   49 1
  53   28   50 1
  54   29   51 1
  55   29   52 1
  56   29   53 1
  57   30   54 1
  58   30   55 1
  59   30   56 1
  60   31   57 1
  61   31   58 1
  62   31   59 1

#	End of record

