#	Name: ASD11030055
#	Creating user name:	WinNT
#	Creation time:	15. 06. 2019 21:29

#	Modifying user name:	WinNT
#	Modification time:	15. 06. 2019 21:29

#	Program:	/corina/corina34_cracker 3.40 0067  02.08.2006

@<TRIPOS>MOLECULE
ASD11030055
  83   88    0    0    0
SMALL
NO_CHARGES


@<TRIPOS>ATOM
   1 C1             3.1394     4.5941    -6.5260 C.ar    
   2 C2             2.0938     3.7201    -6.2531 C.ar    
   3 C3             2.0679     3.0497    -5.0403 C.ar    
   4 N4             3.0188     3.2308    -4.1477 N.ar    
   5 C5             4.0348     4.0571    -4.3703 C.ar    
   6 C6             4.1244     4.7645    -5.5695 C.ar    
   7 C7             5.0792     4.2289    -3.3384 C.2     
   8 C8             5.4579     3.2849    -2.4399 C.2     
   9 C9             6.4795     3.8407    -1.6325 C.ar    
  10 C10            6.6912     5.1568    -2.0910 C.ar    
  11 N11            5.8237     5.3685    -3.1421 N.pl3   
  12 C12            7.2358     3.3424    -0.5618 C.ar    
  13 C13            8.1730     4.1290     0.0343 C.ar    
  14 C14            8.3903     5.4399    -0.4147 C.ar    
  15 C15            7.6484     5.9506    -1.4774 C.ar    
  16 C16            5.7076     6.6070    -3.9160 C.3     
  17 C17            4.8915     1.8933    -2.3223 C.3     
  18 C18            9.4091     6.2819     0.2417 C.2     
  19 N19           10.1284     5.7908     1.2703 N.am    
  20 O20            9.5997     7.4187    -0.1454 O.2     
  21 C21           11.2153     6.5845     1.8490 C.3     
  22 C22           10.7285     7.8459     2.5147 C.2     
  23 N23            9.5298     7.8633     3.1306 N.am    
  24 O24           11.4153     8.8452     2.4961 O.2     
  25 C25            9.1084     9.0097     3.8039 C.ar    
  26 C26            9.3781    10.2669     3.2683 C.ar    
  27 C27            8.9705    11.3962     3.9183 C.ar    
  28 C28            8.2769    11.2965     5.1309 C.ar    
  29 C29            8.0028    10.0289     5.6748 C.ar    
  30 C30            8.4164     8.8926     5.0030 C.ar    
  31 C31           12.1827     5.7634     2.7177 C.3     
  32 C32           13.3195     6.5913     2.0957 C.3     
  33 C33           12.3928     6.8111     0.8862 C.3     
  34 C34            7.8388    12.5087     5.8308 C.2     
  35 C35            8.1045    13.7267     5.3051 C.2     
  36 C36            6.0042     0.8518    -2.5342 C.3     
  37 C37            6.0900     0.0276    -1.2330 C.3     
  38 C38            4.6914     0.1898    -0.5877 C.3     
  39 C39            4.3401     1.6658    -0.8996 C.3     
  40 F40            1.1121     3.5263    -7.1608 F       
  41 O41            7.3315     9.9209     6.8489 O.3     
  42 C42            6.3269     8.6796     8.6629 C.3     
  43 C43            7.0898     8.6005     7.3390 C.3     
  44 C44            7.6816    14.8967     5.9806 C.2     
  45 O45            7.0792    14.8069     7.0339 O.2     
  46 O46            7.9466    16.1117     5.4562 O.3     
  47 H47            3.1844     5.1248    -7.4655 H       
  48 H48            1.2568     2.3700    -4.8244 H       
  49 H49            4.9514     5.4355    -5.7488 H       
  50 H50            7.0742     2.3342    -0.2099 H       
  51 H51            8.7529     3.7413     0.8588 H       
  52 H52            7.8176     6.9602    -1.8215 H       
  53 H53            6.3098     6.5276    -4.8211 H       
  54 H54            4.6644     6.7697    -4.1869 H       
  55 H55            6.0622     7.4450    -3.3159 H       
  56 H56            4.1001     1.7492    -3.0578 H       
  57 H57            9.9264     4.9118     1.6274 H       
  58 H58            8.9603     7.0785     3.1057 H       
  59 H59            9.9130    10.3489     2.3336 H       
  60 H60            9.1836    12.3676     3.4971 H       
  61 H61            8.2091     7.9157     5.4144 H       
  62 H62           12.0567     5.9292     3.7876 H       
  63 H63           12.2171     4.7065     2.4533 H       
  64 H64           13.5439     7.5063     2.6441 H       
  65 H65           14.2096     6.0063     1.8643 H       
  66 H66           12.4842     6.0408     0.1204 H       
  67 H67           12.4380     7.8213     0.4793 H       
  68 H68            7.3041    12.4290     6.7657 H       
  69 H69            8.6392    13.8064     4.3701 H       
  70 H70            5.7523     0.2016    -3.3721 H       
  71 H71            6.9538     1.3528    -2.7222 H       
  72 H72            6.2873    -1.0206    -1.4577 H       
  73 H73            6.8619     0.4299    -0.5769 H       
  74 H74            3.9715    -0.4848    -1.0511 H       
  75 H75            4.7408     0.0237     0.4885 H       
  76 H76            4.8293     2.3326    -0.1896 H       
  77 H77            3.2603     1.8131    -0.8810 H       
  78 H78            6.9187     9.2347     9.3907 H       
  79 H79            5.3758     9.1881     8.5043 H       
  80 H80            6.1425     7.6725     9.0367 H       
  81 H81            6.4980     8.0455     6.6112 H       
  82 H82            8.0409     8.0921     7.4976 H       
  83 H83            7.6190    16.8496     5.9883 H       
@<TRIPOS>BOND
   1    1    2 ar
   2    1    6 ar
   3    1   47 1
   4    2    3 ar
   5    2   40 1
   6    3    4 ar
   7    3   48 1
   8    4    5 ar
   9    5    6 ar
  10    5    7 1
  11    6   49 1
  12    7    8 2
  13    7   11 1
  14    8    9 1
  15    8   17 1
  16    9   10 ar
  17    9   12 ar
  18   10   11 1
  19   10   15 ar
  20   11   16 1
  21   12   13 ar
  22   12   50 1
  23   13   14 ar
  24   13   51 1
  25   14   15 ar
  26   14   18 1
  27   15   52 1
  28   16   53 1
  29   16   54 1
  30   16   55 1
  31   17   36 1
  32   17   39 1
  33   17   56 1
  34   18   19 am
  35   18   20 2
  36   19   21 1
  37   19   57 1
  38   21   22 1
  39   21   31 1
  40   21   33 1
  41   22   23 am
  42   22   24 2
  43   23   25 1
  44   23   58 1
  45   25   26 ar
  46   25   30 ar
  47   26   27 ar
  48   26   59 1
  49   27   28 ar
  50   27   60 1
  51   28   29 ar
  52   28   34 1
  53   29   30 ar
  54   29   41 1
  55   30   61 1
  56   31   32 1
  57   31   62 1
  58   31   63 1
  59   32   33 1
  60   32   64 1
  61   32   65 1
  62   33   66 1
  63   33   67 1
  64   34   35 2
  65   34   68 1
  66   35   44 1
  67   35   69 1
  68   36   37 1
  69   36   70 1
  70   36   71 1
  71   37   38 1
  72   37   72 1
  73   37   73 1
  74   38   39 1
  75   38   74 1
  76   38   75 1
  77   39   76 1
  78   39   77 1
  79   41   43 1
  80   42   43 1
  81   42   78 1
  82   42   79 1
  83   42   80 1
  84   43   81 1
  85   43   82 1
  86   44   45 2
  87   44   46 1
  88   46   83 1

#	End of record

