#	Name: ASD15170001
#	Creating user name:	WinNT
#	Creation time:	15. 06. 2019 21:31

#	Modifying user name:	WinNT
#	Modification time:	15. 06. 2019 21:31

#	Program:	/corina/corina34_cracker 3.40 0067  02.08.2006

@<TRIPOS>MOLECULE
ASD15170001
  63   66    0    0    0
SMALL
NO_CHARGES


@<TRIPOS>ATOM
   1 C1            -0.0394     1.7005     0.5815 C.ar    
   2 C2            -0.8977     0.5393     2.5975 C.3     
   3 C3            -1.0286    -0.8213     3.2849 C.3     
   4 C4            -1.0393     1.6751     4.8184 C.3     
   5 C5             1.1777     2.2750     0.2522 C.ar    
   6 C6            -0.0112     4.0744    -0.7596 C.ar    
   7 O7            -8.6130     7.4133    -1.3304 O.3     
   8 C8            -8.5811     6.0726    -1.1983 C.2     
   9 C9            -7.2943     5.3824    -0.9922 C.ar    
  10 C10           -6.1072     6.1177    -0.9338 C.ar    
  11 C11           -4.9049     5.4731    -0.7408 C.ar    
  12 C12           -4.8679     4.0910    -0.6037 C.ar    
  13 N13           -3.6483     3.4430    -0.4081 N.am    
  14 C14           -2.4975     4.0545    -0.7518 C.2     
  15 C15           -1.1974     3.4374    -0.4011 C.ar    
  16 N16           -1.1721     2.2820     0.2517 N.ar    
  17 C17           -0.0658     0.3884     1.3223 C.3     
  18 C18           -1.8605    -0.6704     4.5601 C.3     
  19 C19           -1.1702     0.3145     5.5058 C.3     
  20 C20           -0.2074     1.5242     3.5432 C.3     
  21 C21            1.1973     3.4818    -0.4297 C.ar    
  22 O22           -2.5265     5.1123    -1.3495 O.2     
  23 C23           -6.0512     3.3489    -0.6611 C.ar    
  24 N24           -6.0124     1.9572    -0.5223 N.pl3   
  25 C25           -7.1747     1.2023    -0.7145 C.ar    
  26 C26           -8.0360     1.5067    -1.7608 C.ar    
  27 C27           -9.1826     0.7607    -1.9499 C.ar    
  28 C28           -9.4743    -0.2923    -1.0955 C.ar    
  29 O29          -10.6038    -1.0264    -1.2826 O.3     
  30 C30          -10.8417    -2.0960    -0.3654 C.3     
  31 C31           -8.6146    -0.5974    -0.0506 C.ar    
  32 C32           -7.4650     0.1443     0.1373 C.ar    
  33 C33           -7.2607     3.9921    -0.8493 C.ar    
  34 O34           -9.6126     5.4324    -1.2489 O.2     
  35 H35           -1.8888     0.9144     2.3425 H       
  36 H36           -1.5204    -1.5229     2.6112 H       
  37 H37           -0.0374    -1.1964     3.5400 H       
  38 H38           -2.0304     2.0502     4.5633 H       
  39 H39           -0.5475     2.3768     5.4921 H       
  40 H40            2.1021     1.7874     0.5244 H       
  41 H41           -0.0332     5.0146    -1.2907 H       
  42 H42           -9.4798     7.8208    -1.4637 H       
  43 H43           -6.1324     7.1922    -1.0400 H       
  44 H44           -3.9888     6.0435    -0.6968 H       
  45 H45           -3.6284     2.5522    -0.0246 H       
  46 H46           -0.5098    -0.3784     0.6874 H       
  47 H47            0.9518     0.0987     1.5844 H       
  48 H48           -2.8516    -0.2953     4.3051 H       
  49 H49           -1.9537    -1.6397     5.0499 H       
  50 H50           -0.1790    -0.0606     5.7609 H       
  51 H51           -1.7628     0.4220     6.4143 H       
  52 H52            0.7838     1.1491     3.7982 H       
  53 H53           -0.1141     2.4935     3.0534 H       
  54 H54            2.1331     3.9516    -0.6941 H       
  55 H55           -5.1797     1.5158    -0.2929 H       
  56 H56           -7.8093     2.3268    -2.4259 H       
  57 H57           -9.8527     0.9975    -2.7632 H       
  58 H58          -10.9158    -1.6974     0.6464 H       
  59 H59          -11.7729    -2.5986    -0.6269 H       
  60 H60          -10.0179    -2.8080    -0.4159 H       
  61 H61           -8.8423    -1.4178     0.6139 H       
  62 H62           -6.7938    -0.0957     0.9486 H       
  63 H63           -8.1767     3.4214    -0.8895 H       
@<TRIPOS>BOND
   1    1   17 1
   2    1    5 ar
   3    1   16 ar
   4    2    3 1
   5    2   20 1
   6    2   17 1
   7    2   35 1
   8    3   36 1
   9    3   37 1
  10    3   18 1
  11    4   19 1
  12    4   20 1
  13    4   38 1
  14    4   39 1
  15    5   40 1
  16    5   21 ar
  17    6   21 ar
  18    6   41 1
  19    6   15 ar
  20    7    8 1
  21    7   42 1
  22    8    9 1
  23    8   34 2
  24    9   10 ar
  25    9   33 ar
  26   10   11 ar
  27   10   43 1
  28   11   12 ar
  29   11   44 1
  30   12   13 1
  31   12   23 ar
  32   13   14 am
  33   13   45 1
  34   14   15 1
  35   14   22 2
  36   15   16 ar
  37   17   46 1
  38   17   47 1
  39   18   19 1
  40   18   48 1
  41   18   49 1
  42   19   50 1
  43   19   51 1
  44   20   52 1
  45   20   53 1
  46   21   54 1
  47   23   24 1
  48   23   33 ar
  49   24   25 1
  50   24   55 1
  51   25   32 ar
  52   25   26 ar
  53   26   27 ar
  54   26   56 1
  55   27   28 ar
  56   27   57 1
  57   28   31 ar
  58   28   29 1
  59   29   30 1
  60   30   58 1
  61   30   59 1
  62   30   60 1
  63   31   61 1
  64   31   32 ar
  65   32   62 1
  66   33   63 1

#	End of record

