#	Name: ASD10410085
#	Creating user name:	WinNT
#	Creation time:	15. 06. 2019 21:26

#	Modifying user name:	WinNT
#	Modification time:	15. 06. 2019 21:26

#	Program:	/corina/corina34_cracker 3.40 0067  02.08.2006

@<TRIPOS>MOLECULE
ASD10410085
  64   68    0    0    0
SMALL
NO_CHARGES


@<TRIPOS>ATOM
   1 C1             0.0550     1.2986     0.5861 C.ar    
   2 C2            -0.0579     0.0377     0.0316 C.ar    
   3 C3             1.0503    -0.5694    -0.5494 C.ar    
   4 C4             2.2693     0.0923    -0.5722 C.ar    
   5 C5             2.3788     1.3589    -0.0146 C.ar    
   6 C6             1.2683     1.9599     0.5647 C.ar    
   7 N7             0.9361    -1.8447    -1.1092 N.3     
   8 N8             3.6057     2.0286    -0.0353 N.pl3   
   9 C9             3.6387     3.4216    -0.0881 C.2     
  10 N10            4.7200     4.1595    -0.0111 N.2     
  11 N11            2.5725     4.2178    -0.2313 N.2     
  12 C12            2.9564     5.4761    -0.2422 C.2     
  13 N13            4.3103     5.4994    -0.1056 N.pl3   
  14 C14            5.1242     6.6237    -0.0672 C.ar    
  15 N15            2.1328     6.5769    -0.3725 N.pl3   
  16 N16            4.8177     7.6595     0.7012 N.ar    
  17 C17            5.5841     8.7374     0.7475 C.ar    
  18 N18            6.6871     8.8591     0.0474 N.ar    
  19 C19            7.0898     7.8693    -0.7630 C.ar    
  20 C20            6.3039     6.6917    -0.8415 C.ar    
  21 C21            8.2619     7.9664    -1.5237 C.ar    
  22 C22            8.6291     6.9290    -2.3345 C.ar    
  23 C23            7.8475     5.7672    -2.4155 C.ar    
  24 C24            6.7029     5.6431    -1.6809 C.ar    
  25 Cl25          -1.5840    -0.7892     0.0608 Cl      
  26 C26            0.6727    -2.8530    -0.0731 C.3     
  27 C27            0.4757    -4.2197    -0.7333 C.3     
  28 N28            1.6766    -4.5648    -1.5068 N.3     
  29 C29            1.9401    -3.5565    -2.5429 C.3     
  30 C30            2.1371    -2.1899    -1.8827 C.3     
  31 O31            9.7658     7.0248    -3.0720 O.3     
  32 C32           10.5198     8.2323    -2.9480 C.3     
  33 C33            1.5566    -5.9054    -2.0952 C.3     
  34 C34            2.6994    -6.1312    -3.0872 C.3     
  35 O35            8.2366     4.7508    -3.2304 O.3     
  36 C36            7.3988     3.5938    -3.2699 C.3     
  37 H37           -0.8079     1.7698     1.0331 H       
  38 H38            3.1315    -0.3771    -1.0224 H       
  39 H39            1.3531     2.9455     0.9982 H       
  40 H40            4.4340     1.5243    -0.0128 H       
  41 H41            1.1748     6.4574    -0.4671 H       
  42 H42            2.5122     7.4696    -0.3694 H       
  43 H43            5.2883     9.5534     1.3901 H       
  44 H44            8.8719     8.8560    -1.4702 H       
  45 H45            6.1073     4.7448    -1.7496 H       
  46 H46            1.5185    -2.8991     0.6129 H       
  47 H47           -0.2281    -2.5819     0.4775 H       
  48 H48            0.3089    -4.9742     0.0354 H       
  49 H49           -0.3868    -4.1811    -1.3988 H       
  50 H50            2.8409    -3.8276    -3.0935 H       
  51 H51            1.0943    -3.5105    -3.2289 H       
  52 H52            2.3039    -1.4353    -2.6514 H       
  53 H53            2.9995    -2.2284    -1.2172 H       
  54 H54           11.4004     8.1781    -3.5881 H       
  55 H55            9.9028     9.0786    -3.2498 H       
  56 H56           10.8315     8.3612    -1.9115 H       
  57 H57            1.6077    -6.6548    -1.3054 H       
  58 H58            0.6022    -5.9899    -2.6150 H       
  59 H59            2.6103    -7.1260    -3.5238 H       
  60 H60            2.6483    -5.3818    -3.8770 H       
  61 H61            3.6537    -6.0467    -2.5674 H       
  62 H62            7.3314     3.1599    -2.2722 H       
  63 H63            6.4032     3.8777    -3.6107 H       
  64 H64            7.8229     2.8613    -3.9567 H       
@<TRIPOS>BOND
   1    1    2 ar
   2    1    6 ar
   3    1   37 1
   4    2    3 ar
   5    2   25 1
   6    3    4 ar
   7    3    7 1
   8    4    5 ar
   9    4   38 1
  10    5    6 ar
  11    5    8 1
  12    6   39 1
  13    7   26 1
  14    7   30 1
  15    8    9 1
  16    8   40 1
  17    9   10 2
  18    9   11 1
  19   10   13 1
  20   11   12 2
  21   12   13 1
  22   12   15 1
  23   13   14 1
  24   14   16 ar
  25   14   20 ar
  26   15   41 1
  27   15   42 1
  28   16   17 ar
  29   17   18 ar
  30   17   43 1
  31   18   19 ar
  32   19   20 ar
  33   19   21 ar
  34   20   24 ar
  35   21   22 ar
  36   21   44 1
  37   22   23 ar
  38   22   31 1
  39   23   24 ar
  40   23   35 1
  41   24   45 1
  42   26   27 1
  43   26   46 1
  44   26   47 1
  45   27   28 1
  46   27   48 1
  47   27   49 1
  48   28   29 1
  49   28   33 1
  50   29   30 1
  51   29   50 1
  52   29   51 1
  53   30   52 1
  54   30   53 1
  55   31   32 1
  56   32   54 1
  57   32   55 1
  58   32   56 1
  59   33   34 1
  60   33   57 1
  61   33   58 1
  62   34   59 1
  63   34   60 1
  64   34   61 1
  65   35   36 1
  66   36   62 1
  67   36   63 1
  68   36   64 1

#	End of record

