#	Name: ASD11000032
#	Creating user name:	WinNT
#	Creation time:	15. 06. 2019 21:28

#	Modifying user name:	WinNT
#	Modification time:	15. 06. 2019 21:28

#	Program:	/corina/corina34_cracker 3.40 0067  02.08.2006

@<TRIPOS>MOLECULE
ASD11000032
  62   65    0    0    0
SMALL
NO_CHARGES


@<TRIPOS>ATOM
   1 C1            -1.4312    -0.0304    -0.5474 C.ar    
   2 C2            -0.9222    -1.2941    -0.3198 C.ar    
   3 C3             0.4485    -1.5047    -0.3460 C.ar    
   4 C4             1.3080    -0.4463    -0.6003 C.ar    
   5 C5             0.7989     0.8175    -0.8280 C.ar    
   6 C6            -0.5718     1.0280    -0.8022 C.ar    
   7 O7            -1.0729     2.2720    -1.0267 O.3     
   8 C8            -2.4940     2.4161    -0.9852 C.3     
   9 O9             0.9496    -2.7488    -0.1219 O.3     
  10 C10            2.3707    -2.8930    -0.1640 C.3     
  11 C11            2.7436    -4.3515     0.1094 C.3     
  12 N12            2.2500    -4.7413     1.4344 N.am    
  13 C13            2.1226    -5.2343    -0.9442 C.ar    
  14 C14            1.4210    -6.3766    -0.6279 C.ar    
  15 C15            2.2789    -4.8618    -2.2726 C.ar    
  16 C16            0.8852    -7.1578    -1.6450 C.ar    
  17 C17            1.0416    -6.7935    -2.9694 C.ar    
  18 C18            1.7417    -5.6334    -3.2867 C.ar    
  19 C19            2.1966    -6.1807     1.7390 C.3     
  20 C20            1.1861    -6.8242     0.7910 C.3     
  21 C21            1.8614    -3.8189     2.3370 C.2     
  22 O22            2.0255    -2.6371     2.1071 O.2     
  23 C23            1.2340    -4.2459     3.6096 C.ar    
  24 C24            1.3695    -3.4550     4.7523 C.ar    
  25 C25            0.5042    -5.4352     3.6612 C.ar    
  26 C26           -0.0802    -5.8357     4.8413 C.ar    
  27 C27            0.0584    -5.0462     5.9944 C.ar    
  28 C28            0.7884    -3.8479     5.9365 C.ar    
  29 O29            1.8976    -5.2617    -4.5856 O.3     
  30 C30            2.6282    -4.0588    -4.8329 C.3     
  31 O31            0.5134    -7.5647    -3.9572 O.3     
  32 C32           -0.1924    -8.7404    -3.5550 C.3     
  33 N33           -0.5123    -5.4347     7.1519 N.2     
  34 O34           -0.3910    -4.7486     8.1510 O.3     
  35 O35           -1.1492    -6.4718     7.1990 O.2     
  36 H36           -2.4987     0.1327    -0.5314 H       
  37 H37           -1.5914    -2.1181    -0.1211 H       
  38 H38            2.3753    -0.6101    -0.6201 H       
  39 H39            1.4682     1.6417    -1.0256 H       
  40 H40           -2.9464     1.7769    -1.7434 H       
  41 H41           -2.8600     2.1263    -0.0002 H       
  42 H42           -2.7597     3.4551    -1.1803 H       
  43 H43            2.7364    -2.6030    -1.1490 H       
  44 H44            2.8234    -2.2540     0.5942 H       
  45 H45            3.8278    -4.4603     0.0798 H       
  46 H46            2.8243    -3.9619    -2.5159 H       
  47 H47            0.3419    -8.0580    -1.3983 H       
  48 H48            3.1798    -6.6264     1.5879 H       
  49 H49            1.8792    -6.3277     2.7714 H       
  50 H50            0.1785    -6.5399     1.0944 H       
  51 H51            1.2835    -7.9085     0.8455 H       
  52 H52            1.9314    -2.5338     4.7070 H       
  53 H53            0.3979    -6.0415     2.7738 H       
  54 H54           -0.6448    -6.7555     4.8802 H       
  55 H55            0.8977    -3.2380     6.8210 H       
  56 H56            2.6785    -3.8785    -5.9067 H       
  57 H57            2.1259    -3.2222    -4.3471 H       
  58 H58            3.6375    -4.1581    -4.4335 H       
  59 H59           -0.5611    -9.2626    -4.4379 H       
  60 H60            0.4790    -9.3951    -2.9996 H       
  61 H61           -1.0335    -8.4601    -2.9209 H       
  62 H62           -0.8181    -5.0683     8.9576 H       
@<TRIPOS>BOND
   1    1    2 ar
   2    1    6 ar
   3    1   36 1
   4    2    3 ar
   5    2   37 1
   6    3    4 ar
   7    3    9 1
   8    4    5 ar
   9    4   38 1
  10    5    6 ar
  11    5   39 1
  12    6    7 1
  13    7    8 1
  14    8   40 1
  15    8   41 1
  16    8   42 1
  17    9   10 1
  18   10   11 1
  19   10   43 1
  20   10   44 1
  21   11   12 1
  22   11   13 1
  23   11   45 1
  24   12   19 1
  25   12   21 am
  26   13   14 ar
  27   13   15 ar
  28   14   16 ar
  29   14   20 1
  30   15   18 ar
  31   15   46 1
  32   16   17 ar
  33   16   47 1
  34   17   18 ar
  35   17   31 1
  36   18   29 1
  37   19   20 1
  38   19   48 1
  39   19   49 1
  40   20   50 1
  41   20   51 1
  42   21   22 2
  43   21   23 1
  44   23   24 ar
  45   23   25 ar
  46   24   28 ar
  47   24   52 1
  48   25   26 ar
  49   25   53 1
  50   26   27 ar
  51   26   54 1
  52   27   28 ar
  53   27   33 1
  54   28   55 1
  55   29   30 1
  56   30   56 1
  57   30   57 1
  58   30   58 1
  59   31   32 1
  60   32   59 1
  61   32   60 1
  62   32   61 1
  63   33   34 1
  64   33   35 2
  65   34   62 1

#	End of record

