#	Name: ASD10410008
#	Creating user name:	WinNT
#	Creation time:	15. 06. 2019 21:26

#	Modifying user name:	WinNT
#	Modification time:	15. 06. 2019 21:26

#	Program:	/corina/corina34_cracker 3.40 0067  02.08.2006

@<TRIPOS>MOLECULE
ASD10410008
  68   72    0    0    0
SMALL
NO_CHARGES


@<TRIPOS>ATOM
   1 N1            -0.1607     2.1204     0.7398 N.pl3   
   2 C2             0.3396     0.8865     0.3391 C.ar    
   3 C3            -0.3823     0.0928    -0.5655 C.ar    
   4 C4             0.7064     3.1127     1.1738 C.ar    
   5 N5             2.0216     2.9435     1.0884 N.ar    
   6 C6             0.2095     4.3073     1.7019 C.ar    
   7 C7             1.1107     5.2673     2.1216 C.ar    
   8 N8             2.4096     5.0287     2.0118 N.ar    
   9 C9             2.8520     3.8891     1.5020 C.ar    
  10 Cl10          -1.5005     4.5794     1.8273 Cl      
  11 N11            4.2181     3.6780     1.4049 N.pl3   
  12 C12            5.1091     4.7050     1.7306 C.ar    
  13 C13            6.3313     4.4057     2.3188 C.ar    
  14 C14            7.2091     5.4226     2.6394 C.ar    
  15 C15            6.8722     6.7376     2.3757 C.ar    
  16 C16            5.6561     7.0391     1.7905 C.ar    
  17 C17            4.7765     6.0265     1.4614 C.ar    
  18 C18            7.8324     7.8446     2.7273 C.3     
  19 N19            8.7227     8.1010     1.5873 N.3     
  20 C20            9.5111     9.3230     1.7993 C.3     
  21 C21           10.4801     9.5110     0.6296 C.3     
  22 N22            9.7196     9.5894    -0.6254 N.3     
  23 C23            8.9312     8.3675    -0.8374 C.3     
  24 C24            7.9622     8.1795     0.3323 C.3     
  25 C25           10.6099     9.8458    -1.7654 C.3     
  26 C26            1.5593     0.4355     0.8278 C.ar    
  27 C27            2.0539    -0.7891     0.4284 C.ar    
  28 C28            1.3406    -1.5778    -0.4605 C.ar    
  29 C29            0.1318    -1.1450    -0.9599 C.ar    
  30 C30           -1.6756     0.5622    -1.0962 C.2     
  31 O31           -1.8175     1.7289    -1.4079 O.2     
  32 N32           -2.7003    -0.3021    -1.2358 N.am    
  33 C33           -4.0683     0.0496    -1.6437 C.3     
  34 C34           -4.8965    -1.2526    -1.6402 C.3     
  35 C35           -4.0920    -2.1736    -0.6852 C.3     
  36 C36           -2.6334    -1.7576    -1.0109 C.3     
  37 H37           -1.1156     2.2888     0.7120 H       
  38 H38            0.7602     6.2018     2.5342 H       
  39 H39            4.5562     2.8177     1.1108 H       
  40 H40            6.5947     3.3789     2.5257 H       
  41 H41            8.1595     5.1905     3.0968 H       
  42 H42            5.3957     8.0672     1.5865 H       
  43 H43            3.8270     6.2625     1.0041 H       
  44 H44            7.2727     8.7501     2.9620 H       
  45 H45            8.4258     7.5497     3.5927 H       
  46 H46            8.8422    10.1815     1.8589 H       
  47 H47           10.0748     9.2355     2.7280 H       
  48 H48           11.0456    10.4321     0.7703 H       
  49 H49           11.1666     8.6654     0.5866 H       
  50 H50            8.3675     8.4549    -1.7662 H       
  51 H51            9.6001     7.5089    -0.8971 H       
  52 H52            7.3967     7.2583     0.1916 H       
  53 H53            7.2757     9.0250     0.3753 H       
  54 H54           11.3372     9.0380    -1.8473 H       
  55 H55           10.0214     9.8991    -2.6813 H       
  56 H56           11.1319    10.7905    -1.6134 H       
  57 H57            2.1212     1.0442     1.5208 H       
  58 H58            3.0029    -1.1350     0.8106 H       
  59 H59            1.7369    -2.5346    -0.7670 H       
  60 H60           -0.4200    -1.7639    -1.6520 H       
  61 H61           -4.4943     0.7617    -0.9370 H       
  62 H62           -4.0576     0.4794    -2.6453 H       
  63 H63           -5.8977    -1.0718    -1.2490 H       
  64 H64           -4.9440    -1.6821    -2.6409 H       
  65 H65           -4.3376    -1.9663     0.3563 H       
  66 H66           -4.2591    -3.2241    -0.9228 H       
  67 H67           -2.2841    -2.2696    -1.9075 H       
  68 H68           -1.9788    -1.9781    -0.1678 H       
@<TRIPOS>BOND
   1    1    2 1
   2    1    4 1
   3    1   37 1
   4    2    3 ar
   5    2   26 ar
   6    3   30 1
   7    3   29 ar
   8    4    5 ar
   9    4    6 ar
  10    5    9 ar
  11    6    7 ar
  12    6   10 1
  13    7    8 ar
  14    7   38 1
  15    8    9 ar
  16    9   11 1
  17   11   12 1
  18   11   39 1
  19   12   13 ar
  20   12   17 ar
  21   13   14 ar
  22   13   40 1
  23   14   15 ar
  24   14   41 1
  25   15   16 ar
  26   15   18 1
  27   16   17 ar
  28   16   42 1
  29   17   43 1
  30   18   19 1
  31   18   44 1
  32   18   45 1
  33   19   20 1
  34   19   24 1
  35   20   21 1
  36   20   46 1
  37   20   47 1
  38   21   22 1
  39   21   48 1
  40   21   49 1
  41   22   23 1
  42   22   25 1
  43   23   24 1
  44   23   50 1
  45   23   51 1
  46   24   52 1
  47   24   53 1
  48   25   54 1
  49   25   55 1
  50   25   56 1
  51   26   27 ar
  52   26   57 1
  53   27   28 ar
  54   27   58 1
  55   28   29 ar
  56   28   59 1
  57   29   60 1
  58   30   31 2
  59   30   32 am
  60   32   33 1
  61   32   36 1
  62   33   34 1
  63   33   61 1
  64   33   62 1
  65   34   35 1
  66   34   63 1
  67   34   64 1
  68   35   36 1
  69   35   65 1
  70   35   66 1
  71   36   67 1
  72   36   68 1

#	End of record

