#	Name: ASD10100005
#	Creating user name:	WinNT
#	Creation time:	15. 06. 2019 21:24

#	Modifying user name:	WinNT
#	Modification time:	15. 06. 2019 21:24

#	Program:	/corina/corina34_cracker 3.40 0067  02.08.2006

@<TRIPOS>MOLECULE
ASD10100005
  44   46    0    0    0
SMALL
NO_CHARGES


@<TRIPOS>ATOM
   1 C1            -0.5985     1.3330     1.1042 C.2     
   2 C2             0.0125     1.9300     2.3107 C.ar    
   3 C3             0.4509     1.1111     3.3527 C.ar    
   4 C4             1.0206     1.6746     4.4757 C.ar    
   5 C5             1.1575     3.0481     4.5707 C.ar    
   6 C6             0.7246     3.8655     3.5417 C.ar    
   7 C7             0.1587     3.3145     2.4105 C.ar    
   8 O8            -1.2468     0.3081     1.1946 O.2     
   9 N9            -0.4418     1.9277    -0.0950 N.am    
  10 C10           -0.9618     1.2855    -1.3047 C.3     
  11 C11            1.5270     5.5610    -0.3542 C.2     
  12 N12            2.1882     4.4814     0.0994 N.am    
  13 C13            1.5732     3.2864     0.1947 C.2     
  14 C14            0.2229     3.1682    -0.1855 C.2     
  15 C15           -0.4390     4.2871    -0.6486 C.2     
  16 N16            0.2364     5.4829    -0.7258 N.am    
  17 O17            2.1822     2.3137     0.6070 O.2     
  18 O18            2.1050     6.6285    -0.4252 O.2     
  19 C19           -0.4540     6.6788    -1.2151 C.3     
  20 C20           -0.2898     6.7774    -2.7099 C.ar    
  21 C21           -1.2149     6.1828    -3.5475 C.ar    
  22 C22           -1.0643     6.2732    -4.9186 C.ar    
  23 C23            0.0112     6.9584    -5.4522 C.ar    
  24 C24            0.9358     7.5537    -4.6146 C.ar    
  25 C25            0.7828     7.4671    -3.2434 C.ar    
  26 N26           -1.7576     4.2077    -1.0278 N.pl3   
  27 H27            0.3440     0.0389     3.2800 H       
  28 H28            1.3602     1.0422     5.2826 H       
  29 H29            1.6038     3.4842     5.4521 H       
  30 H30            0.8340     4.9369     3.6222 H       
  31 H31           -0.1747     3.9533     1.6061 H       
  32 H32           -2.0142     1.5414    -1.4282 H       
  33 H33           -0.3993     1.6332    -2.1712 H       
  34 H34           -0.8590     0.2041    -1.2148 H       
  35 H35            3.1187     4.5639     0.3608 H       
  36 H36           -1.5139     6.6125    -0.9696 H       
  37 H37           -0.0265     7.5637    -0.7435 H       
  38 H38           -2.0552     5.6474    -3.1307 H       
  39 H39           -1.7867     5.8081    -5.5731 H       
  40 H40            0.1293     7.0284    -6.5234 H       
  41 H41            1.7762     8.0888    -5.0314 H       
  42 H42            1.5032     7.9353    -2.5890 H       
  43 H43           -2.2488     3.3804    -0.9044 H       
  44 H44           -2.1971     4.9789    -1.4190 H       
@<TRIPOS>BOND
   1    1    2 1
   2    1    8 2
   3    1    9 am
   4    2    3 ar
   5    2    7 ar
   6    3    4 ar
   7    3   27 1
   8    4    5 ar
   9    4   28 1
  10    5    6 ar
  11    5   29 1
  12    6    7 ar
  13    6   30 1
  14    7   31 1
  15    9   10 1
  16    9   14 1
  17   10   32 1
  18   10   33 1
  19   10   34 1
  20   11   12 am
  21   11   16 am
  22   11   18 2
  23   12   13 am
  24   12   35 1
  25   13   14 1
  26   13   17 2
  27   14   15 2
  28   15   16 1
  29   15   26 1
  30   16   19 1
  31   19   20 1
  32   19   36 1
  33   19   37 1
  34   20   21 ar
  35   20   25 ar
  36   21   22 ar
  37   21   38 1
  38   22   23 ar
  39   22   39 1
  40   23   24 ar
  41   23   40 1
  42   24   25 ar
  43   24   41 1
  44   25   42 1
  45   26   43 1
  46   26   44 1

#	End of record

