#	Name: ASD13010015
#	Creating user name:	WinNT
#	Creation time:	15. 06. 2019 21:30

#	Modifying user name:	WinNT
#	Modification time:	15. 06. 2019 21:30

#	Program:	/corina/corina34_cracker 3.40 0067  02.08.2006

@<TRIPOS>MOLECULE
ASD13010015
  49   52    0    0    0
SMALL
NO_CHARGES


@<TRIPOS>ATOM
   1 C1             0.0106     1.3758     0.1717 C.ar    
   2 C2             0.0195     0.0131     0.1718 C.ar    
   3 C3             1.2148    -0.6939    -0.0260 C.ar    
   4 C4             2.4077    -0.0066    -0.2245 C.ar    
   5 C5             1.1949     2.0846    -0.0258 C.ar    
   6 N6             1.4971     3.4214    -0.0779 N.pl3   
   7 C7             2.4031     1.3863    -0.2253 C.ar    
   8 C8             3.4426     2.4055    -0.3996 C.2     
   9 N9             2.8678     3.5763    -0.3060 N.2     
  10 C10            0.5818     4.4618     0.0724 C.ar    
  11 S11            5.1558     2.1068    -0.6830 S.3     
  12 C12            5.8022     3.7249    -0.9451 C.ar    
  13 C13            6.1805     4.5079     0.1390 C.ar    
  14 C14            5.9402     4.2191    -2.2367 C.ar    
  15 C15            6.4471     5.4875    -2.4382 C.ar    
  16 C16            6.8172     6.2661    -1.3567 C.ar    
  17 C17            6.6866     5.7754    -0.0702 C.ar    
  18 C18           -1.2382     6.5303     0.3713 C.ar    
  19 C19           -1.6230     5.3444    -0.2618 C.ar    
  20 C20           -0.7166     4.3192    -0.4086 C.ar    
  21 C21            0.9665     5.6387     0.7083 C.ar    
  22 C22            0.0653     6.6679     0.8584 C.ar    
  23 C23           -2.2064     7.6308     0.5303 C.2     
  24 O24           -3.3402     7.5079     0.1109 O.2     
  25 O25           -1.8340     8.7730     1.1408 O.3     
  26 C26            1.2067    -2.1702    -0.0230 C.2     
  27 O27            0.2447    -2.7737    -0.4572 O.2     
  28 N28            2.2657    -2.8489     0.4611 N.am    
  29 C29            2.3104    -4.3094     0.3550 C.3     
  30 C30            3.3721    -2.1262     1.0933 C.3     
  31 H31           -0.9171     1.9083     0.3206 H       
  32 H32           -0.9026    -0.5277     0.3259 H       
  33 H33            3.3297    -0.5483    -0.3764 H       
  34 H34            6.0784     4.1255     1.1439 H       
  35 H35            5.6517     3.6115    -3.0817 H       
  36 H36            6.5549     5.8721    -3.4417 H       
  37 H37            7.2137     7.2578    -1.5173 H       
  38 H38            6.9804     6.3846     0.7718 H       
  39 H39           -2.6290     5.2348    -0.6392 H       
  40 H40           -1.0131     3.4031    -0.8978 H       
  41 H41            1.9734     5.7442     1.0846 H       
  42 H42            0.3659     7.5826     1.3477 H       
  43 H43           -2.5035     9.4661     1.2216 H       
  44 H44            2.7897    -4.5910    -0.5826 H       
  45 H45            2.8792    -4.7171     1.1906 H       
  46 H46            1.2956    -4.7066     0.3780 H       
  47 H47            3.1210    -1.0679     1.1650 H       
  48 H48            3.5443    -2.5272     2.0922 H       
  49 H49            4.2742    -2.2457     0.4933 H       
@<TRIPOS>BOND
   1    1    2 ar
   2    1    5 ar
   3    1   31 1
   4    2    3 ar
   5    2   32 1
   6    3    4 ar
   7    3   26 1
   8    4    7 ar
   9    4   33 1
  10    5    7 ar
  11    5    6 1
  12    6    9 1
  13    6   10 1
  14    7    8 1
  15    8    9 2
  16    8   11 1
  17   10   21 ar
  18   10   20 ar
  19   11   12 1
  20   12   14 ar
  21   12   13 ar
  22   13   17 ar
  23   13   34 1
  24   14   15 ar
  25   14   35 1
  26   15   16 ar
  27   15   36 1
  28   16   17 ar
  29   16   37 1
  30   17   38 1
  31   18   19 ar
  32   18   22 ar
  33   18   23 1
  34   19   20 ar
  35   19   39 1
  36   20   40 1
  37   21   22 ar
  38   21   41 1
  39   22   42 1
  40   23   24 2
  41   23   25 1
  42   25   43 1
  43   26   27 2
  44   26   28 am
  45   28   29 1
  46   28   30 1
  47   29   44 1
  48   29   45 1
  49   29   46 1
  50   30   47 1
  51   30   48 1
  52   30   49 1

#	End of record

