#	Name: ASD13490087
#	Creating user name:	WinNT
#	Creation time:	15. 06. 2019 21:30

#	Modifying user name:	WinNT
#	Modification time:	15. 06. 2019 21:30

#	Program:	/corina/corina34_cracker 3.40 0067  02.08.2006

@<TRIPOS>MOLECULE
ASD13490087
  55   59    0    0    0
SMALL
NO_CHARGES


@<TRIPOS>ATOM
   1 N1            -0.0165     1.3672     0.0096 N.pl3   
   2 C2             0.0021    -0.0041     0.0020 C.2     
   3 C3             1.2959    -0.3764    -0.0123 C.2     
   4 N4             2.0512     0.7323    -0.0136 N.2     
   5 C5             1.2773     1.7830    -0.0006 C.2     
   6 C6             1.8074    -1.7939    -0.0244 C.3     
   7 C7            -1.1515     2.1828     0.0196 C.2     
   8 C8            -1.4514     3.0568    -1.1172 C.2     
   9 N9            -2.5495     3.8314    -1.0800 N.am    
  10 C10           -3.3908     3.8085     0.0094 C.2     
  11 C11           -3.1325     3.0053     1.0772 C.2     
  12 C12           -2.0049     2.1749     1.0888 C.2     
  13 O13           -0.7126     3.0817    -2.0868 O.2     
  14 C14           -4.5857     4.6813     0.0004 C.2     
  15 C15           -2.8775     4.7226    -2.2010 C.3     
  16 C16           -4.3959     4.6657    -2.4257 C.3     
  17 N17           -5.0648     5.1127    -1.1908 N.am    
  18 O18           -5.1263     5.0041     1.0405 O.2     
  19 C19           -6.2245     6.0060    -1.2494 C.3     
  20 C20           -7.4296     5.3204    -0.6027 C.3     
  21 C21           -5.9143     7.2810    -0.5083 C.2     
  22 C22           -6.6011     8.5712    -0.6477 C.ar    
  23 C23           -4.9604     7.4635     0.4145 C.2     
  24 O24           -4.9807     8.7332     0.8571 O.3     
  25 C25           -5.9525     9.4398     0.2459 C.ar    
  26 C26           -4.8139     3.2306    -2.7522 C.3     
  27 C27           -7.6639     9.0303    -1.4243 C.ar    
  28 C28           -6.3822    10.7573     0.3443 C.ar    
  29 C29           -7.4358    11.1952    -0.4329 C.ar    
  30 C30           -8.0734    10.3299    -1.3134 C.ar    
  31 C31           -9.2219    10.8275    -2.1528 C.3     
  32 F32           -7.8520    12.4767    -0.3351 F       
  33 F33           -9.6977     9.7860    -2.9566 F       
  34 F34          -10.2493    11.2782    -1.3170 F       
  35 F35           -8.7849    11.8803    -2.9639 F       
  36 H36           -0.8563    -0.6595     0.0070 H       
  37 H37            1.6093     2.8107     0.0018 H       
  38 H38            1.9207    -2.1305    -1.0549 H       
  39 H39            2.7727    -1.8362     0.4799 H       
  40 H40            1.0985    -2.4403     0.4931 H       
  41 H41           -3.8058     3.0049     1.9216 H       
  42 H42           -1.8080     1.5364     1.9374 H       
  43 H43           -2.5788     5.7428    -1.9601 H       
  44 H44           -2.3595     4.3892    -3.1002 H       
  45 H45           -4.6693     5.3261    -3.2486 H       
  46 H46           -6.4529     6.2370    -2.2899 H       
  47 H47           -7.2011     5.0894     0.4378 H       
  48 H48           -8.2924     5.9850    -0.6463 H       
  49 H49           -7.6539     4.3982    -1.1387 H       
  50 H50           -4.2749     6.7012     0.7542 H       
  51 H51           -4.5460     2.5765    -1.9224 H       
  52 H52           -5.8916     3.1933    -2.9110 H       
  53 H53           -4.3017     2.8997    -3.6557 H       
  54 H54           -8.1616     8.3618    -2.1113 H       
  55 H55           -5.8938    11.4368     1.0271 H       
@<TRIPOS>BOND
   1    1    2 1
   2    1    5 1
   3    1    7 1
   4    2    3 2
   5    2   36 1
   6    3    4 1
   7    3    6 1
   8    4    5 2
   9    5   37 1
  10    6   38 1
  11    6   39 1
  12    6   40 1
  13    7    8 1
  14    7   12 2
  15    8    9 am
  16    8   13 2
  17    9   15 1
  18    9   10 1
  19   10   11 2
  20   10   14 1
  21   11   12 1
  22   11   41 1
  23   12   42 1
  24   14   17 am
  25   14   18 2
  26   15   16 1
  27   15   43 1
  28   15   44 1
  29   16   17 1
  30   16   26 1
  31   16   45 1
  32   17   19 1
  33   19   20 1
  34   19   21 1
  35   19   46 1
  36   20   47 1
  37   20   48 1
  38   20   49 1
  39   21   23 2
  40   21   22 1
  41   22   25 ar
  42   22   27 ar
  43   23   24 1
  44   23   50 1
  45   24   25 1
  46   25   28 ar
  47   26   51 1
  48   26   52 1
  49   26   53 1
  50   27   30 ar
  51   27   54 1
  52   28   29 ar
  53   28   55 1
  54   29   30 ar
  55   29   32 1
  56   30   31 1
  57   31   33 1
  58   31   34 1
  59   31   35 1

#	End of record

