#	Name: ASD11000240
#	Creating user name:	WinNT
#	Creation time:	15. 06. 2019 21:29

#	Modifying user name:	WinNT
#	Modification time:	15. 06. 2019 21:29

#	Program:	/corina/corina34_cracker 3.40 0067  02.08.2006

@<TRIPOS>MOLECULE
ASD11000240
  54   57    0    0    0
SMALL
NO_CHARGES


@<TRIPOS>ATOM
   1 N1            -0.0172     1.3215    -0.0112 N.ar    
   2 C2             0.0016    -0.0034    -0.0060 C.ar    
   3 N3             1.1403    -0.6810    -0.0154 N.ar    
   4 C4             2.3025    -0.0498    -0.0305 C.ar    
   5 C5             2.3192     1.3363    -0.0364 C.ar    
   6 C6             1.1098     2.0136    -0.0261 C.ar    
   7 N7            -1.1974    -0.6965     0.0102 N.pl3   
   8 C8            -1.2009    -2.0923    -0.1029 C.ar    
   9 C9            -2.1491    -2.8420     0.5799 C.ar    
  10 C10           -0.2594    -2.7268    -0.9028 C.ar    
  11 C11           -0.2639    -4.1039    -1.0142 C.ar    
  12 C12           -1.2095    -4.8528    -0.3266 C.ar    
  13 C13           -2.1523    -4.2189     0.4681 C.ar    
  14 C14            3.6238     2.0904    -0.0530 C.3     
  15 C15            4.0504     2.3397    -1.5010 C.3     
  16 C16            5.3550     3.0939    -1.5176 C.ar    
  17 C17            6.5514     2.4010    -1.5272 C.ar    
  18 C18            7.7516     3.0870    -1.5415 C.ar    
  19 C19            7.7510     4.4728    -1.5465 C.ar    
  20 C20            6.5453     5.1663    -1.5385 C.ar    
  21 C21            5.3517     4.4781    -1.5290 C.ar    
  22 C22           -2.2149    -6.9157     0.2982 C.3     
  23 O23           -1.2140    -6.2084    -0.4368 O.3     
  24 F24           -2.0657    -6.6500     1.6636 F       
  25 F25           -3.4829    -6.5001    -0.1220 F       
  26 N26            8.9498     5.1949    -1.5576 N.am    
  27 C27            8.9392     6.5077    -1.2492 C.2     
  28 O28            7.7944     7.1240    -0.9035 O.3     
  29 C29            6.5718     6.6740    -1.5492 C.3     
  30 O30            9.9756     7.1411    -1.2836 O.2     
  31 C31            6.5391     7.1776    -2.9936 C.3     
  32 C32            5.3602     7.2139    -0.7867 C.3     
  33 Cl33           0.9122    -4.8978    -2.0143 Cl      
  34 H34            3.2273    -0.6075    -0.0378 H       
  35 H35            1.0881     3.0934    -0.0307 H       
  36 H36           -2.0347    -0.2151     0.0999 H       
  37 H37           -2.8840    -2.3488     1.1988 H       
  38 H38            0.4758    -2.1439    -1.4379 H       
  39 H39           -2.8875    -4.8021     1.0027 H       
  40 H40            3.4983     3.0448     0.4583 H       
  41 H41            4.3891     1.5038     0.4553 H       
  42 H42            4.1759     1.3853    -2.0123 H       
  43 H43            3.2851     2.9263    -2.0093 H       
  44 H44            6.5484     1.3210    -1.5231 H       
  45 H45            8.6858     2.5451    -1.5485 H       
  46 H46            4.4159     5.0172    -1.5214 H       
  47 H47           -2.1065    -7.9859     0.1224 H       
  48 H48            9.7832     4.7538    -1.7854 H       
  49 H49            7.4000     6.7852    -3.5347 H       
  50 H50            5.6219     6.8392    -3.4756 H       
  51 H51            6.5719     8.2671    -2.9994 H       
  52 H52            5.3885     8.3036    -0.7841 H       
  53 H53            4.4449     6.8755    -1.2724 H       
  54 H54            5.3839     6.8474     0.2396 H       
@<TRIPOS>BOND
   1    1    2 ar
   2    1    6 ar
   3    2    3 ar
   4    2    7 1
   5    3    4 ar
   6    4    5 ar
   7    4   34 1
   8    5    6 ar
   9    5   14 1
  10    6   35 1
  11    7    8 1
  12    7   36 1
  13    8    9 ar
  14    8   10 ar
  15    9   13 ar
  16    9   37 1
  17   10   11 ar
  18   10   38 1
  19   11   12 ar
  20   11   33 1
  21   12   13 ar
  22   12   23 1
  23   13   39 1
  24   14   15 1
  25   14   40 1
  26   14   41 1
  27   15   16 1
  28   15   42 1
  29   15   43 1
  30   16   17 ar
  31   16   21 ar
  32   17   18 ar
  33   17   44 1
  34   18   19 ar
  35   18   45 1
  36   19   20 ar
  37   19   26 1
  38   20   21 ar
  39   20   29 1
  40   21   46 1
  41   22   23 1
  42   22   24 1
  43   22   25 1
  44   22   47 1
  45   26   27 am
  46   26   48 1
  47   27   28 1
  48   27   30 2
  49   28   29 1
  50   29   31 1
  51   29   32 1
  52   31   49 1
  53   31   50 1
  54   31   51 1
  55   32   52 1
  56   32   53 1
  57   32   54 1

#	End of record

