#	Name: ASD10410084
#	Creating user name:	WinNT
#	Creation time:	15. 06. 2019 21:26

#	Modifying user name:	WinNT
#	Modification time:	15. 06. 2019 21:26

#	Program:	/corina/corina34_cracker 3.40 0067  02.08.2006

@<TRIPOS>MOLECULE
ASD10410084
  81   87    0    0    0
SMALL
NO_CHARGES


@<TRIPOS>ATOM
   1 C1             0.0309     1.1159     0.1445 C.ar    
   2 C2             0.1863    -0.1678     0.6478 C.ar    
   3 C3             1.4610    -0.6749     0.8773 C.ar    
   4 C4             2.5719     0.1004     0.6038 C.ar    
   5 C5             2.4146     1.3854     0.1000 C.ar    
   6 C6             1.1419     1.8906    -0.1287 C.ar    
   7 F7             1.6130    -1.9245     1.3677 F       
   8 N8             3.5399     2.1714    -0.1768 N.pl3   
   9 C9             4.7186     1.5708    -0.6165 C.2     
  10 N10            5.8599     2.1874    -0.8086 N.2     
  11 N11            4.8669     0.2721    -0.9042 N.2     
  12 C12            6.1036     0.0410    -1.2889 C.2     
  13 N13            6.7797     1.2213    -1.2478 N.pl3   
  14 C14            8.1129     1.4292    -1.5755 C.ar    
  15 N15            6.6236    -1.1819    -1.6646 N.pl3   
  16 N16           -0.9407    -0.9530     0.9252 N.3     
  17 C17           -1.7992    -0.3066     1.9276 C.3     
  18 C18           -3.0547    -1.1548     2.1434 C.3     
  19 N19           -2.6633    -2.5024     2.5798 N.3     
  20 C20           -1.8048    -3.1488     1.5774 C.3     
  21 C21           -0.5493    -2.3006     1.3616 C.3     
  22 C22           -3.8424    -3.3239     2.8700 C.3     
  23 N23            8.6276     0.9210    -2.6865 N.ar    
  24 C24            9.8962     1.1115    -3.0114 C.ar    
  25 N25           10.7259     1.8066    -2.2699 N.ar    
  26 C26           10.3083     2.3650    -1.1243 C.ar    
  27 C27            8.9553     2.1927    -0.7368 C.ar    
  28 C28           11.1674     3.1134    -0.3096 C.ar    
  29 C29           10.6926     3.6624     0.8486 C.ar    
  30 C30            9.3552     3.4865     1.2331 C.ar    
  31 C31            8.4941     2.7664     0.4554 C.ar    
  32 C32           -3.4199    -4.7547     3.2017 C.3     
  33 C33           -4.6623    -5.6140     3.4171 C.3     
  34 C34           -5.5496    -5.0593     4.5246 C.3     
  35 C35           -5.8554    -3.5805     4.3275 C.3     
  36 C36           -4.5979    -2.7585     4.0715 C.3     
  37 C37           -3.6963    -2.7167     5.2953 C.3     
  38 C38           -3.0599    -4.0564     5.6198 C.3     
  39 C39           -2.4982    -4.7790     4.4087 C.3     
  40 O40           11.5270     4.3876     1.6379 O.3     
  41 C41           12.8778     4.5315     1.1942 C.3     
  42 O42            8.9098     4.0440     2.3905 O.3     
  43 C43            7.5379     3.8294     2.7280 C.3     
  44 H44           -0.9587     1.5080    -0.0379 H       
  45 H45            3.5620    -0.2925     0.7820 H       
  46 H46            1.0201     2.8895    -0.5207 H       
  47 H47            3.4993     3.1338    -0.0626 H       
  48 H48            6.0596    -1.9711    -1.6595 H       
  49 H49            7.5530    -1.2517    -1.9335 H       
  50 H50           -1.2555    -0.2160     2.8679 H       
  51 H51           -2.0859     0.6845     1.5760 H       
  52 H52           -3.6792    -0.6922     2.9076 H       
  53 H53           -3.6126    -1.2227     1.2094 H       
  54 H54           -1.5181    -4.1399     1.9290 H       
  55 H55           -2.3485    -3.2394     0.6370 H       
  56 H56            0.0752    -2.7632     0.5974 H       
  57 H57            0.0086    -2.2326     2.2955 H       
  58 H58           -4.5011    -3.3336     1.9995 H       
  59 H59           10.2651     0.6750    -3.9278 H       
  60 H60           12.1994     3.2556    -0.5947 H       
  61 H61            7.4660     2.6361     0.7594 H       
  62 H62           -2.8721    -5.1567     2.3343 H       
  63 H63           -5.2337    -5.6593     2.4845 H       
  64 H64           -4.3537    -6.6315     3.6775 H       
  65 H65           -6.5089    -5.6092     4.4951 H       
  66 H66           -5.1200    -5.2454     5.5011 H       
  67 H67           -6.5386    -3.4641     3.4788 H       
  68 H68           -6.3607    -3.1948     5.2198 H       
  69 H69           -4.9029    -1.7283     3.8279 H       
  70 H70           -2.9098    -1.9674     5.1439 H       
  71 H71           -4.2898    -2.3856     6.1604 H       
  72 H72           -2.2166    -3.8659     6.3162 H       
  73 H73           -3.7482    -4.6928     6.1713 H       
  74 H74           -2.2979    -5.8264     4.6806 H       
  75 H75           -1.5319    -4.3340     4.1378 H       
  76 H76           13.3384     3.5475     1.1072 H       
  77 H77           12.8904     5.0258     0.2228 H       
  78 H78           13.4348     5.1311     1.9142 H       
  79 H79            6.9023     4.2382     1.9424 H       
  80 H80            7.3510     2.7601     2.8269 H       
  81 H81            7.3139     4.3263     3.6719 H       
@<TRIPOS>BOND
   1    1    2 ar
   2    1    6 ar
   3    1   44 1
   4    2    3 ar
   5    2   16 1
   6    3    4 ar
   7    3    7 1
   8    4    5 ar
   9    4   45 1
  10    5    6 ar
  11    5    8 1
  12    6   46 1
  13    8    9 1
  14    8   47 1
  15    9   10 2
  16    9   11 1
  17   10   13 1
  18   11   12 2
  19   12   13 1
  20   12   15 1
  21   13   14 1
  22   14   23 ar
  23   14   27 ar
  24   15   48 1
  25   15   49 1
  26   16   17 1
  27   16   21 1
  28   17   18 1
  29   17   50 1
  30   17   51 1
  31   18   19 1
  32   18   52 1
  33   18   53 1
  34   19   20 1
  35   19   22 1
  36   20   21 1
  37   20   54 1
  38   20   55 1
  39   21   56 1
  40   21   57 1
  41   22   32 1
  42   22   36 1
  43   22   58 1
  44   23   24 ar
  45   24   25 ar
  46   24   59 1
  47   25   26 ar
  48   26   27 ar
  49   26   28 ar
  50   27   31 ar
  51   28   29 ar
  52   28   60 1
  53   29   30 ar
  54   29   40 1
  55   30   31 ar
  56   30   42 1
  57   31   61 1
  58   32   33 1
  59   32   39 1
  60   32   62 1
  61   33   34 1
  62   33   63 1
  63   33   64 1
  64   34   35 1
  65   34   65 1
  66   34   66 1
  67   35   36 1
  68   35   67 1
  69   35   68 1
  70   36   37 1
  71   36   69 1
  72   37   38 1
  73   37   70 1
  74   37   71 1
  75   38   39 1
  76   38   72 1
  77   38   73 1
  78   39   74 1
  79   39   75 1
  80   40   41 1
  81   41   76 1
  82   41   77 1
  83   41   78 1
  84   42   43 1
  85   43   79 1
  86   43   80 1
  87   43   81 1

#	End of record

