#	Name: ASD10160365
#	Creating user name:	WinNT
#	Creation time:	15. 06. 2019 21:25

#	Modifying user name:	WinNT
#	Modification time:	15. 06. 2019 21:25

#	Program:	/corina/corina34_cracker 3.40 0067  02.08.2006

@<TRIPOS>MOLECULE
ASD10160365
  17   17    0    0    0
SMALL
NO_CHARGES


@<TRIPOS>ATOM
   1 C1            -0.0184     1.5028     0.0103 C.2     
   2 C2             0.0021    -0.0041     0.0020 C.3     
   3 C3             1.2458     2.2557     0.0023 C.ar    
   4 C4             1.2193     3.6544     0.0100 C.ar    
   5 C5             2.4161     4.3501     0.0028 C.ar    
   6 C6             3.6043     3.6254    -0.0120 C.ar    
   7 C7             3.5535     2.2320    -0.0190 C.ar    
   8 N8             2.4032     1.6001    -0.0068 N.ar    
   9 O9             4.7992     4.2679    -0.0199 O.3     
  10 Cl10          -0.2935     4.5058     0.0279 Cl      
  11 O11           -1.0766     2.0947     0.0185 O.2     
  12 H12            1.0345    -0.3534    -0.0097 H       
  13 H13           -0.4983    -0.3791     0.8948 H       
  14 H14           -0.5153    -0.3696    -0.8850 H       
  15 H15            2.4276     5.4300     0.0082 H       
  16 H16            4.4727     1.6653    -0.0308 H       
  17 H17            5.1539     4.4496     0.8611 H       
@<TRIPOS>BOND
   1    1    2 1
   2    1    3 1
   3    1   11 2
   4    2   12 1
   5    2   13 1
   6    2   14 1
   7    3    4 ar
   8    3    8 ar
   9    4    5 ar
  10    4   10 1
  11    5    6 ar
  12    5   15 1
  13    6    7 ar
  14    6    9 1
  15    7    8 ar
  16    7   16 1
  17    9   17 1

#	End of record

