#	Name: ASD10410113
#	Creating user name:	WinNT
#	Creation time:	15. 06. 2019 21:26

#	Modifying user name:	WinNT
#	Modification time:	15. 06. 2019 21:26

#	Program:	/corina/corina34_cracker 3.40 0067  02.08.2006

@<TRIPOS>MOLECULE
ASD10410113
  50   53    0    0    0
SMALL
NO_CHARGES


@<TRIPOS>ATOM
   1 C1            -0.0183     1.3925    -0.0812 C.ar    
   2 C2            -0.0057     0.0095     0.0247 C.ar    
   3 C3             1.2007    -0.6691     0.1155 C.ar    
   4 C4             2.3904     0.0319     0.1009 C.ar    
   5 C5             2.3788     1.4166    -0.0051 C.ar    
   6 C6             1.1705     2.0951    -0.0964 C.ar    
   7 O7            -1.1769    -0.6815     0.0400 O.3     
   8 N8             3.5843     2.1280    -0.0195 N.pl3   
   9 C9             3.6714     3.3387    -0.7067 C.2     
  10 N10            4.7095     4.1402    -0.7084 N.2     
  11 N11            2.7114     3.8669    -1.4750 N.2     
  12 C12            3.1225     5.0138    -1.9718 C.2     
  13 N13            4.3790     5.2372    -1.5203 N.pl3   
  14 C14            5.1866     6.3401    -1.8055 C.ar    
  15 N15            2.4003     5.8425    -2.8093 N.pl3   
  16 C16            6.1900     6.7062    -0.9171 C.ar    
  17 C17           -1.0898    -2.1035     0.1513 C.3     
  18 C18           -2.4977    -2.7023     0.1520 C.3     
  19 N19           -3.1367    -2.4526    -1.1469 N.3     
  20 C20           -4.3935    -3.2133    -1.2725 C.3     
  21 N21            4.9923     7.0236    -2.9226 N.ar    
  22 C22            5.7331     8.0716    -3.2304 C.ar    
  23 C23            6.7461     8.4948    -2.3891 C.ar    
  24 C24            6.9843     7.8015    -1.2114 C.ar    
  25 C25           -5.5167    -2.1957    -1.5631 C.3     
  26 C26           -4.7466    -0.9828    -2.1485 C.3     
  27 C27           -3.4367    -1.0155    -1.3223 C.3     
  28 Cl28           5.4327     8.9291    -4.7096 Cl      
  29 H29           -0.9579     1.9196    -0.1564 H       
  30 H30            1.2095    -1.7459     0.1979 H       
  31 H31            3.3296    -0.4965     0.1723 H       
  32 H32            1.1605     3.1718    -0.1792 H       
  33 H33            4.3590     1.7790     0.4484 H       
  34 H34            1.5028     5.5945    -3.0811 H       
  35 H35            2.7909     6.6723    -3.1253 H       
  36 H36            6.3481     6.1441    -0.0086 H       
  37 H37           -0.5267    -2.5003    -0.6934 H       
  38 H38           -0.5833    -2.3649     1.0805 H       
  39 H39           -2.4356    -3.7765     0.3259 H       
  40 H40           -3.0888    -2.2399     0.9426 H       
  41 H41           -4.3158    -3.9247    -2.0947 H       
  42 H42           -4.6024    -3.7405    -0.3417 H       
  43 H43            7.3479     9.3534    -2.6482 H       
  44 H44            7.7692     8.1114    -0.5373 H       
  45 H45           -6.2192    -2.5956    -2.2943 H       
  46 H46           -6.0321    -1.9177    -0.6438 H       
  47 H47           -4.5426    -1.1251    -3.2097 H       
  48 H48           -5.2924    -0.0548    -1.9784 H       
  49 H49           -3.5868    -0.5383    -0.3539 H       
  50 H50           -2.6315    -0.5237    -1.8680 H       
@<TRIPOS>BOND
   1    1    2 ar
   2    1    6 ar
   3    1   29 1
   4    2    3 ar
   5    2    7 1
   6    3    4 ar
   7    3   30 1
   8    4    5 ar
   9    4   31 1
  10    5    6 ar
  11    5    8 1
  12    6   32 1
  13    7   17 1
  14    8    9 1
  15    8   33 1
  16    9   10 2
  17    9   11 1
  18   10   13 1
  19   11   12 2
  20   12   13 1
  21   12   15 1
  22   13   14 1
  23   14   16 ar
  24   14   21 ar
  25   15   34 1
  26   15   35 1
  27   16   24 ar
  28   16   36 1
  29   17   18 1
  30   17   37 1
  31   17   38 1
  32   18   19 1
  33   18   39 1
  34   18   40 1
  35   19   20 1
  36   19   27 1
  37   20   25 1
  38   20   41 1
  39   20   42 1
  40   21   22 ar
  41   22   23 ar
  42   22   28 1
  43   23   24 ar
  44   23   43 1
  45   24   44 1
  46   25   26 1
  47   25   45 1
  48   25   46 1
  49   26   27 1
  50   26   47 1
  51   26   48 1
  52   27   49 1
  53   27   50 1

#	End of record

