#	Name: ASD16590002
#	Creating user name:	WinNT
#	Creation time:	15. 06. 2019 21:31

#	Modifying user name:	WinNT
#	Modification time:	15. 06. 2019 21:31

#	Program:	/corina/corina34_cracker 3.40 0067  02.08.2006

@<TRIPOS>MOLECULE
ASD16590002
  55   58    0    0    0
SMALL
NO_CHARGES


@<TRIPOS>ATOM
   1 C1            -0.0187     1.5258     0.0104 C.3     
   2 C2             1.4167     2.0553    -0.0004 C.3     
   3 C3             2.7378     4.0702    -0.2404 C.3     
   4 C4             2.6442     5.5910    -0.4041 C.3     
   5 C5             0.6658     5.5555     1.1637 C.3     
   6 C6             0.8373     4.0362     1.2657 C.3     
   7 C7             2.4764     8.7622     3.2436 C.3     
   8 C8             1.7900     8.5904     5.6443 C.ar    
   9 C9             1.0015     8.9769     6.7135 C.ar    
  10 C10            0.0363     9.9531     6.5435 C.ar    
  11 C11           -0.1400    10.5423     5.3044 C.ar    
  12 C12           -1.4075    -0.5249    -0.1112 C.ar    
  13 C13           -2.2152    -0.5751     1.0112 C.ar    
  14 C14           -3.5086    -1.0518     0.9155 C.ar    
  15 C15           -5.1368    -2.2366    -2.0461 C.2     
  16 C16           -3.1849    -1.4241    -1.4420 C.ar    
  17 C17           -1.8890    -0.9449    -1.3362 C.ar    
  18 Cl18          -1.3507    11.7679     5.0902 Cl      
  19 O19           -6.0277    -2.6916    -2.7374 O.2     
  20 N20           -5.2236    -1.9977    -0.7225 N.am    
  21 O21           -3.9147    -1.8943    -2.4832 O.3     
  22 C22           -3.9965    -1.4800    -0.3087 C.ar    
  23 C23            0.0021    -0.0041     0.0020 C.3     
  24 O24            0.5895    -0.4792     1.2150 O.3     
  25 N25            1.3968     3.5242     0.0076 N.3     
  26 N26            1.9542     6.1458     0.7704 N.am    
  27 C27            2.4887     7.1676     1.4679 C.2     
  28 O28            3.5544     7.6429     1.1290 O.2     
  29 O29            1.8418     7.6618     2.5403 O.3     
  30 C30            1.6134     9.1796     4.4064 C.ar    
  31 C31            0.6491    10.1550     4.2359 C.ar    
  32 Cl32           1.2231     8.2365     8.2680 Cl      
  33 H33           -0.5289     1.8773     0.9072 H       
  34 H34           -0.5459     1.8868    -0.8726 H       
  35 H35            1.9439     1.6943     0.8826 H       
  36 H36            1.9269     1.7038    -0.8972 H       
  37 H37            3.1468     3.6309    -1.1502 H       
  38 H38            3.3882     3.8341     0.6018 H       
  39 H39            3.6463     6.0141    -0.4739 H       
  40 H40            2.0800     5.8281    -1.3061 H       
  41 H41           -0.0886     5.7892     0.4124 H       
  42 H42            0.3565     5.9548     2.1296 H       
  43 H43            1.5140     3.8009     2.0872 H       
  44 H44           -0.1319     3.5722     1.4486 H       
  45 H45            3.4521     8.4442     3.6110 H       
  46 H46            2.6014     9.6045     2.5632 H       
  47 H47            2.5467     7.8315     5.7780 H       
  48 H48           -0.5796    10.2549     7.3777 H       
  49 H49           -1.8336    -0.2411     1.9646 H       
  50 H50           -4.1374    -1.0909     1.7927 H       
  51 H51           -1.2562    -0.8997    -2.2102 H       
  52 H52           -5.9982    -2.1563    -0.1606 H       
  53 H53            0.5883    -0.3548    -0.8473 H       
  54 H54            0.1188    -0.2046     2.0138 H       
  55 H55            0.5113    10.6147     3.2684 H       
@<TRIPOS>BOND
   1    1   23 1
   2    1    2 1
   3    1   33 1
   4    1   34 1
   5    2   35 1
   6    2   36 1
   7    2   25 1
   8    3   25 1
   9    3   37 1
  10    3   38 1
  11    3    4 1
  12    4   26 1
  13    4   39 1
  14    4   40 1
  15    5    6 1
  16    5   41 1
  17    5   42 1
  18    5   26 1
  19    6   43 1
  20    6   44 1
  21    6   25 1
  22    7   45 1
  23    7   46 1
  24    7   29 1
  25    7   30 1
  26    8   30 ar
  27    8   47 1
  28    8    9 ar
  29    9   10 ar
  30    9   32 1
  31   10   11 ar
  32   10   48 1
  33   11   31 ar
  34   11   18 1
  35   12   23 1
  36   12   13 ar
  37   12   17 ar
  38   13   49 1
  39   13   14 ar
  40   14   50 1
  41   14   22 ar
  42   15   20 am
  43   15   19 2
  44   15   21 1
  45   16   17 ar
  46   16   22 ar
  47   16   21 1
  48   17   51 1
  49   20   22 1
  50   20   52 1
  51   23   24 1
  52   23   53 1
  53   24   54 1
  54   26   27 am
  55   27   28 2
  56   27   29 1
  57   30   31 ar
  58   31   55 1

#	End of record

