#	Name: ASD10410200
#	Creating user name:	WinNT
#	Creation time:	15. 06. 2019 21:27

#	Modifying user name:	WinNT
#	Modification time:	15. 06. 2019 21:27

#	Program:	/corina/corina34_cracker 3.40 0067  02.08.2006

@<TRIPOS>MOLECULE
ASD10410200
  50   53    0    0    0
SMALL
NO_CHARGES


@<TRIPOS>ATOM
   1 C1            -0.0183     1.3924    -0.0811 C.ar    
   2 C2            -0.0057     0.0094     0.0247 C.ar    
   3 C3             1.2007    -0.6691     0.1154 C.ar    
   4 C4             2.3904     0.0319     0.1009 C.ar    
   5 C5             2.3788     1.4166    -0.0050 C.ar    
   6 C6             1.1705     2.0950    -0.0962 C.ar    
   7 O7            -1.1769    -0.6816     0.0400 O.3     
   8 N8             3.5843     2.1280    -0.0197 N.pl3   
   9 C9             3.6712     3.3387    -0.7070 C.2     
  10 N10            4.7093     4.1402    -0.7091 N.2     
  11 N11            2.7110     3.8669    -1.4750 N.2     
  12 C12            3.1219     5.0139    -1.9719 C.2     
  13 N13            4.3785     5.2372    -1.5209 N.pl3   
  14 C14            5.1861     6.3404    -1.8064 C.ar    
  15 N15            2.3994     5.8426    -2.8092 N.pl3   
  16 C16            6.1900     6.7066    -0.9181 C.ar    
  17 C17           -1.0897    -2.1037     0.1511 C.3     
  18 C18           -2.4976    -2.7024     0.1518 C.3     
  19 N19           -3.1366    -2.4526    -1.1472 N.3     
  20 C20           -4.3934    -3.2133    -1.2728 C.3     
  21 C21           -5.5166    -2.1958    -1.5632 C.3     
  22 C22           -4.7466    -0.9828    -2.1485 C.3     
  23 C23           -3.4366    -1.0156    -1.3224 C.3     
  24 N24            4.9914     7.0237    -2.9232 N.ar    
  25 C25            5.7309     8.0713    -3.2314 C.ar    
  26 C26            6.7439     8.4951    -2.3917 C.ar    
  27 C27            6.9835     7.8018    -1.2127 C.ar    
  28 Br28           7.7970     9.9982    -2.8474 Br      
  29 H29           -0.9579     1.9196    -0.1561 H       
  30 H30            1.2096    -1.7459     0.1977 H       
  31 H31            3.3296    -0.4965     0.1722 H       
  32 H32            1.1605     3.1718    -0.1789 H       
  33 H33            4.3591     1.7790     0.4479 H       
  34 H34            1.5018     5.5946    -3.0807 H       
  35 H35            2.7899     6.6724    -3.1254 H       
  36 H36            6.3488     6.1443    -0.0098 H       
  37 H37           -0.5266    -2.5003    -0.6937 H       
  38 H38           -0.5832    -2.3651     1.0802 H       
  39 H39           -2.4355    -3.7767     0.3255 H       
  40 H40           -3.0887    -2.2402     0.9424 H       
  41 H41           -4.3157    -3.9246    -2.0951 H       
  42 H42           -4.6023    -3.7406    -0.3420 H       
  43 H43           -6.2192    -2.5955    -2.2945 H       
  44 H44           -6.0321    -1.9179    -0.6439 H       
  45 H45           -4.5426    -1.1250    -3.2098 H       
  46 H46           -5.2924    -0.0548    -1.9783 H       
  47 H47           -3.5867    -0.5384    -0.3539 H       
  48 H48           -2.6314    -0.5236    -1.8680 H       
  49 H49            5.5430     8.6045    -4.1516 H       
  50 H50            7.7685     8.1123    -0.5391 H       
@<TRIPOS>BOND
   1    1    2 ar
   2    1    6 ar
   3    1   29 1
   4    2    3 ar
   5    2    7 1
   6    3    4 ar
   7    3   30 1
   8    4    5 ar
   9    4   31 1
  10    5    6 ar
  11    5    8 1
  12    6   32 1
  13    7   17 1
  14    8    9 1
  15    8   33 1
  16    9   10 2
  17    9   11 1
  18   10   13 1
  19   11   12 2
  20   12   13 1
  21   12   15 1
  22   13   14 1
  23   14   16 ar
  24   14   24 ar
  25   15   34 1
  26   15   35 1
  27   16   27 ar
  28   16   36 1
  29   17   18 1
  30   17   37 1
  31   17   38 1
  32   18   19 1
  33   18   39 1
  34   18   40 1
  35   19   20 1
  36   19   23 1
  37   20   21 1
  38   20   41 1
  39   20   42 1
  40   21   22 1
  41   21   43 1
  42   21   44 1
  43   22   23 1
  44   22   45 1
  45   22   46 1
  46   23   47 1
  47   23   48 1
  48   24   25 ar
  49   25   26 ar
  50   25   49 1
  51   26   27 ar
  52   26   28 1
  53   27   50 1

#	End of record

