#	Name: ASD10160167
#	Creating user name:	WinNT
#	Creation time:	15. 06. 2019 21:25

#	Modifying user name:	WinNT
#	Modification time:	15. 06. 2019 21:25

#	Program:	/corina/corina34_cracker 3.40 0067  02.08.2006

@<TRIPOS>MOLECULE
ASD10160167
  35   37    0    0    0
SMALL
NO_CHARGES


@<TRIPOS>ATOM
   1 C1            -0.0791     1.4495    -0.4925 C.2     
   2 C2            -0.0430    -0.0195    -0.3683 C.ar    
   3 C3             1.1497    -0.7145    -0.6004 C.ar    
   4 C4             1.1784    -2.0897    -0.4829 C.ar    
   5 C5             0.0268    -2.7827    -0.1353 C.ar    
   6 C6            -1.1616    -2.0951     0.0964 C.ar    
   7 C7            -1.1985    -0.7218    -0.0129 C.ar    
   8 O8             0.9282     2.0589    -0.7969 O.2     
   9 N9            -1.2299     2.1161    -0.2741 N.am    
  10 O10            0.0593    -4.1351    -0.0213 O.3     
  11 C11            3.4459    -5.1873     0.6543 C.2     
  12 N12            3.6727    -6.0049    -0.3835 N.2     
  13 C13            2.7469    -6.2169    -1.2920 C.2     
  14 C14            1.5030    -5.5894    -1.1922 C.2     
  15 C15            1.2564    -4.7539    -0.1406 C.2     
  16 N16            2.2386    -4.5521     0.7907 N.pl3   
  17 N17            2.2958    -3.7760     1.9536 N.2     
  18 C18            3.4781    -3.9255     2.5055 C.2     
  19 C19            4.2288    -4.8008     1.7336 C.2     
  20 S20           -1.2705     3.7657    -0.4135 S.o2    
  21 O21           -2.6111     4.1116    -0.0934 O.2     
  22 O22           -0.1869     4.2121     0.3901 O.2     
  23 C23           -0.9335     4.0801    -2.1680 C.3     
  24 F24           -2.2792    -2.7748     0.4344 F       
  25 F25            2.2706    -0.0407    -0.9392 F       
  26 H26            2.0979    -2.6271    -0.6621 H       
  27 H27           -2.1197    -0.1891     0.1718 H       
  28 H28           -2.0344     1.6296    -0.0351 H       
  29 H29            2.9494    -6.8790    -2.1208 H       
  30 H30            0.7430    -5.7639    -1.9394 H       
  31 H31            3.8109    -3.4476     3.4150 H       
  32 H32            5.2400    -5.1221     1.9351 H       
  33 H33           -1.7005     3.6013    -2.7767 H       
  34 H34           -0.9413     5.1543    -2.3527 H       
  35 H35            0.0436     3.6736    -2.4288 H       
@<TRIPOS>BOND
   1    1    2 1
   2    1    8 2
   3    1    9 am
   4    2    3 ar
   5    2    7 ar
   6    3    4 ar
   7    3   25 1
   8    4    5 ar
   9    4   26 1
  10    5    6 ar
  11    5   10 1
  12    6    7 ar
  13    6   24 1
  14    7   27 1
  15    9   20 am
  16    9   28 1
  17   10   15 1
  18   11   12 1
  19   11   16 1
  20   11   19 2
  21   12   13 2
  22   13   14 1
  23   13   29 1
  24   14   15 2
  25   14   30 1
  26   15   16 1
  27   16   17 1
  28   17   18 2
  29   18   19 1
  30   18   31 1
  31   19   32 1
  32   20   21 2
  33   20   22 2
  34   20   23 1
  35   23   33 1
  36   23   34 1
  37   23   35 1

#	End of record

