#	Name: ASD13920002
#	Creating user name:	WinNT
#	Creation time:	15. 06. 2019 21:30

#	Modifying user name:	WinNT
#	Modification time:	15. 06. 2019 21:30

#	Program:	/corina/corina34_cracker 3.40 0067  02.08.2006

@<TRIPOS>MOLECULE
ASD13920002
 816  829    0    0    0
SMALL
NO_CHARGES


@<TRIPOS>ATOM
   1 O1            50.5834   -12.4121     4.9555 O.2     
   2 O2            48.6514   -12.0067     2.7560 O.2     
   3 O3            53.8417   -11.3072     6.3931 O.2     
   4 O4            46.5679   -12.5477     1.0052 O.2     
   5 O5            52.7508   -11.3262     9.4035 O.3     
   6 O6            46.6793   -13.8790    -3.4210 O.2     
   7 O7            51.5179   -15.0751     7.9520 O.2     
   8 O8            48.2448    -8.3129     0.6633 O.3     
   9 O9            48.3253    -8.5755    -1.5294 O.2     
  10 O10           42.7947   -12.8949    -4.8502 O.3     
  11 O11           55.0433   -17.7925     9.2192 O.2     
  12 O12           44.8172   -10.3419    -5.7442 O.2     
  13 O13           52.5905   -18.2389    11.4977 O.3     
  14 O14           46.2079   -10.9269    -9.7222 O.3     
  15 O15           53.1996   -22.0200     9.7541 O.2     
  16 O16           43.1044   -12.2526    -9.5902 O.2     
  17 O17           57.3345   -23.4919    10.2487 O.3     
  18 O18           56.4129   -23.7725    12.7566 O.2     
  19 O19           42.2537    -8.4353   -12.2460 O.2     
  20 O20           24.2921   -29.1690     2.0246 O.2     
  21 O21           24.2998   -30.2438     4.5899 O.2     
  22 O22           23.5601   -34.8616     5.1367 O.2     
  23 O23           42.0452    -9.5690   -16.3415 O.3     
  24 O24           21.3464   -36.2794     5.4348 O.2     
  25 O25           38.9435    -9.9922   -15.0735 O.2     
  26 O26           26.5236   -25.6120     0.0840 O.2     
  27 O27           20.3149   -39.8791     8.1466 O.2     
  28 O28           38.7161    -6.8351   -18.4435 O.2     
  29 O29           23.2380   -23.3641    -2.2670 O.2     
  30 O30           -0.3764   -73.2080     6.9802 O.2     
  31 O31            1.1732   -75.5316     6.8640 O.2     
  32 O32           22.4785   -28.2401    -3.2554 O.2     
  33 O33           24.1565   -40.0849     3.7170 O.2     
  34 O34           34.3954    -7.1670   -20.0552 O.2     
  35 O35            0.9382   -69.1749     4.9879 O.2     
  36 O36           25.4978   -21.2956    -5.7298 O.2     
  37 O37           34.6594    -5.4050   -24.3857 O.2     
  38 O38           18.7728   -43.0361     4.9836 O.2     
  39 O39            1.0595   -79.5520     5.9733 O.2     
  40 O40           32.1467    -7.9556   -23.0559 O.2     
  41 O41           23.8616   -16.7819   -11.2465 O.2     
  42 O42           22.3216   -21.8657    -6.7269 O.3     
  43 O43           25.0774   -14.7507   -12.4273 O.2     
  44 O44           -0.3205   -76.0911     9.2328 O.2     
  45 O45           22.8721   -17.6478    -6.8140 O.2     
  46 O46           39.1493    -8.9851   -22.9734 O.2     
  47 O47            2.5548   -67.0204     7.0085 O.2     
  48 O48           -2.7982   -67.4158     9.0651 O.3     
  49 O49           -0.6708   -66.8183     9.0373 O.2     
  50 O50           32.1288    -2.6747   -20.0649 O.2     
  51 O51            2.7303   -82.0303     9.5006 O.2     
  52 O52           16.0529   -45.7118     7.5949 O.2     
  53 O53           27.7943    -8.3419   -21.2512 O.2     
  54 O54           24.1935   -12.4379   -16.4311 O.2     
  55 O55            2.5127   -62.4804     6.1350 O.2     
  56 O56           28.2983   -12.1311   -18.4982 O.2     
  57 O57           26.5677   -10.6105   -14.8719 O.3     
  58 O58           15.0638   -49.3741     4.8287 O.2     
  59 O59            1.5912   -84.4185     9.5513 O.2     
  60 O60            2.7683   -77.5277     2.1961 O.3     
  61 O61            6.2663   -83.7032     8.1045 O.2     
  62 O62            6.9743   -61.3322     5.7445 O.2     
  63 O63           11.9227   -51.6200     7.5161 O.2     
  64 O64            8.7100   -63.3930     9.4327 O.3     
  65 O65            3.1967   -86.5102    13.3491 O.2     
  66 O66            6.7028   -64.2145     9.8567 O.2     
  67 O67            7.1208   -56.8481     6.8613 O.2     
  68 O68           10.9160   -55.2569     4.7156 O.2     
  69 O69            1.9042   -89.4716    13.9864 O.2     
  70 O70           12.3386   -59.5303     6.8164 O.2     
  71 O71            0.5331   -85.0867    15.7687 O.2     
  72 O72            5.0571   -90.5269    16.6409 O.3     
  73 O73            2.1744   -91.1080    18.3021 O.2     
  74 O74            4.4423   -95.1152    17.8841 O.2     
  75 O75            3.6677   -97.0870    22.1103 O.2     
  76 O76            7.2780   -99.9523    22.4721 O.2     
  77 O77            6.1816  -102.7646    25.9742 O.2     
  78 O78            8.1721  -102.8086    28.6369 O.2     
  79 N79           48.4936   -11.8174     5.4038 N.am    
  80 N80           47.9882   -14.1160     2.5747 N.am    
  81 N81           51.8389   -10.3988     6.1003 N.am    
  82 N82           47.3262   -13.2449    -0.9597 N.am    
  83 N83           53.0734   -13.5423     7.5611 N.am    
  84 N84           45.4203   -12.1197    -3.9127 N.am    
  85 N85           53.1121   -17.1373     8.3456 N.am    
  86 N86           44.5566   -11.7033    -7.4764 N.am    
  87 N87           54.3035   -20.1345    10.1391 N.am    
  88 N88           42.9890   -10.2190   -10.4695 N.am    
  89 N89           54.7522   -23.5605    11.3008 N.am    
  90 N90           26.2612   -29.6809     2.9090 N.am    
  91 N91           41.1074    -9.7568   -13.6104 N.am    
  92 N92           55.6913   -26.0314    13.8812 N.3     
  93 N93           22.2381   -34.2058     6.7933 N.am    
  94 N94           24.2122   -32.4368     4.2659 N.am    
  95 N95           24.9216   -26.7962     1.0605 N.am    
  96 N96           21.4913   -37.8222     7.0225 N.am    
  97 N97           39.0334    -8.0492   -16.1405 N.am    
  98 N98           25.1009   -24.4763    -1.8040 N.am    
  99 N99            0.0172   -74.0928     4.9842 N.am    
 100 N100          36.7466    -7.6825   -19.0137 N.am    
 101 N101          19.7934   -41.0222     6.3181 N.am    
 102 N102          -0.1096   -77.3385     6.7556 N.am    
 103 N103           0.4961   -70.7661     6.4693 N.am    
 104 N104          24.2190   -21.6012    -3.9428 N.am    
 105 N105          32.4681    -5.7451   -24.4525 N.am    
 106 N106          35.2732    -9.2746   -12.7323 N.pl3   
 107 N107          35.0512    -6.0468   -21.8543 N.am    
 108 N108          21.1209   -26.8511    -4.3275 N.am    
 109 N109          22.9064   -14.4684   -12.0682 N.am    
 110 N110          24.4901   -38.1457     2.6923 N.am    
 111 N111          24.0194   -19.5379    -6.9961 N.am    
 112 N112           2.0947   -80.0836     7.8621 N.am    
 113 N113           0.4038   -67.0769     6.4682 N.am    
 114 N114          28.9584   -19.4215    -3.7351 N.pl3   
 115 N115          18.0271   -44.2410     6.6908 N.am    
 116 N116          23.6015   -16.5076    -9.0604 N.am    
 117 N117          30.0311    -7.6773   -22.4485 N.am    
 118 N118          25.1464   -13.6765   -14.8564 N.am    
 119 N119          34.2146    -9.8905   -10.6901 N.pl3   
 120 N120          -1.5766   -77.2836    10.6193 N.am    
 121 N121          33.3554    -8.1875   -12.0102 N.2     
 122 N122          41.0556    -8.7720   -21.8586 N.am    
 123 N123           3.1307   -64.6111     6.1468 N.am    
 124 N124           3.5076   -83.4891     8.0208 N.am    
 125 N125          15.7615   -47.0239     5.8298 N.am    
 126 N126          28.4351   -10.2727   -20.3662 N.am    
 127 N127          26.5223   -16.0966   -10.5147 N.pl3   
 128 N128          30.7431   -17.8978    -4.1398 N.pl3   
 129 N129          32.3489    -3.6086   -18.0645 N.am    
 130 N130          26.3568   -11.5336   -17.6063 N.am    
 131 N131          30.2923   -18.6612    -1.9961 N.2     
 132 N132          26.9424   -17.4643   -12.1302 N.2     
 133 N133           4.8684   -61.3688     6.4415 N.am    
 134 N134          13.8746   -50.0857     6.5611 N.am    
 135 N135           2.8066   -85.7133    10.8810 N.am    
 136 N136           0.7586   -62.1766     0.5113 N.3     
 137 N137          11.7586   -52.9626     5.7576 N.am    
 138 N138           7.3533   -58.7372     5.7214 N.am    
 139 N139           7.1058   -82.6434     9.8635 N.am    
 140 N140           1.0985   -86.9772    13.8983 N.am    
 141 N141           9.4263   -55.7370     6.2880 N.am    
 142 N142          -0.9150   -86.0987     7.9825 N.pl3   
 143 N143           3.8097   -55.0920     4.5331 N.pl3   
 144 N144           2.3547   -89.6140    16.1541 N.am    
 145 N145          13.9395   -58.4196     5.7556 N.am    
 146 N146          -0.9852   -85.6259    17.2938 N.am    
 147 N147           2.0780   -54.9948     2.9015 N.pl3   
 148 N148           2.8830   -53.0619     3.8999 N.2     
 149 N149           2.9254   -93.0181    17.4599 N.am    
 150 N150           3.7281   -95.6548    19.9140 N.am    
 151 N151           5.2218   -98.5828    21.5917 N.am    
 152 N152           6.4083  -100.7018    24.3705 N.am    
 153 N153           8.3162  -103.3602    26.0769 N.am    
 154 N154          10.4004   -97.3427    24.1776 N.pl3   
 155 N155           7.6975  -104.8362    29.4023 N.am    
 156 N156          11.6490   -95.3723    23.6991 N.pl3   
 157 N157          11.7416   -96.3608    25.7956 N.2     
 158 C158          47.8292   -12.9566     4.7539 C.3     
 159 C159          46.3081   -12.7547     4.9186 C.3     
 160 C160          50.3701   -10.3978     6.1666 C.3     
 161 C161          47.4629   -10.9366     5.9829 C.3     
 162 C162          46.1842   -11.2268     5.1581 C.3     
 163 C163          48.1911   -14.2565     1.1253 C.3     
 164 C164          49.8246   -11.6149     5.4650 C.2     
 165 C165          48.1861   -12.9912     3.2902 C.2     
 166 C166          49.8803    -9.1186     5.4559 C.3     
 167 C167          47.5262   -15.4077     3.1147 C.3     
 168 C168          47.8155   -15.7051     0.7483 C.3     
 169 C169          51.0740    -8.7544     4.5340 C.3     
 170 C170          52.2817    -9.1746     5.4085 C.3     
 171 C171          46.8753   -16.1314     1.9096 C.3     
 172 C172          52.6469   -11.3573     6.5953 C.2     
 173 C173          47.3032   -13.2881     0.3872 C.2     
 174 C174          52.0657   -12.4912     7.4000 C.3     
 175 C175          46.4630   -12.3035    -1.6772 C.3     
 176 C176          51.6425   -11.9751     8.7767 C.3     
 177 C177          47.1567   -10.9429    -1.7679 C.3     
 178 C178          46.1960   -12.8249    -3.0657 C.2     
 179 C179          52.6898   -14.8160     7.7777 C.2     
 180 C180          53.7171   -15.9183     7.8032 C.3     
 181 C181          47.3156   -10.3568    -0.3636 C.3     
 182 C182          54.2144   -16.1851     6.3811 C.3     
 183 C183          54.9705   -14.9584     5.8667 C.3     
 184 C184          45.1608   -12.6266    -5.2626 C.3     
 185 C185          47.9989    -9.0166    -0.4530 C.2     
 186 C186          56.2545   -14.7735     6.6779 C.3     
 187 C187          55.3236   -15.1585     4.3915 C.3     
 188 C188          53.8754   -18.0350     8.9999 C.2     
 189 C189          43.9805   -13.5993    -5.2239 C.3     
 190 C190          44.8327   -11.4747    -6.1772 C.2     
 191 C191          53.2776   -19.3399     9.4590 C.3     
 192 C192          52.1248   -19.0608    10.4254 C.3     
 193 C193          44.2376   -10.5835    -8.3655 C.3     
 194 C194          54.1923   -21.4767    10.1903 C.2     
 195 C195          45.5340    -9.9717    -8.9003 C.3     
 196 C196          43.4032   -11.0794    -9.5183 C.2     
 197 C197          55.3015   -22.3023    10.7895 C.3     
 198 C198          56.3505   -22.6024     9.7170 C.3     
 199 C199          57.0232   -21.2986     9.2826 C.3     
 200 C200          42.1779   -10.7010   -11.5902 C.3     
 201 C201          55.3869   -24.2204    12.2899 C.2     
 202 C202          41.8498    -9.5492   -12.5048 C.2     
 203 C203          54.8219   -25.5146    12.8158 C.3     
 204 C204          25.9871   -31.0998     3.1792 C.3     
 205 C205          27.2238   -31.6761     3.9004 C.3     
 206 C206          27.6123   -29.3580     3.4029 C.3     
 207 C207          27.8957   -30.4132     4.5011 C.3     
 208 C208          25.8780   -27.4219     1.9770 C.3     
 209 C209          25.4191   -28.8194     2.3047 C.2     
 210 C210          40.7885    -8.6370   -14.4995 C.3     
 211 C211          22.1678   -35.4918     7.5024 C.3     
 212 C212          24.7727   -31.2281     4.0623 C.2     
 213 C213          25.9646   -26.5987     3.2638 C.3     
 214 C214          21.2053   -35.3058     8.6943 C.3     
 215 C215          21.3895   -33.2292     7.5001 C.3     
 216 C216          20.3484   -34.0867     8.2620 C.3     
 217 C217          23.0317   -32.5615     5.1244 C.3     
 218 C218          22.9630   -33.9590     5.6842 C.2     
 219 C219          24.5584   -26.3820     3.8262 C.3     
 220 C220          41.9371    -8.4277   -15.4883 C.3     
 221 C221          26.6069   -25.2436     2.9601 C.3     
 222 C222          21.6390   -36.5583     6.5783 C.2     
 223 C223          39.5224    -8.9425   -15.2577 C.2     
 224 C224          21.7719   -32.2785     4.3035 C.3     
 225 C225          25.3555   -25.9367     0.1174 C.2     
 226 C226          24.0549   -27.6824     4.4557 C.3     
 227 C227          24.3892   -25.3791    -0.8958 C.3     
 228 C228          20.9773   -38.8590     6.1242 C.3     
 229 C229          37.8026    -8.3461   -16.8776 C.3     
 230 C230          23.7720   -26.5268    -1.6974 C.3     
 231 C231          22.1300   -39.4386     5.3018 C.3     
 232 C232          36.5922    -7.9502   -16.0296 C.3     
 233 C233          -0.5454   -75.4248     5.2501 C.3     
 234 C234          -0.4296   -76.2400     3.9449 C.3     
 235 C235           0.7057   -75.5106     3.1792 C.3     
 236 C236           0.4507   -74.0352     3.5763 C.3     
 237 C237          20.3385   -39.9559     6.9364 C.2     
 238 C238          22.7009   -25.9729    -2.6391 C.3     
 239 C239          37.7890    -7.5666   -18.1673 C.2     
 240 C240          22.6982   -38.3537     4.3847 C.3     
 241 C241          36.5367    -8.8290   -14.7783 C.3     
 242 C242          24.4304   -23.4975    -2.4435 C.2     
 243 C243           0.1152   -73.0887     5.8779 C.2     
 244 C244           0.8355   -71.8179     5.5075 C.3     
 245 C245          25.1625   -22.5690    -3.3777 C.3     
 246 C246           0.2350   -76.1010     6.3477 C.2     
 247 C247           2.3456   -72.0622     5.5309 C.3     
 248 C248          26.2546   -21.8256    -2.6059 C.3     
 249 C249          35.3263    -8.4331   -13.9303 C.3     
 250 C250          22.0930   -27.1033    -3.4287 C.2     
 251 C251           3.0713   -70.8210     5.0077 C.3     
 252 C252          36.7333    -6.9247   -20.2674 C.3     
 253 C253          23.8335   -38.9246     3.5748 C.2     
 254 C254          27.0779   -20.9772    -3.5770 C.3     
 255 C255          19.1723   -42.0885     7.1077 C.3     
 256 C256           0.7099   -78.0371     7.7489 C.3     
 257 C257          31.1483    -5.9677   -23.8441 C.3     
 258 C258          37.5013    -7.6998   -21.3399 C.3     
 259 C259          30.1184    -6.0244   -24.9920 C.3     
 260 C260          32.3029    -5.6359   -25.9134 C.3     
 261 C261          30.9886    -6.3957   -26.2217 C.3     
 262 C262          35.3092    -6.7222   -20.7169 C.2     
 263 C263           4.5823   -71.0169     5.1472 C.3     
 264 C264           2.7186   -70.6071     3.5344 C.3     
 265 C265          33.6668    -5.8499   -22.2913 C.3     
 266 C266           0.5809   -69.4703     6.1086 C.2     
 267 C267          22.9191   -14.7115   -10.6183 C.3     
 268 C268          24.4809   -21.0186    -5.1296 C.2     
 269 C269          33.6350    -5.6505   -23.7847 C.2     
 270 C270          28.1700   -20.2339    -2.8052 C.3     
 271 C271          21.4566   -14.6463   -10.1299 C.3     
 272 C272          -0.1609   -78.4280     8.9446 C.3     
 273 C273          20.6458   -14.9314   -11.4217 C.3     
 274 C274           0.2318   -68.3884     7.0979 C.3     
 275 C275          21.5155   -14.2313   -12.4956 C.3     
 276 C276          23.5103   -20.0231    -5.7109 C.3     
 277 C277          38.9753    -7.7974   -20.9415 C.3     
 278 C278          18.6436   -43.1550     6.1836 C.2     
 279 C279           1.2999   -79.2781     7.1301 C.2     
 280 C280          33.0842    -4.6159   -21.5995 C.3     
 281 C281          31.1457    -7.2715   -23.0884 C.2     
 282 C282          23.4946   -16.0746   -10.3322 C.2     
 283 C283          -1.2229   -68.5539     7.5424 C.3     
 284 C284          23.9878   -14.4581   -12.8725 C.2     
 285 C285          24.1610   -17.8326    -8.7823 C.3     
 286 C286          22.1531   -20.6973    -5.9216 C.3     
 287 C287          34.2645    -9.1008   -11.8144 C.2     
 288 C288          33.0500    -4.8474   -20.0875 C.3     
 289 C289          -0.6909   -77.1832     9.6083 C.2     
 290 C290           2.6683   -81.2899     7.2606 C.3     
 291 C291          23.8432   -14.0832   -14.3249 C.3     
 292 C292          23.6374   -18.3317    -7.4603 C.2     
 293 C293          39.7318    -8.5608   -21.9979 C.2     
 294 C294          17.5131   -45.2778     5.7924 C.3     
 295 C295          25.6871   -17.7399    -8.7241 C.3     
 296 C296           1.5988   -66.4558     6.5205 C.2     
 297 C297           1.7470   -65.0598     5.9725 C.3     
 298 C298           3.9602   -80.9282     6.5250 C.3     
 299 C299          30.0286    -8.9448   -21.7138 C.3     
 300 C300          -1.5434   -67.5324     8.6030 C.2     
 301 C301          30.0032   -18.6602    -3.2671 C.2     
 302 C302          23.3241   -15.2874   -15.1132 C.3     
 303 C303          32.4761    -3.6319   -19.4061 C.2     
 304 C304           1.3932   -65.0559     4.4840 C.3     
 305 C305           2.9705   -82.2954     8.3417 C.2     
 306 C306          18.6368   -46.2576     5.4486 C.3     
 307 C307          26.2193   -17.3593   -10.0817 C.2     
 308 C308          16.3904   -46.0192     6.4713 C.2     
 309 C309           1.4226   -63.6200     3.9565 C.3     
 310 C310           3.6409   -80.0184     5.3669 C.ar    
 311 C311          28.6724    -9.1637   -21.0944 C.2     
 312 C312          25.2127   -12.8474   -15.9168 C.2     
 313 C313          27.1544   -10.4341   -19.6735 C.3     
 314 C314          26.5533   -12.4290   -16.4635 C.3     
 315 C315          14.6701   -47.7446     6.4898 C.3     
 316 C316           3.9034   -84.4224     9.0784 C.3     
 317 C317           1.0689   -63.6162     2.4680 C.3     
 318 C318          26.1014   -10.9425   -20.6603 C.3     
 319 C319          26.4878   -18.1961   -11.1021 C.2     
 320 C320           3.4084   -63.2941     6.2165 C.2     
 321 C321          13.3580   -46.9858     6.2809 C.3     
 322 C322          27.3119   -11.4274   -18.5512 C.2     
 323 C323           4.8317   -62.8326     6.3957 C.3     
 324 C324          24.7595   -11.0942   -19.9411 C.3     
 325 C325           3.6327   -78.6477     5.5479 C.ar    
 326 C326           3.3623   -80.5555     4.1236 C.ar    
 327 C327          27.3433   -11.7004   -15.3746 C.3     
 328 C328           4.8914   -83.7342    10.0224 C.3     
 329 C329          14.5510   -49.1260     5.8994 C.2     
 330 C330           1.0983   -62.1803     1.9405 C.3     
 331 C331          26.9657   -16.2058   -11.7856 C.2     
 332 C332           5.3903   -63.3979     7.7032 C.3     
 333 C333           2.6836   -84.8504     9.8530 C.2     
 334 C334          12.2419   -47.6690     7.0737 C.3     
 335 C335          13.5197   -45.5441     6.7667 C.3     
 336 C336           3.3408   -77.8115     4.4878 C.ar    
 337 C337           3.0698   -79.7236     3.0603 C.ar    
 338 C338          24.2584    -9.7172   -19.5009 C.3     
 339 C339          23.7409   -11.7281   -20.8905 C.3     
 340 C340          13.6633   -51.3949     5.9384 C.3     
 341 C341           3.0558   -78.3482     3.2406 C.ar    
 342 C342           6.8714   -63.0337     7.8247 C.3     
 343 C343          14.8385   -52.3152     6.2746 C.3     
 344 C344           1.6208   -86.1294    11.6340 C.3     
 345 C345           6.1365   -83.3598     9.2604 C.2     
 346 C346           5.9928   -60.7117     6.0945 C.2     
 347 C347           6.0305   -59.2059     6.1416 C.3     
 348 C348          14.6740   -53.6437     5.5337 C.3     
 349 C349          12.3860   -51.9997     6.4616 C.2     
 350 C350           0.9495   -87.3042    10.9198 C.3     
 351 C351           4.9659   -58.6394     5.2000 C.3     
 352 C352          10.4800   -53.4999     6.2297 C.3     
 353 C353           2.0297   -86.5523    13.0215 C.2     
 354 C354           7.4215   -63.5904     9.1125 C.2     
 355 C355           0.4313   -86.8480     9.5803 C.2     
 356 C356           4.9191   -57.1166     5.3403 C.3     
 357 C357           9.3393   -52.6045     5.7418 C.3     
 358 C358          14.7522   -53.3996     4.0254 C.3     
 359 C359          15.7894   -54.6032     5.9536 C.3     
 360 C360           9.1682   -57.0565     5.7060 C.3     
 361 C361           7.8074   -57.5386     6.1382 C.2     
 362 C362          10.2906   -54.8939     5.6893 C.2     
 363 C363           1.1921   -86.7752     8.3305 C.ar    
 364 C364          10.2348   -58.0430     6.1855 C.3     
 365 C365           3.8545   -56.5501     4.3987 C.3     
 366 C366          -0.8151   -86.4320     9.3058 C.2     
 367 C367           1.5063   -87.4918    15.2079 C.3     
 368 C368           7.9986   -53.2200     6.1474 C.3     
 369 C369           9.4749   -51.2169     6.3720 C.3     
 370 C370           0.2956   -86.2972     7.3571 C.ar    
 371 C371          11.6012   -57.6210     5.6416 C.3     
 372 C372           2.5109   -87.0679     7.9789 C.ar    
 373 C373           0.3287   -87.4015    16.1806 C.3     
 374 C374           0.7387   -86.1210     6.0506 C.ar    
 375 C375           1.9357   -88.9299    15.0711 C.2     
 376 C376           2.9249   -86.8881     6.6889 C.ar    
 377 C377           2.0449   -86.4153     5.7254 C.ar    
 378 C378          12.6518   -58.5926     6.1139 C.2     
 379 C379          -0.0329   -85.9549    16.3987 C.2     
 380 C380           2.9228   -54.3592     3.7803 C.2     
 381 C381           2.7721   -91.0119    16.0211 C.3     
 382 C382           4.2418   -91.0674    15.5992 C.3     
 383 C383           2.6021   -91.7149    17.3432 C.2     
 384 C384           2.7601   -93.7015    18.7452 C.3     
 385 C385           1.3191   -94.1983    18.8771 C.3     
 386 C386           3.7041   -94.8741    18.8157 C.2     
 387 C387           0.3837   -93.0179    18.9300 C.ar    
 388 C388          -0.1455   -92.5025    17.7616 C.ar    
 389 C389           0.0504   -92.4541    20.1474 C.ar    
 390 C390           4.6458   -96.7947    19.9826 C.3     
 391 C391          -1.0035   -91.4197    17.8101 C.ar    
 392 C392          -0.8076   -91.3714    20.1959 C.ar    
 393 C393           4.4758   -97.4977    21.3047 C.2     
 394 C394          -1.3327   -90.8526    19.0271 C.ar    
 395 C395           5.0566   -99.2662    22.8770 C.3     
 396 C396           3.9033  -100.2667    22.7780 C.3     
 397 C397           2.5920   -99.5125    22.5491 C.3     
 398 C398           6.3277   -99.9975    23.2242 C.2     
 399 C399           1.4587  -100.5159    22.3259 C.3     
 400 C400           2.2776   -98.6524    23.7748 C.3     
 401 C401           7.6440  -101.4127    24.7080 C.3     
 402 C402           8.6118  -100.4521    25.4019 C.3     
 403 C403           7.3269  -102.5605    25.6316 C.2     
 404 C404           9.0311   -99.3544    24.4220 C.3     
 405 C405           9.9989   -98.3938    25.1158 C.3     
 406 C406           8.0079  -104.4760    26.9748 C.3     
 407 C407           9.0886  -105.5509    26.8422 C.3     
 408 C408           7.9653  -103.9793    28.3970 C.2     
 409 C409           9.0491  -106.1342    25.4532 C.ar    
 410 C410          11.2722   -96.3587    24.5796 C.2     
 411 C411           9.8105  -105.5723    24.4456 C.ar    
 412 C412           8.2557  -107.2348    25.1881 C.ar    
 413 C413           9.7742  -106.1073    23.1715 C.ar    
 414 C414           8.2194  -107.7698    23.9140 C.ar    
 415 C415           8.9768  -107.2046    22.9051 C.ar    
 416 H416          48.1339   -13.8865     5.2339 H       
 417 H417          45.7798   -13.0469     4.0110 H       
 418 H418          45.9361   -13.3113     5.7788 H       
 419 H419          50.0461   -10.3937     7.2073 H       
 420 H420          47.3010   -11.1814     7.0326 H       
 421 H421          47.7538    -9.8915     5.8767 H       
 422 H422          46.1957   -10.6812     4.2145 H       
 423 H423          45.2876   -10.9927     5.7320 H       
 424 H424          49.2357   -14.0679     0.8773 H       
 425 H425          48.9863    -9.3231     4.8667 H       
 426 H426          49.6940    -8.3236     6.1779 H       
 427 H427          48.3703   -15.9845     3.4928 H       
 428 H428          46.7910   -15.2480     3.9035 H       
 429 H429          47.2832   -15.7304    -0.2025 H       
 430 H430          48.7032   -16.3366     0.7116 H       
 431 H431          51.0427    -9.3297     3.6087 H       
 432 H432          51.0952    -7.6846     4.3266 H       
 433 H433          52.5162    -8.3937     6.1319 H       
 434 H434          53.1485    -9.3853     4.7821 H       
 435 H435          46.8929   -17.2125     2.0471 H       
 436 H436          45.8581   -15.7767     1.7437 H       
 437 H437          51.1971   -12.8970     6.8814 H       
 438 H438          47.9143   -13.8372    -1.4539 H       
 439 H439          45.5195   -12.1954    -1.1421 H       
 440 H440          51.3151   -12.8119     9.3936 H       
 441 H441          50.8231   -11.2654     8.6626 H       
 442 H442          54.0167   -13.3215     7.5119 H       
 443 H443          48.1392   -11.0657    -2.2237 H       
 444 H444          46.5553   -10.2683    -2.3773 H       
 445 H445          54.5561   -15.6187     8.4313 H       
 446 H446          46.3330   -10.2340     0.0921 H       
 447 H447          47.9170   -11.0313     0.2458 H       
 448 H448          52.5544   -10.9734    10.2822 H       
 449 H449          54.8810   -17.0475     6.3850 H       
 450 H450          53.3635   -16.3866     5.7304 H       
 451 H451          45.0338   -11.2767    -3.6286 H       
 452 H452          54.3428   -14.0737     5.9733 H       
 453 H453          52.1621   -17.2984     8.2339 H       
 454 H454          46.0460   -13.1438    -5.6329 H       
 455 H455          54.4089   -15.2903     3.8136 H       
 456 H456          55.8623   -14.2847     4.0251 H       
 457 H457          55.9513   -16.0433     4.2850 H       
 458 H458          56.7529   -13.8560     6.3652 H       
 459 H459          56.0086   -14.7103     7.7380 H       
 460 H460          56.9167   -15.6226     6.5086 H       
 461 H461          44.1811   -14.3852    -4.4957 H       
 462 H462          43.8436   -14.0438    -6.2097 H       
 463 H463          52.9033   -19.8915     8.5966 H       
 464 H464          48.6853    -7.4587     0.5557 H       
 465 H465          44.5690   -12.6093    -7.8227 H       
 466 H466          51.7503   -20.0029    10.8260 H       
 467 H467          51.3228   -18.5469     9.8956 H       
 468 H468          55.0627   -19.6946    10.5525 H       
 469 H469          42.0047   -13.4507    -4.8054 H       
 470 H470          43.6803    -9.8276    -7.8123 H       
 471 H471          46.1764    -9.6938    -8.0647 H       
 472 H472          45.3011    -9.0851    -9.4900 H       
 473 H473          55.7651   -21.7496    11.6067 H       
 474 H474          51.9108   -18.0214    12.1503 H       
 475 H475          55.8682   -23.0665     8.8567 H       
 476 H476          43.2280    -9.2807   -10.4121 H       
 477 H477          53.9316   -23.9187    10.9276 H       
 478 H478          47.0400   -10.6063   -10.0963 H       
 479 H479          57.4238   -20.7873    10.1580 H       
 480 H480          57.8341   -21.5216     8.5893 H       
 481 H481          56.2908   -20.6581     8.7913 H       
 482 H482          42.7352   -11.4569   -12.1435 H       
 483 H483          41.2543   -11.1369   -11.2092 H       
 484 H484          56.9783   -24.3407    10.5448 H       
 485 H485          54.7670   -26.2427    12.0065 H       
 486 H486          53.8229   -25.3393    13.2151 H       
 487 H487          25.8239   -31.6310     2.2415 H       
 488 H488          26.9236   -32.3655     4.6896 H       
 489 H489          27.8900   -32.1670     3.1910 H       
 490 H490          28.3413   -29.4439     2.5971 H       
 491 H491          27.6312   -28.3542     3.8273 H       
 492 H492          27.4263   -30.1318     5.4437 H       
 493 H493          28.9674   -30.5647     4.6300 H       
 494 H494          40.7843   -10.6477   -13.8174 H       
 495 H495          26.8598   -27.4631     1.5053 H       
 496 H496          23.1574   -35.7698     7.8649 H       
 497 H497          40.6485    -7.7321   -13.9083 H       
 498 H498          26.5707   -27.1320     3.9962 H       
 499 H499          55.8102   -25.3482    14.6142 H       
 500 H500          55.3336   -26.8995    14.2506 H       
 501 H501          20.5803   -36.1889     8.8268 H       
 502 H502          21.7593   -35.0837     9.6063 H       
 503 H503          21.9861   -32.6454     8.2010 H       
 504 H504          20.8913   -32.5730     6.7864 H       
 505 H505          19.5371   -34.3938     7.6020 H       
 506 H506          19.9627   -33.5526     9.1303 H       
 507 H507          23.1004   -31.8451     5.9431 H       
 508 H508          24.5904   -33.2241     3.8440 H       
 509 H509          24.5868   -25.5988     4.5838 H       
 510 H510          23.8868   -26.0843     3.0209 H       
 511 H511          23.9761   -27.0005     1.1324 H       
 512 H512          42.8694    -8.2949   -14.9393 H       
 513 H513          41.7408    -7.5409   -16.0909 H       
 514 H514          26.0349   -24.7364     2.1831 H       
 515 H515          26.6129   -24.6338     3.8635 H       
 516 H516          27.6304   -25.3953     2.6172 H       
 517 H517          20.8896   -32.4706     4.9141 H       
 518 H518          21.7729   -31.2363     3.9842 H       
 519 H519          21.7558   -32.9269     3.4275 H       
 520 H520          23.8121   -28.3967     3.6690 H       
 521 H521          24.8305   -28.0992     5.0982 H       
 522 H522          23.1632   -27.4778     5.0484 H       
 523 H523          21.7253   -38.0453     7.9370 H       
 524 H524          23.6006   -24.8297    -0.3816 H       
 525 H525          39.4964    -7.2096   -16.2878 H       
 526 H526          20.2357   -38.4241     5.4541 H       
 527 H527          37.7591    -9.4128   -17.0973 H       
 528 H528          24.5486   -27.0210    -2.2812 H       
 529 H529          23.3189   -27.2448    -1.0140 H       
 530 H530          42.7548    -9.5054   -16.9953 H       
 531 H531          22.9123   -39.7936     5.9727 H       
 532 H532          21.7641   -40.2694     4.6985 H       
 533 H533          26.0546   -24.5831    -1.9451 H       
 534 H534          -1.5926   -75.3340     5.5388 H       
 535 H535          36.6811    -6.9044   -15.7354 H       
 536 H536          35.6806    -8.0879   -16.6110 H       
 537 H537          -0.1501   -77.2717     4.1582 H       
 538 H538          -1.3619   -76.2005     3.3816 H       
 539 H539           1.6852   -75.8439     3.5224 H       
 540 H540           0.6027   -75.6490     2.1030 H       
 541 H541          -0.3349   -73.6054     2.9548 H       
 542 H542           1.3682   -73.4538     3.4853 H       
 543 H543          21.9243   -25.4787    -2.0553 H       
 544 H544          23.1541   -25.2548    -3.3226 H       
 545 H545          21.9158   -37.9987     3.7139 H       
 546 H546          23.0640   -37.5229     4.9880 H       
 547 H547          36.4479    -9.8748   -15.0725 H       
 548 H548          37.4484    -8.6913   -14.1969 H       
 549 H549           0.5331   -71.5071     4.5075 H       
 550 H550          25.6160   -23.1470    -4.1830 H       
 551 H551           2.6650   -72.2660     6.5529 H       
 552 H552           2.5852   -72.9168     4.8981 H       
 553 H553          19.8122   -41.0836     5.3502 H       
 554 H554          36.0051    -8.2675   -18.7927 H       
 555 H555          25.7951   -21.1791    -1.8582 H       
 556 H556          26.9054   -22.5470    -2.1118 H       
 557 H557           2.7630   -69.9495     5.5853 H       
 558 H558          34.4147    -8.5708   -14.5118 H       
 559 H559          35.4152    -7.3873   -13.6362 H       
 560 H560          37.2063    -5.9553   -20.1110 H       
 561 H561          -0.9003   -77.7665     6.3915 H       
 562 H562           0.2103   -71.0024     7.3656 H       
 563 H563          23.4057   -21.3796    -3.4628 H       
 564 H564          27.5374   -21.6237    -4.3247 H       
 565 H565          26.4271   -20.2558    -4.0711 H       
 566 H566          19.9139   -42.5233     7.7778 H       
 567 H567          18.3511   -41.6755     7.6936 H       
 568 H568           1.5132   -77.3808     8.0836 H       
 569 H569          30.9074    -5.1457   -23.1701 H       
 570 H570          37.0831    -8.7021   -21.4334 H       
 571 H571          37.4166    -7.1803   -22.2944 H       
 572 H572          29.3710    -6.7947   -24.8018 H       
 573 H573          29.6450    -5.0529   -25.1337 H       
 574 H574          32.2147    -4.5902   -26.2081 H       
 575 H575          33.1420    -6.1059   -26.4262 H       
 576 H576          31.1607    -7.4710   -26.2683 H       
 577 H577          30.5354    -6.0338   -27.1446 H       
 578 H578           3.0268   -71.4786     2.9568 H       
 579 H579           1.6421   -70.4675     3.4350 H       
 580 H580           3.2355   -69.7228     3.1617 H       
 581 H581           4.8905   -71.8884     4.5696 H       
 582 H582           5.0992   -70.1326     4.7745 H       
 583 H583           4.8335   -71.1692     6.1968 H       
 584 H584          33.0749    -6.7268   -22.0292 H       
 585 H585          23.5112   -13.9446   -10.1190 H       
 586 H586          35.9497    -9.9543   -12.5866 H       
 587 H587          28.8209   -20.9552    -2.3111 H       
 588 H588          27.7105   -19.5874    -2.0575 H       
 589 H589          21.2665   -15.4125    -9.3783 H       
 590 H590          21.2242   -13.6555    -9.7395 H       
 591 H591          20.7296   -27.5787    -4.8358 H       
 592 H592          20.8125   -25.9419    -4.4662 H       
 593 H593          35.7821    -5.6911   -22.3836 H       
 594 H594          -0.9951   -79.0403     8.6019 H       
 595 H595           0.4362   -78.9946     9.6591 H       
 596 H596          20.5775   -16.0025   -11.6117 H       
 597 H597          19.6544   -14.4817   -11.3679 H       
 598 H598           0.8875   -68.4638     7.9653 H       
 599 H599          21.3026   -13.1625   -12.5184 H       
 600 H600          21.3388   -14.6751   -13.4753 H       
 601 H601          23.3964   -19.1837    -5.0250 H       
 602 H602          39.3935    -6.7951   -20.8480 H       
 603 H603          39.0601    -8.3169   -19.9870 H       
 604 H604          25.2209   -38.5132     2.1709 H       
 605 H605          24.2318   -37.2177     2.5785 H       
 606 H606          33.7059    -3.7482   -21.8202 H       
 607 H607          32.0719    -4.4395   -21.9631 H       
 608 H608          -1.8829   -68.4090     6.6871 H       
 609 H609          -1.3674   -69.5556     7.9472 H       
 610 H610          23.8689   -18.5237    -9.5730 H       
 611 H611          24.6314   -20.0849    -7.5130 H       
 612 H612           2.2870   -79.8645     8.7873 H       
 613 H613          21.4774   -20.0046    -6.4233 H       
 614 H614          21.7335   -20.9790    -4.9559 H       
 615 H615          -0.3424   -66.6555     6.0137 H       
 616 H616          28.7433   -19.4207    -4.6809 H       
 617 H617          32.4283    -5.7151   -19.8668 H       
 618 H618          34.0623    -5.0238   -19.7239 H       
 619 H619          17.9238   -44.3360     7.6505 H       
 620 H620          23.3080   -15.9418    -8.3292 H       
 621 H621           1.9561   -81.7180     6.5551 H       
 622 H622          23.1387   -13.2567   -14.4184 H       
 623 H623          29.2306    -7.1302   -22.4745 H       
 624 H624          17.1422   -44.8149     4.8779 H       
 625 H625          25.9776   -16.9837    -7.9949 H       
 626 H626          26.0988   -18.7054    -8.4301 H       
 627 H627           1.0767   -64.3866     6.5070 H       
 628 H628           4.6383   -80.4197     7.2103 H       
 629 H629           4.4333   -81.8371     6.1533 H       
 630 H630          30.2512    -9.7625   -22.3993 H       
 631 H631          30.7851    -8.9118   -20.9298 H       
 632 H632          22.4056   -15.6534   -14.6545 H       
 633 H633          23.1225   -14.9887   -16.1419 H       
 634 H634          24.0745   -16.0779   -15.1049 H       
 635 H635          25.9615   -14.0040   -14.4451 H       
 636 H636           2.1178   -65.6589     3.9368 H       
 637 H637           0.3957   -65.4731     4.3466 H       
 638 H638          34.8911   -10.5702   -10.5444 H       
 639 H639          33.5029    -9.7679   -10.0425 H       
 640 H640          18.2544   -47.0290     4.7802 H       
 641 H641          19.4488   -45.7213     4.9575 H       
 642 H642          19.0078   -46.7204     6.3630 H       
 643 H643          -1.9177   -76.4823    11.0465 H       
 644 H644          -1.8728   -78.1570    10.9197 H       
 645 H645          21.5000   -22.3448    -6.9016 H       
 646 H646          32.6437    -8.0649   -11.3626 H       
 647 H647           0.6980   -63.0170     4.5037 H       
 648 H648           2.4202   -63.2028     4.0940 H       
 649 H649          41.5425    -9.2634   -22.5385 H       
 650 H650          41.5214    -8.4327   -21.0784 H       
 651 H651           3.8470   -65.2620     6.2120 H       
 652 H652          26.8376    -9.4737   -19.2670 H       
 653 H653          27.1063   -13.3118   -16.7845 H       
 654 H654           3.6320   -83.7303     7.0895 H       
 655 H655          16.0314   -47.2697     4.9312 H       
 656 H656          14.8789   -47.8223     7.5568 H       
 657 H657          29.1125   -10.9640   -20.3007 H       
 658 H658           4.3762   -85.2975     8.6326 H       
 659 H659           1.7935   -64.2192     1.9208 H       
 660 H660           0.0713   -64.0334     2.3305 H       
 661 H661          25.9965   -10.2301   -21.4787 H       
 662 H662          26.4121   -11.9089   -21.0574 H       
 663 H663          26.4316   -15.2762   -10.0052 H       
 664 H664          30.5280   -17.8970    -5.0856 H       
 665 H665          31.4802   -17.3606    -3.8096 H       
 666 H666          26.3596   -19.2684   -11.0941 H       
 667 H667          13.1032   -46.9857     5.2211 H       
 668 H668          31.9796    -2.8262   -17.6259 H       
 669 H669          32.6268    -4.3741   -17.5376 H       
 670 H670          25.5393   -11.0172   -17.6828 H       
 671 H671          -2.9551   -66.7465     9.7452 H       
 672 H672           5.4360   -63.1853     5.5599 H       
 673 H673          24.8864   -11.7315   -19.0660 H       
 674 H674          31.0294   -18.1240    -1.6660 H       
 675 H675           3.8543   -78.2304     6.5191 H       
 676 H676           3.3738   -81.6264     3.9837 H       
 677 H677          28.2748   -11.3203   -15.7942 H       
 678 H678          27.5663   -12.3926   -14.5627 H       
 679 H679           4.4337   -82.8350    10.4348 H       
 680 H680           5.1524   -84.4139    10.8336 H       
 681 H681           2.0959   -61.7631     2.0780 H       
 682 H682           0.3737   -61.5773     2.4877 H       
 683 H683          27.2869   -15.3873   -12.4127 H       
 684 H684           4.8420   -62.9755     8.5452 H       
 685 H685           5.2814   -64.4824     7.7060 H       
 686 H686          14.3148   -45.0574     6.2019 H       
 687 H687          12.5850   -45.0035     6.6178 H       
 688 H688          13.7745   -45.5442     7.8265 H       
 689 H689          12.4932   -47.6624     8.1343 H       
 690 H690          11.3056   -47.1329     6.9187 H       
 691 H691          12.1318   -48.6985     6.7328 H       
 692 H692           3.3342   -76.7409     4.6298 H       
 693 H693           2.8526   -80.1437     2.0893 H       
 694 H694           4.0834   -60.8725     6.7215 H       
 695 H695          23.2593    -9.8131   -19.0757 H       
 696 H696          24.9346    -9.3072   -18.7508 H       
 697 H697          24.0979   -12.7090   -21.2041 H       
 698 H698          22.7849   -11.8362   -20.3781 H       
 699 H699          24.2241    -9.0505   -20.3625 H       
 700 H700          23.6141   -11.0907   -21.7656 H       
 701 H701          13.5277   -49.9097     7.4497 H       
 702 H702          13.5928   -51.2758     4.8573 H       
 703 H703           3.6803   -86.0588    11.1223 H       
 704 H704           7.4197   -63.4561     6.9826 H       
 705 H705           6.9802   -61.9491     7.8219 H       
 706 H706          15.7707   -51.8409     5.9676 H       
 707 H707          14.8607   -52.4985     7.3488 H       
 708 H708           0.9211   -85.2962    11.6995 H       
 709 H709           5.8320   -58.8691     7.1590 H       
 710 H710          -0.1347   -62.6174     0.3508 H       
 711 H711           0.7712   -61.2389     0.1391 H       
 712 H712          27.0076   -10.1025   -14.1765 H       
 713 H713          13.7066   -54.0805     5.7815 H       
 714 H714           1.6754   -88.1044    10.7752 H       
 715 H715           0.1201   -87.6710    11.5245 H       
 716 H716           5.2136   -58.9021     4.1715 H       
 717 H717           3.9930   -59.0581     5.4577 H       
 718 H718          10.4783   -53.5292     7.3193 H       
 719 H719          12.1536   -53.3000     4.9384 H       
 720 H720           7.9025   -59.2895     5.1431 H       
 721 H721           4.6714   -56.8539     6.3688 H       
 722 H722           5.8920   -56.6979     5.0826 H       
 723 H723           3.5425   -77.2573     1.6837 H       
 724 H724           9.3852   -52.5166     4.6563 H       
 725 H725          14.5558   -54.3318     3.4958 H       
 726 H726          14.0091   -52.6554     3.7388 H       
 727 H727          15.7474   -53.0377     3.7670 H       
 728 H728          15.7337   -54.7771     7.0282 H       
 729 H729          15.6722   -55.5497     5.4258 H       
 730 H730          16.7568   -54.1664     5.7059 H       
 731 H731           7.9072   -82.4024     9.3730 H       
 732 H732           7.0019   -82.3687    10.7880 H       
 733 H733           9.2004   -56.9866     4.6187 H       
 734 H734           0.1583   -86.9424    13.6622 H       
 735 H735           8.9752   -55.4703     7.1042 H       
 736 H736          10.2629   -58.0465     7.2752 H       
 737 H737           9.9933   -59.0429     5.8250 H       
 738 H738           2.8817   -56.9688     4.6564 H       
 739 H739           4.1022   -56.8128     3.3703 H       
 740 H740          -1.6198   -86.3693    10.0234 H       
 741 H741           2.3381   -86.8989    15.5883 H       
 742 H742          10.4301   -50.7784     6.0831 H       
 743 H743           8.6623   -50.5790     6.0245 H       
 744 H744           9.4290   -51.3048     7.4575 H       
 745 H745           7.9317   -53.2610     7.2346 H       
 746 H746           7.1851   -52.6091     5.7561 H       
 747 H747           7.9239   -54.2284     5.7405 H       
 748 H748          -1.7198   -85.7749     7.5486 H       
 749 H749           9.0172   -63.7692    10.2689 H       
 750 H750          11.5731   -57.6174     4.5519 H       
 751 H751          11.8427   -56.6210     6.0021 H       
 752 H752           3.2015   -87.4353     8.7235 H       
 753 H753          -0.5280   -87.9314    15.7641 H       
 754 H754           0.6080   -87.8537    17.1322 H       
 755 H755           4.4058   -54.6435     5.1532 H       
 756 H756           0.0611   -85.7551     5.2933 H       
 757 H757           3.9454   -87.1147     6.4174 H       
 758 H758           2.3870   -86.2782     4.7103 H       
 759 H759           2.3799   -89.1807    17.0216 H       
 760 H760           2.1587   -91.5041    15.2664 H       
 761 H761           4.3808   -90.4839    14.6891 H       
 762 H762           4.5278   -92.1028    15.4141 H       
 763 H763          14.6158   -59.0450     6.0596 H       
 764 H764          14.1900   -57.6696     5.1938 H       
 765 H765          -1.2180   -84.6948    17.4342 H       
 766 H766          -1.4379   -86.3202    17.7976 H       
 767 H767           2.1076   -55.9603     2.8125 H       
 768 H768           1.4522   -54.4778     2.3704 H       
 769 H769           2.2573   -52.5449     3.3688 H       
 770 H770           3.2675   -93.5036    16.6930 H       
 771 H771           2.9811   -93.0079    19.5565 H       
 772 H772           6.0033   -90.5303    16.4416 H       
 773 H773           1.0695   -94.8214    18.0183 H       
 774 H774           1.2185   -94.7828    19.7916 H       
 775 H775           3.1378   -95.4620    20.6591 H       
 776 H776           0.1116   -92.9455    16.8108 H       
 777 H777           0.4601   -92.8598    21.0606 H       
 778 H778           4.4249   -97.4883    19.1712 H       
 779 H779           5.6725   -96.4408    19.8886 H       
 780 H780          -1.4164   -91.0166    16.8972 H       
 781 H781          -1.0682   -90.9312    21.1470 H       
 782 H782          -2.0027   -90.0065    19.0650 H       
 783 H783           5.8682   -98.9113    20.9474 H       
 784 H784           4.8358   -98.5329    23.6527 H       
 785 H785           4.0821  -100.9460    21.9445 H       
 786 H786           3.8371  -100.8377    23.7042 H       
 787 H787           2.6891   -98.8730    21.6718 H       
 788 H788           3.0850   -97.9376    23.9338 H       
 789 H789           1.3434   -98.1151    23.6117 H       
 790 H790           1.3617  -101.1554    23.2033 H       
 791 H791           0.5245   -99.9786    22.1628 H       
 792 H792           1.6827  -101.1286    21.4527 H       
 793 H793           2.1805   -99.2919    24.6522 H       
 794 H794           5.6482  -100.7379    24.9720 H       
 795 H795           8.1033  -101.7958    23.7967 H       
 796 H796           8.1205  -100.0011    26.2640 H       
 797 H797           9.4939  -101.0006    25.7321 H       
 798 H798           9.5225   -99.8053    23.5598 H       
 799 H799           8.1490   -98.8058    24.0917 H       
 800 H800          10.8810   -98.9423    25.4461 H       
 801 H801           9.5076   -97.9429    25.9780 H       
 802 H802           9.2323  -103.1970    25.8029 H       
 803 H803           7.0395  -104.8996    26.7087 H       
 804 H804          10.0674  -105.1062    27.0217 H       
 805 H805           8.9083  -106.3395    27.5727 H       
 806 H806          10.0511   -97.3411    23.2726 H       
 807 H807           7.6701  -104.5165    30.3177 H       
 808 H808           7.5321  -105.7725    29.2104 H       
 809 H809          10.4335  -104.7150    24.6537 H       
 810 H810           7.6645  -107.6767    25.9764 H       
 811 H811          11.2997   -95.3707    22.7942 H       
 812 H812          12.2641   -94.6780    23.9828 H       
 813 H813          10.3686  -105.6678    22.3841 H       
 814 H814           7.5998  -108.6299    23.7069 H       
 815 H815          12.3567   -95.6665    26.0793 H       
 816 H816           8.9482  -107.6224    21.9096 H       
@<TRIPOS>BOND
   1    1  164 2
   2    2  165 2
   3    3  172 2
   4    4  173 2
   5    5  176 1
   6    5  448 1
   7    6  178 2
   8    7  179 2
   9    8  185 1
  10    8  464 1
  11    9  185 2
  12   10  189 1
  13   10  469 1
  14   11  188 2
  15   12  190 2
  16   13  192 1
  17   13  474 1
  18   14  195 1
  19   14  478 1
  20   15  194 2
  21   16  196 2
  22   17  484 1
  23   17  198 1
  24   18  201 2
  25   19  202 2
  26   20  209 2
  27   21  212 2
  28   22  218 2
  29   23  220 1
  30   23  530 1
  31   24  222 2
  32   25  223 2
  33   26  225 2
  34   27  237 2
  35   28  239 2
  36   29  242 2
  37   30  243 2
  38   31  246 2
  39   32  250 2
  40   33  253 2
  41   34  262 2
  42   35  266 2
  43   36  268 2
  44   37  269 2
  45   38  278 2
  46   39  279 2
  47   40  281 2
  48   41  282 2
  49   42  286 1
  50   42  645 1
  51   43  284 2
  52   44  289 2
  53   45  292 2
  54   46  293 2
  55   47  296 2
  56   48  300 1
  57   48  671 1
  58   49  300 2
  59   50  303 2
  60   51  305 2
  61   52  308 2
  62   53  311 2
  63   54  312 2
  64   55  320 2
  65   56  322 2
  66   57  327 1
  67   57  712 1
  68   58  329 2
  69   59  333 2
  70   60  341 1
  71   60  723 1
  72   61  345 2
  73   62  346 2
  74   63  349 2
  75   64  354 1
  76   64  749 1
  77   65  353 2
  78   66  354 2
  79   67  361 2
  80   68  362 2
  81   69  375 2
  82   70  378 2
  83   71  379 2
  84   72  382 1
  85   72  772 1
  86   73  383 2
  87   74  386 2
  88   75  393 2
  89   76  398 2
  90   77  403 2
  91   78  408 2
  92   79  158 1
  93   79  161 1
  94   79  164 am
  95   80  163 1
  96   80  165 am
  97   80  167 1
  98   81  160 1
  99   81  170 1
 100   81  172 am
 101   82  173 am
 102   82  438 1
 103   82  175 1
 104   83  179 am
 105   83  442 1
 106   83  174 1
 107   84  178 am
 108   84  451 1
 109   84  184 1
 110   85  188 am
 111   85  453 1
 112   85  180 1
 113   86  190 am
 114   86  465 1
 115   86  193 1
 116   87  194 am
 117   87  468 1
 118   87  191 1
 119   88  196 am
 120   88  200 1
 121   88  476 1
 122   89  201 am
 123   89  477 1
 124   89  197 1
 125   90  204 1
 126   90  206 1
 127   90  209 am
 128   91  202 am
 129   91  494 1
 130   91  210 1
 131   92  203 1
 132   92  499 1
 133   92  500 1
 134   93  211 1
 135   93  215 1
 136   93  218 am
 137   94  212 am
 138   94  508 1
 139   94  217 1
 140   95  225 am
 141   95  511 1
 142   95  208 1
 143   96  222 am
 144   96  523 1
 145   96  228 1
 146   97  223 am
 147   97  525 1
 148   97  229 1
 149   98  242 am
 150   98  533 1
 151   98  227 1
 152   99  233 1
 153   99  236 1
 154   99  243 am
 155  100  239 am
 156  100  554 1
 157  100  252 1
 158  101  237 am
 159  101  255 1
 160  101  553 1
 161  102  246 am
 162  102  561 1
 163  102  256 1
 164  103  266 am
 165  103  562 1
 166  103  244 1
 167  104  268 am
 168  104  563 1
 169  104  245 1
 170  105  257 1
 171  105  260 1
 172  105  269 am
 173  106  249 1
 174  106  287 1
 175  106  586 1
 176  107  262 am
 177  107  593 1
 178  107  265 1
 179  108  250 am
 180  108  591 1
 181  108  592 1
 182  109  267 1
 183  109  275 1
 184  109  284 am
 185  110  253 am
 186  110  604 1
 187  110  605 1
 188  111  292 am
 189  111  611 1
 190  111  276 1
 191  112  279 am
 192  112  612 1
 193  112  290 1
 194  113  296 am
 195  113  615 1
 196  113  274 1
 197  114  270 1
 198  114  301 1
 199  114  616 1
 200  115  278 am
 201  115  619 1
 202  115  294 1
 203  116  282 am
 204  116  620 1
 205  116  285 1
 206  117  281 am
 207  117  299 1
 208  117  623 1
 209  118  312 am
 210  118  635 1
 211  118  291 1
 212  119  287 1
 213  119  638 1
 214  119  639 1
 215  120  289 am
 216  120  643 1
 217  120  644 1
 218  121  287 2
 219  121  646 1
 220  122  293 am
 221  122  649 1
 222  122  650 1
 223  123  320 am
 224  123  651 1
 225  123  297 1
 226  124  305 am
 227  124  654 1
 228  124  316 1
 229  125  308 am
 230  125  655 1
 231  125  315 1
 232  126  311 am
 233  126  657 1
 234  126  313 1
 235  127  307 1
 236  127  331 1
 237  127  663 1
 238  128  301 1
 239  128  664 1
 240  128  665 1
 241  129  303 am
 242  129  668 1
 243  129  669 1
 244  130  322 am
 245  130  670 1
 246  130  314 1
 247  131  301 2
 248  131  674 1
 249  132  319 1
 250  132  331 2
 251  133  346 am
 252  133  694 1
 253  133  323 1
 254  134  329 am
 255  134  701 1
 256  134  340 1
 257  135  333 am
 258  135  703 1
 259  135  344 1
 260  136  330 1
 261  136  710 1
 262  136  711 1
 263  137  349 am
 264  137  719 1
 265  137  352 1
 266  138  361 am
 267  138  720 1
 268  138  347 1
 269  139  345 am
 270  139  731 1
 271  139  732 1
 272  140  353 am
 273  140  734 1
 274  140  367 1
 275  141  362 am
 276  141  735 1
 277  141  360 1
 278  142  366 1
 279  142  370 1
 280  142  748 1
 281  143  365 1
 282  143  380 1
 283  143  755 1
 284  144  375 am
 285  144  759 1
 286  144  381 1
 287  145  378 am
 288  145  763 1
 289  145  764 1
 290  146  379 am
 291  146  765 1
 292  146  766 1
 293  147  380 1
 294  147  767 1
 295  147  768 1
 296  148  380 2
 297  148  769 1
 298  149  383 am
 299  149  770 1
 300  149  384 1
 301  150  386 am
 302  150  390 1
 303  150  775 1
 304  151  393 am
 305  151  783 1
 306  151  395 1
 307  152  398 am
 308  152  794 1
 309  152  401 1
 310  153  403 am
 311  153  802 1
 312  153  406 1
 313  154  405 1
 314  154  410 1
 315  154  806 1
 316  155  408 am
 317  155  807 1
 318  155  808 1
 319  156  410 1
 320  156  811 1
 321  156  812 1
 322  157  410 2
 323  157  815 1
 324  158  159 1
 325  158  165 1
 326  158  416 1
 327  159  162 1
 328  159  417 1
 329  159  418 1
 330  160  164 1
 331  160  166 1
 332  160  419 1
 333  161  162 1
 334  161  420 1
 335  161  421 1
 336  162  422 1
 337  162  423 1
 338  163  168 1
 339  163  173 1
 340  163  424 1
 341  166  169 1
 342  166  425 1
 343  166  426 1
 344  167  171 1
 345  167  427 1
 346  167  428 1
 347  168  171 1
 348  168  429 1
 349  168  430 1
 350  169  170 1
 351  169  431 1
 352  169  432 1
 353  170  433 1
 354  170  434 1
 355  171  435 1
 356  171  436 1
 357  172  174 1
 358  174  176 1
 359  174  437 1
 360  175  177 1
 361  175  178 1
 362  175  439 1
 363  176  440 1
 364  176  441 1
 365  177  181 1
 366  177  443 1
 367  177  444 1
 368  179  180 1
 369  180  182 1
 370  180  445 1
 371  181  185 1
 372  181  446 1
 373  181  447 1
 374  182  183 1
 375  182  449 1
 376  182  450 1
 377  183  186 1
 378  183  187 1
 379  183  452 1
 380  184  189 1
 381  184  190 1
 382  184  454 1
 383  186  458 1
 384  186  459 1
 385  186  460 1
 386  187  455 1
 387  187  456 1
 388  187  457 1
 389  188  191 1
 390  189  461 1
 391  189  462 1
 392  191  192 1
 393  191  463 1
 394  192  466 1
 395  192  467 1
 396  193  195 1
 397  193  196 1
 398  193  470 1
 399  194  197 1
 400  195  471 1
 401  195  472 1
 402  197  198 1
 403  197  473 1
 404  198  199 1
 405  198  475 1
 406  199  479 1
 407  199  480 1
 408  199  481 1
 409  200  202 1
 410  200  482 1
 411  200  483 1
 412  201  203 1
 413  203  485 1
 414  203  486 1
 415  204  205 1
 416  204  212 1
 417  204  487 1
 418  205  207 1
 419  205  488 1
 420  205  489 1
 421  206  207 1
 422  206  490 1
 423  206  491 1
 424  207  492 1
 425  207  493 1
 426  208  209 1
 427  208  213 1
 428  208  495 1
 429  210  220 1
 430  210  223 1
 431  210  497 1
 432  211  214 1
 433  211  222 1
 434  211  496 1
 435  213  219 1
 436  213  221 1
 437  213  498 1
 438  214  216 1
 439  214  501 1
 440  214  502 1
 441  215  216 1
 442  215  503 1
 443  215  504 1
 444  216  505 1
 445  216  506 1
 446  217  218 1
 447  217  224 1
 448  217  507 1
 449  219  226 1
 450  219  509 1
 451  219  510 1
 452  220  512 1
 453  220  513 1
 454  221  514 1
 455  221  515 1
 456  221  516 1
 457  224  517 1
 458  224  518 1
 459  224  519 1
 460  225  227 1
 461  226  520 1
 462  226  521 1
 463  226  522 1
 464  227  230 1
 465  227  524 1
 466  228  231 1
 467  228  237 1
 468  228  526 1
 469  229  232 1
 470  229  239 1
 471  229  527 1
 472  230  238 1
 473  230  528 1
 474  230  529 1
 475  231  240 1
 476  231  531 1
 477  231  532 1
 478  232  241 1
 479  232  535 1
 480  232  536 1
 481  233  234 1
 482  233  246 1
 483  233  534 1
 484  234  235 1
 485  234  537 1
 486  234  538 1
 487  235  236 1
 488  235  539 1
 489  235  540 1
 490  236  541 1
 491  236  542 1
 492  238  250 1
 493  238  543 1
 494  238  544 1
 495  240  253 1
 496  240  545 1
 497  240  546 1
 498  241  249 1
 499  241  547 1
 500  241  548 1
 501  242  245 1
 502  243  244 1
 503  244  247 1
 504  244  549 1
 505  245  248 1
 506  245  550 1
 507  247  251 1
 508  247  551 1
 509  247  552 1
 510  248  254 1
 511  248  555 1
 512  248  556 1
 513  249  558 1
 514  249  559 1
 515  251  263 1
 516  251  264 1
 517  251  557 1
 518  252  258 1
 519  252  262 1
 520  252  560 1
 521  254  270 1
 522  254  564 1
 523  254  565 1
 524  255  278 1
 525  255  566 1
 526  255  567 1
 527  256  272 1
 528  256  279 1
 529  256  568 1
 530  257  259 1
 531  257  281 1
 532  257  569 1
 533  258  277 1
 534  258  570 1
 535  258  571 1
 536  259  261 1
 537  259  572 1
 538  259  573 1
 539  260  261 1
 540  260  574 1
 541  260  575 1
 542  261  576 1
 543  261  577 1
 544  263  581 1
 545  263  582 1
 546  263  583 1
 547  264  578 1
 548  264  579 1
 549  264  580 1
 550  265  269 1
 551  265  280 1
 552  265  584 1
 553  266  274 1
 554  267  271 1
 555  267  282 1
 556  267  585 1
 557  268  276 1
 558  270  587 1
 559  270  588 1
 560  271  273 1
 561  271  589 1
 562  271  590 1
 563  272  289 1
 564  272  594 1
 565  272  595 1
 566  273  275 1
 567  273  596 1
 568  273  597 1
 569  274  283 1
 570  274  598 1
 571  275  599 1
 572  275  600 1
 573  276  286 1
 574  276  601 1
 575  277  293 1
 576  277  602 1
 577  277  603 1
 578  280  288 1
 579  280  606 1
 580  280  607 1
 581  283  300 1
 582  283  608 1
 583  283  609 1
 584  284  291 1
 585  285  292 1
 586  285  295 1
 587  285  610 1
 588  286  613 1
 589  286  614 1
 590  288  303 1
 591  288  617 1
 592  288  618 1
 593  290  298 1
 594  290  305 1
 595  290  621 1
 596  291  302 1
 597  291  622 1
 598  294  306 1
 599  294  308 1
 600  294  624 1
 601  295  307 1
 602  295  625 1
 603  295  626 1
 604  296  297 1
 605  297  304 1
 606  297  627 1
 607  298  310 1
 608  298  628 1
 609  298  629 1
 610  299  311 1
 611  299  630 1
 612  299  631 1
 613  302  632 1
 614  302  633 1
 615  302  634 1
 616  304  309 1
 617  304  636 1
 618  304  637 1
 619  306  640 1
 620  306  641 1
 621  306  642 1
 622  307  319 2
 623  309  317 1
 624  309  647 1
 625  309  648 1
 626  310  325 ar
 627  310  326 ar
 628  312  314 1
 629  313  318 1
 630  313  322 1
 631  313  652 1
 632  314  327 1
 633  314  653 1
 634  315  321 1
 635  315  329 1
 636  315  656 1
 637  316  328 1
 638  316  333 1
 639  316  658 1
 640  317  330 1
 641  317  659 1
 642  317  660 1
 643  318  324 1
 644  318  661 1
 645  318  662 1
 646  319  666 1
 647  320  323 1
 648  321  334 1
 649  321  335 1
 650  321  667 1
 651  323  332 1
 652  323  672 1
 653  324  338 1
 654  324  339 1
 655  324  673 1
 656  325  336 ar
 657  325  675 1
 658  326  337 ar
 659  326  676 1
 660  327  677 1
 661  327  678 1
 662  328  345 1
 663  328  679 1
 664  328  680 1
 665  330  681 1
 666  330  682 1
 667  331  683 1
 668  332  342 1
 669  332  684 1
 670  332  685 1
 671  334  689 1
 672  334  690 1
 673  334  691 1
 674  335  686 1
 675  335  687 1
 676  335  688 1
 677  336  341 ar
 678  336  692 1
 679  337  341 ar
 680  337  693 1
 681  338  695 1
 682  338  696 1
 683  338  699 1
 684  339  697 1
 685  339  698 1
 686  339  700 1
 687  340  343 1
 688  340  349 1
 689  340  702 1
 690  342  354 1
 691  342  704 1
 692  342  705 1
 693  343  348 1
 694  343  706 1
 695  343  707 1
 696  344  350 1
 697  344  353 1
 698  344  708 1
 699  346  347 1
 700  347  351 1
 701  347  709 1
 702  348  358 1
 703  348  359 1
 704  348  713 1
 705  350  355 1
 706  350  714 1
 707  350  715 1
 708  351  356 1
 709  351  716 1
 710  351  717 1
 711  352  357 1
 712  352  362 1
 713  352  718 1
 714  355  363 1
 715  355  366 2
 716  356  365 1
 717  356  721 1
 718  356  722 1
 719  357  368 1
 720  357  369 1
 721  357  724 1
 722  358  725 1
 723  358  726 1
 724  358  727 1
 725  359  728 1
 726  359  729 1
 727  359  730 1
 728  360  361 1
 729  360  364 1
 730  360  733 1
 731  363  370 ar
 732  363  372 ar
 733  364  371 1
 734  364  736 1
 735  364  737 1
 736  365  738 1
 737  365  739 1
 738  366  740 1
 739  367  373 1
 740  367  375 1
 741  367  741 1
 742  368  745 1
 743  368  746 1
 744  368  747 1
 745  369  742 1
 746  369  743 1
 747  369  744 1
 748  370  374 ar
 749  371  378 1
 750  371  750 1
 751  371  751 1
 752  372  376 ar
 753  372  752 1
 754  373  379 1
 755  373  753 1
 756  373  754 1
 757  374  377 ar
 758  374  756 1
 759  376  377 ar
 760  376  757 1
 761  377  758 1
 762  381  382 1
 763  381  383 1
 764  381  760 1
 765  382  761 1
 766  382  762 1
 767  384  385 1
 768  384  386 1
 769  384  771 1
 770  385  387 1
 771  385  773 1
 772  385  774 1
 773  387  388 ar
 774  387  389 ar
 775  388  391 ar
 776  388  776 1
 777  389  392 ar
 778  389  777 1
 779  390  393 1
 780  390  778 1
 781  390  779 1
 782  391  394 ar
 783  391  780 1
 784  392  394 ar
 785  392  781 1
 786  394  782 1
 787  395  396 1
 788  395  398 1
 789  395  784 1
 790  396  397 1
 791  396  785 1
 792  396  786 1
 793  397  399 1
 794  397  400 1
 795  397  787 1
 796  399  790 1
 797  399  791 1
 798  399  792 1
 799  400  788 1
 800  400  789 1
 801  400  793 1
 802  401  402 1
 803  401  403 1
 804  401  795 1
 805  402  404 1
 806  402  796 1
 807  402  797 1
 808  404  405 1
 809  404  798 1
 810  404  799 1
 811  405  800 1
 812  405  801 1
 813  406  407 1
 814  406  408 1
 815  406  803 1
 816  407  409 1
 817  407  804 1
 818  407  805 1
 819  409  411 ar
 820  409  412 ar
 821  411  413 ar
 822  411  809 1
 823  412  414 ar
 824  412  810 1
 825  413  415 ar
 826  413  813 1
 827  414  415 ar
 828  414  814 1
 829  415  816 1

#	End of record

