#	Name: ASD14870002
#	Creating user name:	WinNT
#	Creation time:	15. 06. 2019 21:31

#	Modifying user name:	WinNT
#	Modification time:	15. 06. 2019 21:31

#	Program:	/corina/corina34_cracker 3.40 0067  02.08.2006

@<TRIPOS>MOLECULE
ASD14870002
  47   50    0    0    0
SMALL
NO_CHARGES


@<TRIPOS>ATOM
   1 C1             3.3463    -0.6001     3.9273 C.ar    
   2 C2             2.2736    -0.0865     3.2136 C.ar    
   3 C3             2.3040    -0.0756     1.8329 C.ar    
   4 C4             3.4089    -0.5791     1.1591 C.ar    
   5 C5             4.4824    -1.0931     1.8744 C.ar    
   6 C6             4.4504    -1.1032     3.2551 C.ar    
   7 O7             3.3179    -0.6052     5.2870 O.3     
   8 C8             4.4566    -1.1492     5.9576 C.3     
   9 N9             3.4404    -0.5690    -0.2399 N.am    
  10 S10            4.7964    -0.0463    -1.0338 S.o2    
  11 O11            5.8871    -0.7753    -0.4877 O.2     
  12 O12            4.4763    -0.0474    -2.4183 O.2     
  13 C13            5.0483     1.6382    -0.5826 C.ar    
  14 C14            4.3792     2.6357    -1.2585 C.ar    
  15 C15            5.9136     1.9519     0.4535 C.ar    
  16 C16            6.1207     3.2674     0.8186 C.ar    
  17 C17            4.5794     3.9691    -0.8997 C.ar    
  18 N18            4.0832     5.1504    -1.3587 N.2     
  19 C19            5.4606     4.2825     0.1467 C.ar    
  20 O20            5.4509     5.6305     0.2635 O.3     
  21 C21            4.6078     6.1259    -0.6602 C.2     
  22 S22            4.2615     7.8372    -0.8968 S.3     
  23 C23            5.3162     8.5520     0.3887 C.3     
  24 C24            5.1793    10.0527     0.3738 C.ar    
  25 C25            6.0160    10.8150    -0.4199 C.ar    
  26 C26            4.2134    10.6662     1.1495 C.ar    
  27 C27            4.0871    12.0424     1.1359 C.ar    
  28 C28            4.9276    12.8062     0.3458 C.ar    
  29 C29            5.8907    12.1913    -0.4343 C.ar    
  30 Cl30           4.7695    14.5349     0.3281 Cl      
  31 H31            1.4142     0.3048     3.7377 H       
  32 H32            1.4686     0.3240     1.2773 H       
  33 H33            5.3420    -1.4853     1.3512 H       
  34 H34            5.2853    -1.5026     3.8116 H       
  35 H35            4.3048    -1.0926     7.0355 H       
  36 H36            4.5883    -2.1905     5.6634 H       
  37 H37            5.3451    -0.5796     5.6853 H       
  38 H38            2.6679    -0.8680    -0.7445 H       
  39 H39            3.7030     2.3864    -2.0628 H       
  40 H40            6.4293     1.1619     0.9792 H       
  41 H41            6.7962     3.5043     1.6273 H       
  42 H42            5.0120     8.1691     1.3628 H       
  43 H43            6.3546     8.2800     0.1996 H       
  44 H44            6.7680    10.3349    -1.0286 H       
  45 H45            3.5571    10.0698     1.7660 H       
  46 H46            3.3322    12.5215     1.7417 H       
  47 H47            6.5446    12.7868    -1.0542 H       
@<TRIPOS>BOND
   1    1    2 ar
   2    1    6 ar
   3    1    7 1
   4    2    3 ar
   5    2   31 1
   6    3    4 ar
   7    3   32 1
   8    4    5 ar
   9    4    9 1
  10    5    6 ar
  11    5   33 1
  12    6   34 1
  13    7    8 1
  14    8   35 1
  15    8   36 1
  16    8   37 1
  17    9   10 am
  18    9   38 1
  19   10   11 2
  20   10   12 2
  21   10   13 1
  22   13   15 ar
  23   13   14 ar
  24   14   17 ar
  25   14   39 1
  26   15   16 ar
  27   15   40 1
  28   16   19 ar
  29   16   41 1
  30   17   19 ar
  31   17   18 1
  32   18   21 2
  33   19   20 1
  34   20   21 1
  35   21   22 1
  36   22   23 1
  37   23   24 1
  38   23   42 1
  39   23   43 1
  40   24   26 ar
  41   24   25 ar
  42   25   29 ar
  43   25   44 1
  44   26   27 ar
  45   26   45 1
  46   27   28 ar
  47   27   46 1
  48   28   29 ar
  49   28   30 1
  50   29   47 1

#	End of record

