#	Name: ASD13410007
#	Creating user name:	WinNT
#	Creation time:	15. 06. 2019 21:30

#	Modifying user name:	WinNT
#	Modification time:	15. 06. 2019 21:30

#	Program:	/corina/corina34_cracker 3.40 0067  02.08.2006

@<TRIPOS>MOLECULE
ASD13410007
  29   30    0    0    0
SMALL
NO_CHARGES


@<TRIPOS>ATOM
   1 C1            -0.0159     1.3805     0.0308 C.ar    
   2 C2             0.0724     0.1415    -0.5791 C.ar    
   3 C3             1.2769    -0.5339    -0.6023 C.ar    
   4 C4             2.4001     0.0317    -0.0132 C.ar    
   5 C5             2.3089     1.2756     0.5979 C.ar    
   6 C6             1.1019     1.9464     0.6186 C.ar    
   7 N7             3.6214    -0.6504    -0.0348 N.am    
   8 C8             4.7755     0.0371    -0.1439 C.2     
   9 C9             6.0667    -0.6696    -0.0484 C.ar    
  10 O10            4.7522     1.2399    -0.3210 O.2     
  11 C11            6.0981    -2.0515     0.1552 C.ar    
  12 C12            7.3076    -2.7056     0.2430 C.ar    
  13 C13            8.4942    -1.9992     0.1309 C.ar    
  14 C14            8.4777    -0.6335    -0.0704 C.ar    
  15 C15            7.2692     0.0405    -0.1671 C.ar    
  16 O16            7.2514     1.3816    -0.3704 O.3     
  17 N17            7.3394    -4.1697     0.4586 N.pl3   
  18 Cl18          -1.5298     2.2297     0.0523 Cl      
  19 O19            6.2979    -4.7934     0.5580 O.2     
  20 O20            8.4070    -4.7507     0.5367 O.2     
  21 H21           -0.8014    -0.2980    -1.0371 H       
  22 H22            1.3451    -1.5012    -1.0778 H       
  23 H23            3.1808     1.7175     1.0570 H       
  24 H24            1.0302     2.9135     1.0940 H       
  25 H25            3.6375    -1.6182     0.0288 H       
  26 H26            5.1757    -2.6061     0.2439 H       
  27 H27            9.4377    -2.5200     0.2016 H       
  28 H28            9.4068    -0.0897    -0.1564 H       
  29 H29            7.2542     1.9030     0.4441 H       
@<TRIPOS>BOND
   1    1    2 ar
   2    1    6 ar
   3    1   18 1
   4    2    3 ar
   5    2   21 1
   6    3    4 ar
   7    3   22 1
   8    4    5 ar
   9    4    7 1
  10    5    6 ar
  11    5   23 1
  12    6   24 1
  13    7    8 am
  14    7   25 1
  15    8    9 1
  16    8   10 2
  17    9   11 ar
  18    9   15 ar
  19   11   12 ar
  20   11   26 1
  21   12   13 ar
  22   12   17 1
  23   13   14 ar
  24   13   27 1
  25   14   15 ar
  26   14   28 1
  27   15   16 1
  28   16   29 1
  29   17   19 2
  30   17   20 2

#	End of record

