#	Name: ASD13010042
#	Creating user name:	WinNT
#	Creation time:	15. 06. 2019 21:30

#	Modifying user name:	WinNT
#	Modification time:	15. 06. 2019 21:30

#	Program:	/corina/corina34_cracker 3.40 0067  02.08.2006

@<TRIPOS>MOLECULE
ASD13010042
  38   41    0    0    0
SMALL
NO_CHARGES


@<TRIPOS>ATOM
   1 C1            -0.0167     1.3774     0.0096 C.ar    
   2 C2             0.0021    -0.0041     0.0020 C.ar    
   3 C3             1.2182    -0.6740    -0.0132 C.ar    
   4 N4             2.3583    -0.0212    -0.0201 N.ar    
   5 C5             1.2018     2.0533     0.0016 C.ar    
   6 N6             1.5561     3.3800     0.0058 N.pl3   
   7 C7             2.3968     1.3090    -0.0133 C.ar    
   8 C8             3.4856     2.2889    -0.0185 C.2     
   9 N9             2.9512     3.4802    -0.0067 N.2     
  10 C10            0.6678     4.4548     0.0197 C.ar    
  11 O11            4.8150     2.0081    -0.0327 O.3     
  12 C12            5.6874     3.0505    -0.0355 C.ar    
  13 C13            6.1178     3.5939    -1.2382 C.ar    
  14 C14            6.1452     3.5774     1.1644 C.ar    
  15 C15            7.0326     4.6376     1.1584 C.ar    
  16 C16            7.4639     5.1731    -0.0411 C.ar    
  17 C17            7.0052     4.6541    -1.2378 C.ar    
  18 C18           -1.0978     6.5908     0.0475 C.ar    
  19 C19           -1.4240     5.4209    -0.6454 C.ar    
  20 C20           -0.5448     4.3621    -0.6571 C.ar    
  21 C21            0.9933     5.6156     0.7152 C.ar    
  22 C22            0.1188     6.6783     0.7311 C.ar    
  23 C23           -2.0372     7.7273     0.0622 C.2     
  24 O24           -3.0962     7.6479    -0.5282 O.2     
  25 O25           -1.7212     8.8540     0.7305 O.3     
  26 Cl26           5.5429     2.9427    -2.7412 Cl      
  27 Cl27           5.6038     2.9061     2.6711 Cl      
  28 H28           -0.9510     1.9190     0.0170 H       
  29 H29           -0.9240    -0.5597     0.0082 H       
  30 H30            1.2271    -1.7540    -0.0191 H       
  31 H31            7.3888     5.0482     2.0916 H       
  32 H32            8.1571     6.0013    -0.0433 H       
  33 H33            7.3408     5.0771    -2.1732 H       
  34 H34           -2.3631     5.3498    -1.1741 H       
  35 H35           -0.7960     3.4583    -1.1923 H       
  36 H36            1.9330     5.6824     1.2432 H       
  37 H37            0.3740     7.5804     1.2673 H       
  38 H38           -2.3687     9.5720     0.7114 H       
@<TRIPOS>BOND
   1    1    2 ar
   2    1    5 ar
   3    1   28 1
   4    2    3 ar
   5    2   29 1
   6    3    4 ar
   7    3   30 1
   8    4    7 ar
   9    5    7 ar
  10    5    6 1
  11    6    9 1
  12    6   10 1
  13    7    8 1
  14    8    9 2
  15    8   11 1
  16   10   21 ar
  17   10   20 ar
  18   11   12 1
  19   12   14 ar
  20   12   13 ar
  21   13   17 ar
  22   13   26 1
  23   14   15 ar
  24   14   27 1
  25   15   16 ar
  26   15   31 1
  27   16   17 ar
  28   16   32 1
  29   17   33 1
  30   18   19 ar
  31   18   22 ar
  32   18   23 1
  33   19   20 ar
  34   19   34 1
  35   20   35 1
  36   21   22 ar
  37   21   36 1
  38   22   37 1
  39   23   24 2
  40   23   25 1
  41   25   38 1

#	End of record

