#	Name: ASD10420004
#	Creating user name:	WinNT
#	Creation time:	15. 06. 2019 21:27

#	Modifying user name:	WinNT
#	Modification time:	15. 06. 2019 21:27

#	Program:	/corina/corina34_cracker 3.40 0067  02.08.2006

@<TRIPOS>MOLECULE
ASD10420004
  55   59    0    0    0
SMALL
NO_CHARGES


@<TRIPOS>ATOM
   1 N1            -0.0411     1.3498     0.5326 N.pl3   
   2 C2             0.0176     0.0300     0.1742 C.2     
   3 C3            -1.2189    -0.3231    -0.3957 C.2     
   4 C4            -2.0250     0.8143    -0.3729 C.2     
   5 C5            -1.2867     1.8398     0.1961 C.2     
   6 C6             1.0378     1.9502     1.1141 C.2     
   7 C7             2.1740     1.2562     1.3436 C.2     
   8 C8             2.2609    -0.0972     0.9858 C.2     
   9 C9             1.1889    -0.7083     0.4055 C.2     
  10 C10           -1.7381     3.1664     0.4057 C.2     
  11 N11           -1.7329     4.0488    -0.6130 N.am    
  12 C12           -2.2851     5.4014    -0.4429 C.3     
  13 C13           -1.2425     6.4167    -0.9228 C.3     
  14 N14           -0.8314     6.0814    -2.2926 N.3     
  15 C15           -0.1761     4.7677    -2.3458 C.3     
  16 C16           -1.1694     3.6869    -1.9224 C.3     
  17 O17           -2.1309     3.5093     1.5065 O.2     
  18 C18           -3.4405     0.9123    -0.8805 C.3     
  19 C19           -4.3981     0.5754     0.2334 C.ar    
  20 C20           -4.9557     1.5859     0.9960 C.ar    
  21 C21           -4.7245    -0.7450     0.4903 C.ar    
  22 C22           -5.6045    -1.0532     1.5142 C.ar    
  23 C23           -6.1566    -0.0430     2.2784 C.ar    
  24 C24           -5.8346     1.2761     2.0185 C.ar    
  25 Cl25          -4.5521     3.2426     0.6704 Cl      
  26 C26           -1.5947    -1.6553    -0.9221 C.ar    
  27 C27           -1.6853    -2.7487    -0.0606 C.ar    
  28 C28           -2.0363    -3.9872    -0.5571 C.ar    
  29 C29           -2.2978    -4.1461    -1.9064 C.ar    
  30 C30           -2.2091    -3.0656    -2.7660 C.ar    
  31 C31           -1.8651    -1.8207    -2.2807 C.ar    
  32 F32           -4.1852    -1.7324    -0.2576 F       
  33 H33            0.9829     2.9920     1.3937 H       
  34 H34            3.0193     1.7458     1.8044 H       
  35 H35            3.1698    -0.6511     1.1688 H       
  36 H36            1.2412    -1.7497     0.1245 H       
  37 H37           -3.1945     5.5028    -1.0351 H       
  38 H38           -2.5088     5.5759     0.6095 H       
  39 H39           -1.6750     7.4171    -0.9075 H       
  40 H40           -0.3743     6.3853    -0.2645 H       
  41 H41           -1.6164     6.1197    -2.9254 H       
  42 H42            0.1648     4.5722    -3.3625 H       
  43 H43            0.6773     4.7593    -1.6677 H       
  44 H44           -0.6576     2.7273    -1.8499 H       
  45 H45           -1.9738     3.6215    -2.6551 H       
  46 H46           -3.6319     1.9270    -1.2297 H       
  47 H47           -3.5805     0.2122    -1.7041 H       
  48 H48           -5.8596    -2.0833     1.7152 H       
  49 H49           -6.8434    -0.2837     3.0764 H       
  50 H50           -6.2666     2.0650     2.6163 H       
  51 H51           -1.4808    -2.6261     0.9927 H       
  52 H52           -2.1068    -4.8345     0.1089 H       
  53 H53           -2.5718    -5.1176    -2.2903 H       
  54 H54           -2.4141    -3.1960    -3.8183 H       
  55 H55           -1.7966    -0.9780    -2.9526 H       
@<TRIPOS>BOND
   1    1    2 1
   2    1    6 1
   3    1    5 1
   4    2    3 2
   5    2    9 1
   6    3    4 1
   7    3   26 1
   8    4    5 2
   9    4   18 1
  10    5   10 1
  11    6    7 2
  12    6   33 1
  13    7    8 1
  14    7   34 1
  15    8    9 2
  16    8   35 1
  17    9   36 1
  18   10   11 am
  19   10   17 2
  20   11   12 1
  21   11   16 1
  22   12   13 1
  23   12   37 1
  24   12   38 1
  25   13   14 1
  26   13   39 1
  27   13   40 1
  28   14   15 1
  29   14   41 1
  30   15   16 1
  31   15   42 1
  32   15   43 1
  33   16   44 1
  34   16   45 1
  35   18   19 1
  36   18   46 1
  37   18   47 1
  38   19   20 ar
  39   19   21 ar
  40   20   25 1
  41   20   24 ar
  42   21   22 ar
  43   21   32 1
  44   22   23 ar
  45   22   48 1
  46   23   24 ar
  47   23   49 1
  48   24   50 1
  49   26   27 ar
  50   26   31 ar
  51   27   28 ar
  52   27   51 1
  53   28   29 ar
  54   28   52 1
  55   29   30 ar
  56   29   53 1
  57   30   31 ar
  58   30   54 1
  59   31   55 1

#	End of record

