#	Name: ASD10160279
#	Creating user name:	WinNT
#	Creation time:	15. 06. 2019 21:25

#	Modifying user name:	WinNT
#	Modification time:	15. 06. 2019 21:25

#	Program:	/corina/corina34_cracker 3.40 0067  02.08.2006

@<TRIPOS>MOLECULE
ASD10160279
  31   32    0    0    0
SMALL
NO_CHARGES


@<TRIPOS>ATOM
   1 C1             0.3729     1.0981     1.9685 C.2     
   2 C2             0.2899    -0.2793     1.4444 C.ar    
   3 C3             1.3734    -0.8339     0.7574 C.ar    
   4 C4             1.2920    -2.1200     0.2703 C.ar    
   5 C5             0.1329    -2.8658     0.4614 C.ar    
   6 C6            -0.9460    -2.3168     1.1436 C.ar    
   7 C7            -0.8697    -1.0338     1.6389 C.ar    
   8 O8             1.3847     1.7517     1.8027 O.2     
   9 N9            -0.6749     1.6333     2.6259 N.am    
  10 O10            0.0558    -4.1323    -0.0201 O.3     
  11 C11           -3.4650    -6.0747     0.3119 C.ar    
  12 N12           -3.2402    -5.3352    -0.7556 N.ar    
  13 C13           -2.0987    -4.6828    -0.9015 C.ar    
  14 C14           -1.1302    -4.7863     0.0918 C.ar    
  15 C15           -1.4070    -5.5771     1.2025 C.ar    
  16 N16           -2.5728    -6.1979     1.2741 N.ar    
  17 S17           -0.5817     3.1786     3.2138 S.o2    
  18 O18           -1.8334     3.3861     3.8537 O.2     
  19 O19            0.6315     3.1997     3.9533 O.2     
  20 C20           -0.4433     4.2184     1.7339 C.3     
  21 Cl21           2.6366    -2.8107    -0.5833 Cl      
  22 H22            2.2728    -0.2550     0.6084 H       
  23 H23           -1.8442    -2.8985     1.2893 H       
  24 H24           -1.7071    -0.6099     2.1732 H       
  25 H25           -1.4835     1.1133     2.7546 H       
  26 H26           -4.4091    -6.5911     0.4028 H       
  27 H27           -1.9211    -4.0788    -1.7790 H       
  28 H28           -0.6805    -5.6825     1.9947 H       
  29 H29           -1.3220     4.0745     1.1052 H       
  30 H30           -0.3761     5.2652     2.0303 H       
  31 H31            0.4514     3.9403     1.1768 H       
@<TRIPOS>BOND
   1    1    2 1
   2    1    8 2
   3    1    9 am
   4    2    3 ar
   5    2    7 ar
   6    3    4 ar
   7    3   22 1
   8    4    5 ar
   9    4   21 1
  10    5    6 ar
  11    5   10 1
  12    6    7 ar
  13    6   23 1
  14    7   24 1
  15    9   17 am
  16    9   25 1
  17   10   14 1
  18   11   12 ar
  19   11   16 ar
  20   11   26 1
  21   12   13 ar
  22   13   14 ar
  23   13   27 1
  24   14   15 ar
  25   15   16 ar
  26   15   28 1
  27   17   18 2
  28   17   19 2
  29   17   20 1
  30   20   29 1
  31   20   30 1
  32   20   31 1

#	End of record

