#	Name: ASD10160269
#	Creating user name:	WinNT
#	Creation time:	15. 06. 2019 21:25

#	Modifying user name:	WinNT
#	Modification time:	15. 06. 2019 21:25

#	Program:	/corina/corina34_cracker 3.40 0067  02.08.2006

@<TRIPOS>MOLECULE
ASD10160269
  45   46    0    0    0
SMALL
NO_CHARGES


@<TRIPOS>ATOM
   1 C1             4.7421    -7.0622    -0.9531 C.2     
   2 C2             3.5083    -6.2902    -0.7075 C.ar    
   3 C3             2.8488    -5.6668    -1.7701 C.ar    
   4 C4             1.6979    -4.9478    -1.5371 C.ar    
   5 C5             1.1920    -4.8413    -0.2465 C.ar    
   6 C6             1.8453    -5.4601     0.8134 C.ar    
   7 C7             2.9935    -6.1856     0.5875 C.ar    
   8 O8             5.1858    -7.1564    -2.0811 O.2     
   9 N9             5.3798    -7.6581     0.0739 N.am    
  10 S10            6.7640    -8.5243    -0.2017 S.o2    
  11 O11            7.1307    -9.0160     1.0801 O.2     
  12 O12            6.4177    -9.4124    -1.2555 O.2     
  13 C13            7.9630    -7.2906    -0.7771 C.3     
  14 O14            0.0581    -4.1312    -0.0206 O.3     
  15 C15           -2.3241    -4.0837    -0.0033 C.ar    
  16 C16           -1.1322    -4.7814    -0.1173 C.ar    
  17 C17           -1.1687    -6.1564    -0.3327 C.ar    
  18 C18           -2.4025    -6.7764    -0.4250 C.ar    
  19 C19           -3.5551    -6.0122    -0.3006 C.ar    
  20 N20           -3.4827    -4.7078    -0.0960 N.ar    
  21 O21           -4.7701    -6.6111    -0.3897 O.3     
  22 C22           -5.9186    -5.7717    -0.2536 C.3     
  23 C23           -7.1868    -6.6181    -0.3812 C.3     
  24 C24           -8.4129    -5.7434    -0.1120 C.3     
  25 C25           -7.2736    -7.1968    -1.7948 C.3     
  26 H26            3.2416    -5.7485    -2.7729 H       
  27 H27            1.1876    -4.4658    -2.3578 H       
  28 H28            1.4493    -5.3751     1.8145 H       
  29 H29            3.4980    -6.6697     1.4106 H       
  30 H30            5.0280    -7.5796     0.9744 H       
  31 H31            8.1036    -6.5333    -0.0058 H       
  32 H32            8.9152    -7.7787    -0.9849 H       
  33 H33            7.5906    -6.8185    -1.6862 H       
  34 H34           -2.3042    -3.0176     0.1683 H       
  35 H35           -0.2557    -6.7257    -0.4259 H       
  36 H36           -2.4680    -7.8414    -0.5920 H       
  37 H37           -5.9014    -5.2880     0.7231 H       
  38 H38           -5.9084    -5.0124    -1.0354 H       
  39 H39           -7.1549    -7.4319     0.3433 H       
  40 H40           -8.4448    -4.9296    -0.8364 H       
  41 H41           -9.3164    -6.3464    -0.2029 H       
  42 H42           -8.3511    -5.3311     0.8952 H       
  43 H43           -8.1771    -7.7997    -1.8858 H       
  44 H44           -7.3055    -6.3830    -2.5193 H       
  45 H45           -6.4001    -7.8199    -1.9866 H       
@<TRIPOS>BOND
   1    1    2 1
   2    1    8 2
   3    1    9 am
   4    2    3 ar
   5    2    7 ar
   6    3    4 ar
   7    3   26 1
   8    4    5 ar
   9    4   27 1
  10    5    6 ar
  11    5   14 1
  12    6    7 ar
  13    6   28 1
  14    7   29 1
  15    9   10 am
  16    9   30 1
  17   10   11 2
  18   10   12 2
  19   10   13 1
  20   13   31 1
  21   13   32 1
  22   13   33 1
  23   14   16 1
  24   15   16 ar
  25   15   20 ar
  26   15   34 1
  27   16   17 ar
  28   17   18 ar
  29   17   35 1
  30   18   19 ar
  31   18   36 1
  32   19   20 ar
  33   19   21 1
  34   21   22 1
  35   22   23 1
  36   22   37 1
  37   22   38 1
  38   23   24 1
  39   23   25 1
  40   23   39 1
  41   24   40 1
  42   24   41 1
  43   24   42 1
  44   25   43 1
  45   25   44 1
  46   25   45 1

#	End of record

