#	Name: ASD11000077
#	Creating user name:	WinNT
#	Creation time:	15. 06. 2019 21:28

#	Modifying user name:	WinNT
#	Modification time:	15. 06. 2019 21:28

#	Program:	/corina/corina34_cracker 3.40 0067  02.08.2006

@<TRIPOS>MOLECULE
ASD11000077
  63   66    0    0    0
SMALL
NO_CHARGES


@<TRIPOS>ATOM
   1 C1            -1.4287    -0.0244    -0.5415 C.ar    
   2 C2            -0.9222    -1.2867    -0.3159 C.ar    
   3 C3             0.4494    -1.5013    -0.3433 C.ar    
   4 C4             1.3156    -0.4463    -0.5980 C.ar    
   5 C5             0.8162     0.8186    -0.8245 C.ar    
   6 C6            -0.5614     1.0379    -0.7976 C.ar    
   7 C7            -1.1014     2.3943    -1.0408 C.2     
   8 O8            -2.4431     2.6061    -1.0143 O.3     
   9 O9             0.9451    -2.7464    -0.1201 O.3     
  10 C10            2.3656    -2.8965    -0.1630 C.3     
  11 C11            2.7326    -4.3565     0.1098 C.3     
  12 N12            2.2381    -4.7447     1.4349 N.am    
  13 C13            2.1074    -5.2364    -0.9438 C.ar    
  14 C14            1.4012    -6.3760    -0.6275 C.ar    
  15 C15            2.2645    -4.8642    -2.2722 C.ar    
  16 C16            0.8617    -7.1546    -1.6445 C.ar    
  17 C17            1.0188    -6.7906    -2.9689 C.ar    
  18 C18            1.7235    -5.6333    -3.2863 C.ar    
  19 C19            2.1789    -6.1840     1.7391 C.3     
  20 C20            1.1652    -6.8231     0.7913 C.3     
  21 C21            1.8537    -3.8210     2.3380 C.2     
  22 O22            2.0224    -2.6394     2.1082 O.2     
  23 O23            1.8803    -5.2618    -4.5851 O.3     
  24 C24            2.6158    -4.0619    -4.8324 C.3     
  25 O25            0.4870    -7.5593    -3.9567 O.3     
  26 C26           -0.2235    -8.7322    -3.5545 C.3     
  27 C27            1.2268    -4.2449     3.6081 C.ar    
  28 C28            1.3616    -3.4582     4.7528 C.ar    
  29 C29            0.4929    -5.4308     3.6658 C.ar    
  30 C30           -0.0903    -5.8206     4.8549 C.ar    
  31 C31            0.0521    -5.0374     5.9882 C.ar    
  32 C32            0.7739    -3.8587     5.9353 C.ar    
  33 C33           -0.2721     3.4070    -1.2856 C.2     
  34 C34           -2.8942     3.9400    -1.2575 C.3     
  35 Cl35          -1.0041    -7.2947     4.9295 Cl      
  36 H36           -2.4958     0.1409    -0.5244 H       
  37 H37           -1.5930    -2.1094    -0.1172 H       
  38 H38            2.3819    -0.6168    -0.6182 H       
  39 H39            1.4905     1.6386    -1.0224 H       
  40 H40            2.7319    -2.6077    -1.1481 H       
  41 H41            2.8212    -2.2596     0.5952 H       
  42 H42            3.8163    -4.4698     0.0796 H       
  43 H43            2.8134    -3.9665    -2.5155 H       
  44 H44            0.3148    -8.0527    -1.3979 H       
  45 H45            3.1602    -6.6337     1.5872 H       
  46 H46            1.8614    -6.3300     2.7716 H       
  47 H47            0.1590    -6.5347     1.0954 H       
  48 H48            1.2582    -7.9078     0.8455 H       
  49 H49            2.6662    -3.8814    -5.9062 H       
  50 H50            2.1172    -3.2234    -4.3461 H       
  51 H51            3.6249    -4.1655    -4.4336 H       
  52 H52           -0.5948    -9.2526    -4.4373 H       
  53 H53            0.4455    -9.3899    -2.9996 H       
  54 H54           -1.0631    -8.4486    -2.9199 H       
  55 H55            1.9251    -2.5377     4.7134 H       
  56 H56            0.3812    -6.0418     2.7823 H       
  57 H57           -0.4059    -5.3463     6.9163 H       
  58 H58            0.8812    -3.2524     6.8226 H       
  59 H59           -0.6662     4.3968    -1.4630 H       
  60 H60            0.7944     3.2386    -1.3066 H       
  61 H61           -3.9827     3.9702    -1.2078 H       
  62 H62           -2.4773     4.6077    -0.5035 H       
  63 H63           -2.5667     4.2596    -2.2468 H       
@<TRIPOS>BOND
   1    1    2 ar
   2    1    6 ar
   3    1   36 1
   4    2    3 ar
   5    2   37 1
   6    3    4 ar
   7    3    9 1
   8    4    5 ar
   9    4   38 1
  10    5    6 ar
  11    5   39 1
  12    6    7 1
  13    7    8 1
  14    7   33 2
  15    8   34 1
  16    9   10 1
  17   10   11 1
  18   10   40 1
  19   10   41 1
  20   11   12 1
  21   11   13 1
  22   11   42 1
  23   12   19 1
  24   12   21 am
  25   13   14 ar
  26   13   15 ar
  27   14   16 ar
  28   14   20 1
  29   15   18 ar
  30   15   43 1
  31   16   17 ar
  32   16   44 1
  33   17   18 ar
  34   17   25 1
  35   18   23 1
  36   19   20 1
  37   19   45 1
  38   19   46 1
  39   20   47 1
  40   20   48 1
  41   21   22 2
  42   21   27 1
  43   23   24 1
  44   24   49 1
  45   24   50 1
  46   24   51 1
  47   25   26 1
  48   26   52 1
  49   26   53 1
  50   26   54 1
  51   27   28 ar
  52   27   29 ar
  53   28   32 ar
  54   28   55 1
  55   29   30 ar
  56   29   56 1
  57   30   31 ar
  58   30   35 1
  59   31   32 ar
  60   31   57 1
  61   32   58 1
  62   33   59 1
  63   33   60 1
  64   34   61 1
  65   34   62 1
  66   34   63 1

#	End of record

