#	Name: ASD11000269
#	Creating user name:	WinNT
#	Creation time:	15. 06. 2019 21:29

#	Modifying user name:	WinNT
#	Modification time:	15. 06. 2019 21:29

#	Program:	/corina/corina34_cracker 3.40 0067  02.08.2006

@<TRIPOS>MOLECULE
ASD11000269
  47   50    0    0    0
SMALL
NO_CHARGES


@<TRIPOS>ATOM
   1 O1             0.0369     1.2978     0.0453 O.3     
   2 C2             0.0632    -0.0442     0.0358 C.2     
   3 N3             1.3422    -0.4682     0.0112 N.am    
   4 C4             2.1592     0.6646     0.0050 C.ar    
   5 C5             1.3077     1.7692     0.0269 C.ar    
   6 C6             1.8400     3.0485     0.0262 C.ar    
   7 C7             3.2145     3.2242     0.0036 C.ar    
   8 C8             4.0590     2.1227    -0.0181 C.ar    
   9 C9             3.5328     0.8455    -0.0166 C.ar    
  10 O10           -0.9156    -0.7657     0.0479 O.2     
  11 O11            3.7375     4.4793     0.0024 O.3     
  12 C12            5.1621     4.5886    -0.0214 C.3     
  13 C13            6.2522     8.6282    -0.0152 C.ar    
  14 N14            6.1032     7.9967     1.1402 N.ar    
  15 C15            5.7592     6.7200     1.1734 C.ar    
  16 C16            5.5544     6.0436    -0.0191 C.ar    
  17 C17            5.7188     6.7346    -1.2095 C.ar    
  18 N18            6.0640     8.0108    -1.1724 N.ar    
  19 N19            6.6075     9.9668    -0.0130 N.pl3   
  20 C20            6.8845    10.6197    -1.2205 C.ar    
  21 C21            6.5445    11.9564    -1.3814 C.ar    
  22 C22            6.8184    12.5996    -2.5724 C.ar    
  23 C23            7.4330    11.9108    -3.6077 C.ar    
  24 C24            7.7725    10.5754    -3.4480 C.ar    
  25 C25            7.5044     9.9323    -2.2556 C.ar    
  26 O26            7.7023    12.5449    -4.7801 O.3     
  27 C27            8.3366    11.7750    -5.8033 C.3     
  28 F28            7.5225    10.6888    -6.1419 F       
  29 F29            8.5385    12.5761    -6.9323 F       
  30 F30            9.5697    11.3062    -5.3375 F       
  31 C31            1.7930    -1.8620    -0.0051 C.3     
  32 O32            1.5861    -2.4144    -1.3067 O.3     
  33 H33            1.1850     3.9070     0.0427 H       
  34 H34            5.1295     2.2645    -0.0360 H       
  35 H35            4.1909    -0.0107    -0.0333 H       
  36 H36            5.5788     4.0986     0.8586 H       
  37 H37            5.5482     4.1095    -0.9211 H       
  38 H38            5.6396     6.2105     2.1181 H       
  39 H39            5.5671     6.2367    -2.1558 H       
  40 H40            6.6646    10.4521     0.8249 H       
  41 H41            6.0657    12.4927    -0.5755 H       
  42 H42            6.5537    13.6391    -2.6978 H       
  43 H43            8.2506    10.0397    -4.2547 H       
  44 H44            7.7732     8.8939    -2.1297 H       
  45 H45            2.8536    -1.9038     0.2429 H       
  46 H46            1.2257    -2.4360     0.7276 H       
  47 H47            1.8627    -3.3371    -1.3909 H       
@<TRIPOS>BOND
   1    1    2 1
   2    1    5 1
   3    2    3 am
   4    2   10 2
   5    3    4 1
   6    3   31 1
   7    4    5 ar
   8    4    9 ar
   9    5    6 ar
  10    6    7 ar
  11    6   33 1
  12    7    8 ar
  13    7   11 1
  14    8    9 ar
  15    8   34 1
  16    9   35 1
  17   11   12 1
  18   12   16 1
  19   12   36 1
  20   12   37 1
  21   13   14 ar
  22   13   18 ar
  23   13   19 1
  24   14   15 ar
  25   15   16 ar
  26   15   38 1
  27   16   17 ar
  28   17   18 ar
  29   17   39 1
  30   19   20 1
  31   19   40 1
  32   20   21 ar
  33   20   25 ar
  34   21   22 ar
  35   21   41 1
  36   22   23 ar
  37   22   42 1
  38   23   24 ar
  39   23   26 1
  40   24   25 ar
  41   24   43 1
  42   25   44 1
  43   26   27 1
  44   27   28 1
  45   27   29 1
  46   27   30 1
  47   31   32 1
  48   31   45 1
  49   31   46 1
  50   32   47 1

#	End of record

