#	Name: ASD11910008
#	Creating user name:	WinNT
#	Creation time:	15. 06. 2019 21:29

#	Modifying user name:	WinNT
#	Modification time:	15. 06. 2019 21:29

#	Program:	/corina/corina34_cracker 3.40 0067  02.08.2006

@<TRIPOS>MOLECULE
ASD11910008
  23   23    0    0    0
SMALL
NO_CHARGES


@<TRIPOS>ATOM
   1 C1            -0.0178     1.4648     0.0101 C.3     
   2 N2             0.0021    -0.0041     0.0020 N.3     
   3 C3            -1.3620    -0.5491     0.0121 C.3     
   4 C4             2.0330     2.2321    -1.2026 C.ar    
   5 C5             1.3960     1.9864    -0.0006 C.ar    
   6 C6             2.0557     2.2196     1.1916 C.ar    
   7 C7             3.3525     2.6981     1.1818 C.ar    
   8 C8             3.3305     2.7088    -1.2124 C.ar    
   9 C9             3.9899     2.9429    -0.0202 C.ar    
  10 C10            5.4035     3.4650    -0.0309 C.3     
  11 F11            6.2978     2.3893    -0.0440 F       
  12 F12            5.6020     4.2503    -1.1716 F       
  13 F13            5.6230     4.2401     1.1129 F       
  14 H14           -0.5450     1.8259    -0.8730 H       
  15 H15           -0.5280     1.8163     0.9069 H       
  16 H16            0.5256    -0.3543    -0.7863 H       
  17 H17           -1.8815    -0.2116     0.9089 H       
  18 H18           -1.8985    -0.2020    -0.8709 H       
  19 H19           -1.3182    -1.6382     0.0058 H       
  20 H20            1.5190     2.0460    -2.1340 H       
  21 H21            1.5577     2.0284     2.1307 H       
  22 H22            3.8677     2.8810     2.1132 H       
  23 H23            3.8280     2.9011    -2.1515 H       
@<TRIPOS>BOND
   1    1    2 1
   2    1    5 1
   3    1   14 1
   4    1   15 1
   5    2    3 1
   6    2   16 1
   7    3   17 1
   8    3   18 1
   9    3   19 1
  10    4    5 ar
  11    4    8 ar
  12    4   20 1
  13    5    6 ar
  14    6    7 ar
  15    6   21 1
  16    7    9 ar
  17    7   22 1
  18    8    9 ar
  19    8   23 1
  20    9   10 1
  21   10   11 1
  22   10   12 1
  23   10   13 1

#	End of record

