#	Name: ASD10610067
#	Creating user name:	WinNT
#	Creation time:	15. 06. 2019 21:27

#	Modifying user name:	WinNT
#	Modification time:	15. 06. 2019 21:27

#	Program:	/corina/corina34_cracker 3.40 0067  02.08.2006

@<TRIPOS>MOLECULE
ASD10610067
  64   68    0    0    0
SMALL
NO_CHARGES


@<TRIPOS>ATOM
   1 O1             0.8452     0.2999    -0.2158 O.3     
   2 C2             2.0176    -0.5196    -0.1215 C.3     
   3 C3             2.7423     0.6648     0.5297 C.3     
   4 C4             1.7033     1.4462    -0.2840 C.3     
   5 C5             2.5692     0.7607     2.0237 C.2     
   6 O6             1.6550     1.4086     2.4879 O.2     
   7 N7             3.4302     0.1264     2.8439 N.am    
   8 C8             3.3290     0.3080     4.2941 C.3     
   9 C9             4.0596     1.5897     4.6998 C.3     
  10 C10            3.9565    -0.8705     4.9929 C.ar    
  11 C11            3.2857    -1.4779     6.0422 C.ar    
  12 C12            3.8675    -2.5618     6.6808 C.ar    
  13 C13            5.1179    -3.0002     6.2352 C.ar    
  14 C14            5.7268    -2.3345     5.1728 C.ar    
  15 N15            5.1333    -1.3115     4.5929 N.ar    
  16 F16            2.0785    -1.0187     6.4385 F       
  17 C17            5.7859    -4.1546     6.8826 C.ar    
  18 C18            6.1585    -5.2730     6.1198 C.ar    
  19 C19            6.7860    -6.3526     6.7402 C.ar    
  20 C20            7.0377    -6.3168     8.0996 C.ar    
  21 C21            6.6691    -5.2131     8.8503 C.ar    
  22 C22            6.0518    -4.1327     8.2482 C.ar    
  23 O23            5.1663    -4.7395     2.8103 O.3     
  24 N24            5.2057    -4.4214     3.9800 N.2     
  25 C25            5.8858    -5.3061     4.6635 C.2     
  26 N26            6.2941    -6.2561     3.7912 N.2     
  27 C27            5.8315    -5.8839     2.6239 C.2     
  28 C28            6.0147    -6.6096     1.3160 C.3     
  29 F29            7.1476    -7.4329     6.0140 F       
  30 Cl30           6.9911    -5.1828    10.5559 Cl      
  31 N31            4.1267     0.8496     0.0875 N.am    
  32 C32            4.8278     1.9246     0.4990 C.2     
  33 C33            6.2575     2.0544     0.1452 C.ar    
  34 C34            6.8549     1.1264    -0.7091 C.ar    
  35 C35            8.1914     1.2540    -1.0359 C.ar    
  36 C36            8.9368     2.3007    -0.5167 C.ar    
  37 C37            8.3487     3.2224     0.3302 C.ar    
  38 C38            7.0136     3.1085     0.6597 C.ar    
  39 O39            4.2848     2.7873     1.1610 O.2     
  40 C40            9.1669     4.3572     0.8906 C.3     
  41 F41           10.4791     4.2656     0.4143 F       
  42 F42            8.6094     5.5762     0.4900 F       
  43 F43            9.1716     4.2832     2.2876 F       
  44 F44            8.7724     0.3570    -1.8623 F       
  45 H45            1.8966    -1.3728     0.5460 H       
  46 H46            2.4296    -0.7989    -1.0912 H       
  47 H47            2.0332     1.6802    -1.2962 H       
  48 H48            1.3070     2.3153     0.2410 H       
  49 H49            4.1169    -0.4503     2.4741 H       
  50 H50            2.2794     0.3825     4.5786 H       
  51 H51            3.9843     1.7248     5.7788 H       
  52 H52            5.1091     1.5152     4.4153 H       
  53 H53            3.6057     2.4421     4.1944 H       
  54 H54            3.3680    -3.0547     7.5017 H       
  55 H55            6.6928    -2.6632     4.8189 H       
  56 H56            7.5239    -7.1540     8.5782 H       
  57 H57            5.7717    -3.2731     8.8389 H       
  58 H58            5.5930    -6.0130     0.5072 H       
  59 H59            7.0777    -6.7683     1.1343 H       
  60 H60            5.5061    -7.5726     1.3605 H       
  61 H61            4.5387     0.1983    -0.5015 H       
  62 H62            6.2742     0.3105    -1.1134 H       
  63 H63            9.9812     2.3968    -0.7742 H       
  64 H64            6.5554     3.8318     1.3179 H       
@<TRIPOS>BOND
   1    1    2 1
   2    1    4 1
   3    2    3 1
   4    2   45 1
   5    2   46 1
   6    3    4 1
   7    3    5 1
   8    3   31 1
   9    4   47 1
  10    4   48 1
  11    5    6 2
  12    5    7 am
  13    7    8 1
  14    7   49 1
  15    8    9 1
  16    8   10 1
  17    8   50 1
  18    9   51 1
  19    9   52 1
  20    9   53 1
  21   10   11 ar
  22   10   15 ar
  23   11   12 ar
  24   11   16 1
  25   12   13 ar
  26   12   54 1
  27   13   14 ar
  28   13   17 1
  29   14   15 ar
  30   14   55 1
  31   17   18 ar
  32   17   22 ar
  33   18   19 ar
  34   18   25 1
  35   19   20 ar
  36   19   29 1
  37   20   21 ar
  38   20   56 1
  39   21   22 ar
  40   21   30 1
  41   22   57 1
  42   23   24 1
  43   23   27 1
  44   24   25 2
  45   25   26 1
  46   26   27 2
  47   27   28 1
  48   28   58 1
  49   28   59 1
  50   28   60 1
  51   31   32 am
  52   31   61 1
  53   32   33 1
  54   32   39 2
  55   33   34 ar
  56   33   38 ar
  57   34   35 ar
  58   34   62 1
  59   35   36 ar
  60   35   44 1
  61   36   37 ar
  62   36   63 1
  63   37   38 ar
  64   37   40 1
  65   38   64 1
  66   40   41 1
  67   40   42 1
  68   40   43 1

#	End of record

