#	Name: ASD13110102
#	Creating user name:	WinNT
#	Creation time:	15. 06. 2019 21:30

#	Modifying user name:	WinNT
#	Modification time:	15. 06. 2019 21:30

#	Program:	/corina/corina34_cracker 3.40 0067  02.08.2006

@<TRIPOS>MOLECULE
ASD13110102
  44   47    0    0    0
SMALL
NO_CHARGES


@<TRIPOS>ATOM
   1 C1            -0.0169     1.3931     0.0097 C.ar    
   2 C2             0.0021    -0.0041     0.0020 C.ar    
   3 C3             1.2342    -0.6794    -0.0134 C.ar    
   4 C4             2.4199     0.0415    -0.0208 C.ar    
   5 C5             2.3854     1.4196    -0.0131 C.ar    
   6 C6             1.1702     2.0931     0.0021 C.ar    
   7 N7             0.9295    -2.0271    -0.0173 N.pl3   
   8 C8            -0.4263    -2.1353    -0.0046 C.2     
   9 N9            -0.9693    -0.9529     0.0066 N.2     
  10 C10           -1.1885    -3.4353    -0.0034 C.3     
  11 N11           -1.5261    -3.8021     1.3742 N.am    
  12 C12           -2.7861    -3.3457     1.9660 C.3     
  13 C13           -0.6774    -4.5594     2.0971 C.2     
  14 O14            0.3658    -4.9373     1.6072 O.2     
  15 C15           -1.0246    -4.9368     3.5142 C.3     
  16 N16            0.0510    -5.7556     4.0790 N.am    
  17 C17            1.1682    -5.2871     4.7698 C.ar    
  18 C18            1.9189    -6.4092     5.1212 C.ar    
  19 O19            1.2610    -7.4970     4.6506 O.3     
  20 C20            0.1386    -7.0997     4.0310 C.2     
  21 C21            3.1016    -6.2517     5.8259 C.ar    
  22 C22            3.5313    -4.9863     6.1768 C.ar    
  23 C23            2.7860    -3.8739     5.8279 C.ar    
  24 C24            1.6052    -4.0212     5.1256 C.ar    
  25 O25           -0.6721    -7.8378     3.5051 O.2     
  26 C26            3.2629    -2.4980     6.2158 C.3     
  27 F27            1.1522     3.4440     0.0096 F       
  28 F28            4.4702    -2.6028     6.9148 F       
  29 F29            3.4567    -1.7295     5.0630 F       
  30 F30            2.3046    -1.8845     7.0297 F       
  31 H31           -0.9583     1.9224     0.0170 H       
  32 H32            3.3677    -0.4761    -0.0323 H       
  33 H33            3.3090     1.9794    -0.0186 H       
  34 H34            1.5647    -2.7601    -0.0271 H       
  35 H35           -2.1042    -3.3201    -0.5835 H       
  36 H36           -0.5731    -4.2177    -0.4474 H       
  37 H37           -3.5663    -4.0819     1.7720 H       
  38 H38           -2.6596    -3.2253     3.0419 H       
  39 H39           -3.0700    -2.3905     1.5243 H       
  40 H40           -1.1453    -4.0332     4.1116 H       
  41 H41           -1.9552    -5.5042     3.5214 H       
  42 H42            3.6866    -7.1169     6.1008 H       
  43 H43            4.4530    -4.8648     6.7264 H       
  44 H44            1.0246    -3.1519     4.8543 H       
@<TRIPOS>BOND
   1    1    2 ar
   2    1    6 ar
   3    1   31 1
   4    2    9 1
   5    2    3 ar
   6    3    4 ar
   7    3    7 1
   8    4    5 ar
   9    4   32 1
  10    5    6 ar
  11    5   33 1
  12    6   27 1
  13    7    8 1
  14    7   34 1
  15    8   10 1
  16    8    9 2
  17   10   11 1
  18   10   35 1
  19   10   36 1
  20   11   12 1
  21   11   13 am
  22   12   37 1
  23   12   38 1
  24   12   39 1
  25   13   14 2
  26   13   15 1
  27   15   16 1
  28   15   40 1
  29   15   41 1
  30   16   17 1
  31   16   20 am
  32   17   24 ar
  33   17   18 ar
  34   18   19 1
  35   18   21 ar
  36   19   20 1
  37   20   25 2
  38   21   22 ar
  39   21   42 1
  40   22   23 ar
  41   22   43 1
  42   23   24 ar
  43   23   26 1
  44   24   44 1
  45   26   28 1
  46   26   29 1
  47   26   30 1

#	End of record

