#	Name: ASD10690003
#	Creating user name:	WinNT
#	Creation time:	15. 06. 2019 21:28

#	Modifying user name:	WinNT
#	Modification time:	15. 06. 2019 21:28

#	Program:	/corina/corina34_cracker 3.40 0067  02.08.2006

@<TRIPOS>MOLECULE
ASD10690003
  18   19    0    0    0
SMALL
NO_CHARGES


@<TRIPOS>ATOM
   1 C1            -0.0168     1.3863     0.0097 C.ar    
   2 C2             0.0021    -0.0041     0.0020 C.ar    
   3 C3             1.2008    -0.6788    -0.0126 C.ar    
   4 C4             2.4062     0.0298    -0.0202 C.ar    
   5 C5             2.3920     1.4305    -0.0131 C.ar    
   6 C6             1.1428     2.0956     0.0024 C.ar    
   7 S7             4.0700    -0.5434    -0.0386 S.3     
   8 C8             4.6893     1.0984    -0.0362 C.2     
   9 C9             3.6837     1.9830    -0.0224 C.2     
  10 Cl10           3.9581     3.6972    -0.0169 Cl      
  11 C11            6.1118     1.4531    -0.0470 C.2     
  12 O12            7.0487     0.4829    -0.0603 O.3     
  13 O13            6.4471     2.6220    -0.0438 O.2     
  14 Cl14          -1.4906    -0.8904     0.0115 Cl      
  15 H15           -0.9624     1.9079     0.0170 H       
  16 H16            1.2109    -1.7588    -0.0177 H       
  17 H17            1.1105     3.1751     0.0082 H       
  18 H18            7.9734     0.7657    -0.0670 H       
@<TRIPOS>BOND
   1    1    2 ar
   2    1    6 ar
   3    1   15 1
   4    2    3 ar
   5    2   14 1
   6    3    4 ar
   7    3   16 1
   8    4    5 ar
   9    4    7 1
  10    5    6 ar
  11    5    9 1
  12    6   17 1
  13    7    8 1
  14    8    9 2
  15    8   11 1
  16    9   10 1
  17   11   12 1
  18   11   13 2
  19   12   18 1

#	End of record

