#	Name: ASD12360001
#	Creating user name:	WinNT
#	Creation time:	15. 06. 2019 21:30

#	Modifying user name:	WinNT
#	Modification time:	15. 06. 2019 21:30

#	Program:	/corina/corina34_cracker 3.40 0067  02.08.2006

@<TRIPOS>MOLECULE
ASD12360001
  59   62    0    0    0
SMALL
NO_CHARGES


@<TRIPOS>ATOM
   1 P1            -0.0198     1.6058     0.0109 P.3     
   2 P2            -1.1176    -9.9029    -5.1431 P.3     
   3 C3             0.6906    -0.7676    -0.9904 C.3     
   4 O4             0.0021    -0.0041     0.0020 O.3     
   5 C5             0.5083    -2.2594    -0.7035 C.3     
   6 O6            -0.8659    -2.6236    -0.8790 O.3     
   7 C7             1.3424    -3.0905    -1.7019 C.3     
   8 O8             2.5553    -3.5439    -1.0975 O.3     
   9 C9             0.3972    -4.2843    -2.0075 C.3     
  10 O10            0.5154    -5.3027    -1.0120 O.3     
  11 C11           -0.9862    -3.5902    -1.9348 C.3     
  12 N12           -4.3977    -7.0611    -3.7495 N.ar    
  13 O13           -1.8979   -11.0345    -4.5946 O.2     
  14 C14           -3.5505    -6.3058    -4.4244 C.ar    
  15 O15            0.2476   -10.4570    -5.7921 O.3     
  16 N16           -2.7337    -5.4591    -3.8339 N.ar    
  17 O17           -1.9834    -9.1521    -6.2740 O.3     
  18 C18           -2.7311    -5.3310    -2.5111 C.ar    
  19 C19           -3.6145    -6.1128    -1.7476 C.ar    
  20 C20           -4.4671    -7.0019    -2.4236 C.ar    
  21 N21           -5.3586    -7.7971    -1.7250 N.pl3   
  22 N22           -3.4098    -5.7920    -0.4475 N.2     
  23 C23           -2.4798    -4.8852    -0.3663 C.2     
  24 N24           -2.0291    -4.5675    -1.6130 N.pl3   
  25 C25            1.4861    -6.3055    -1.3187 C.3     
  26 C26            1.6344    -7.2897    -0.1373 C.3     
  27 O27            1.2266    -6.6706     1.0843 O.3     
  28 C28            0.6850    -8.4543    -0.4974 C.3     
  29 O29           -0.3383    -8.5899     0.4909 O.3     
  30 C30            0.0754    -8.0359    -1.8538 C.3     
  31 O31            1.0359    -7.1199    -2.4232 O.3     
  32 C32           -0.0978    -9.2570    -2.7592 C.3     
  33 O33           -0.7681    -8.8685    -3.9599 O.3     
  34 O34            1.3687     2.1180     0.0004 O.2     
  35 O35           -0.7984     2.1391    -1.2935 O.3     
  36 O36           -0.7733     2.1250     1.3355 O.3     
  37 H37            0.2843    -0.5347    -1.9747 H       
  38 H38            1.7519    -0.5203    -0.9676 H       
  39 H39            0.8220    -2.4806     0.3166 H       
  40 H40            1.5518    -2.5166    -2.6046 H       
  41 H41            3.1410    -2.8310    -0.8081 H       
  42 H42            0.5831    -4.6879    -3.0028 H       
  43 H43           -1.2103    -3.0935    -2.8788 H       
  44 H44           -3.5267    -6.3859    -5.5012 H       
  45 H45            0.8104    -9.7685    -6.1721 H       
  46 H46           -2.2303    -9.7164    -7.0195 H       
  47 H47           -5.9423    -8.4068    -2.2031 H       
  48 H48           -5.3998    -7.7449    -0.7573 H       
  49 H49           -2.1187    -4.4485     0.5530 H       
  50 H50            2.4461    -5.8447    -1.5515 H       
  51 H51            2.6629    -7.6424    -0.0608 H       
  52 H52            1.7517    -5.8958     1.3271 H       
  53 H53            1.2432    -9.3850    -0.5980 H       
  54 H54           -0.0058    -8.7929     1.3760 H       
  55 H55           -0.8814    -7.5364    -1.7018 H       
  56 H56            0.8811    -9.6679    -3.0062 H       
  57 H57           -0.6888   -10.0124    -2.2413 H       
  58 H58           -1.7167     1.8416    -1.3524 H       
  59 H59           -0.8240     3.0880     1.4073 H       
@<TRIPOS>BOND
   1    1    4 1
   2    1   34 2
   3    1   35 1
   4    1   36 1
   5    2   13 2
   6    2   15 1
   7    2   17 1
   8    2   33 1
   9    3    4 1
  10    3    5 1
  11    3   37 1
  12    3   38 1
  13    5    6 1
  14    5    7 1
  15    5   39 1
  16    6   11 1
  17    7    8 1
  18    7    9 1
  19    7   40 1
  20    8   41 1
  21    9   10 1
  22    9   11 1
  23    9   42 1
  24   10   25 1
  25   11   24 1
  26   11   43 1
  27   12   14 ar
  28   12   20 ar
  29   14   16 ar
  30   14   44 1
  31   15   45 1
  32   16   18 ar
  33   17   46 1
  34   18   19 ar
  35   18   24 1
  36   19   20 ar
  37   19   22 1
  38   20   21 1
  39   21   47 1
  40   21   48 1
  41   22   23 2
  42   23   24 1
  43   23   49 1
  44   25   26 1
  45   25   31 1
  46   25   50 1
  47   26   27 1
  48   26   28 1
  49   26   51 1
  50   27   52 1
  51   28   29 1
  52   28   30 1
  53   28   53 1
  54   29   54 1
  55   30   31 1
  56   30   32 1
  57   30   55 1
  58   32   33 1
  59   32   56 1
  60   32   57 1
  61   35   58 1
  62   36   59 1

#	End of record

