#	Name: ASD15360004
#	Creating user name:	WinNT
#	Creation time:	15. 06. 2019 21:31

#	Modifying user name:	WinNT
#	Modification time:	15. 06. 2019 21:31

#	Program:	/corina/corina34_cracker 3.40 0067  02.08.2006

@<TRIPOS>MOLECULE
ASD15360004
 135  139    0    0    0
SMALL
NO_CHARGES


@<TRIPOS>ATOM
   1 C1             0.0084     2.4607     0.4908 C.3     
   2 C2             0.1407     0.9396     0.3922 C.3     
   3 C3             0.9361     0.5772    -0.8635 C.3     
   4 C4             0.8700     0.4099     1.6284 C.3     
   5 H5             1.0430    -0.6606     1.5174 H       
   6 N6             0.0514     0.6513     2.8192 N.am    
   7 C7             0.2018    -0.1267     3.9094 C.2     
   8 O8             1.0149    -1.0266     3.9047 O.2     
   9 C9            -0.6402     0.1216     5.1343 C.3     
  10 H10           -1.6587     0.3674     4.8337 H       
  11 C11           -0.0483     1.2821     5.9367 C.3     
  12 S12           -1.0446     2.7739     5.6671 S.3     
  13 S13           -0.3300     4.0683     7.0870 S.3     
  14 C14           -1.8247     4.9375     7.6359 C.3     
  15 C15           -1.8810     4.9393     9.1648 C.3     
  16 H16           -1.7762     5.9606     9.5309 H       
  17 N17           -0.7907     4.1165     9.6945 N.am    
  18 C18           -0.3149     4.3454    10.9345 C.2     
  19 O19           -0.7893     5.2326    11.6118 O.2     
  20 C20            0.8066     3.4990    11.4794 C.3     
  21 H21            1.5352     3.3101    10.6911 H       
  22 C22            0.2432     2.1685    11.9826 C.3     
  23 N23            1.4586     4.2059    12.5898 N.3     
  24 C24           -3.2024     4.3756     9.6198 C.2     
  25 O25           -3.9797     3.9041     8.8171 O.2     
  26 N26           -3.5105     4.4032    10.9462 N.am    
  27 C27           -4.8192     3.8357    11.3293 C.3     
  28 H28           -5.4959     3.8691    10.4755 H       
  29 C29           -5.4109     4.6457    12.4846 C.3     
  30 C30           -5.7073     6.0469    12.0156 C.ar    
  31 C31           -4.7405     7.0295    12.1198 C.ar    
  32 C32           -5.0120     8.3147    11.6898 C.ar    
  33 C33           -6.2510     8.6176    11.1553 C.ar    
  34 I34           -6.6628    10.5654    10.5028 I       
  35 C35           -7.2180     7.6344    11.0512 C.ar    
  36 C36           -6.9439     6.3480    11.4762 C.ar    
  37 C37           -4.6210     2.4055    11.7610 C.2     
  38 O38           -3.5523     2.0338    12.1978 O.2     
  39 N39           -5.6698     1.5351    11.6501 N.am    
  40 C40           -5.3856     0.1503    12.0946 C.3     
  41 H41           -4.4063     0.1126    12.5717 H       
  42 C42           -6.4587    -0.3010    13.0875 C.3     
  43 C43           -6.3753     0.5411    14.3345 C.2     
  44 C44           -5.7063     0.2393    15.4585 C.2     
  45 N45           -5.8596     1.2425    16.3763 N.pl3   
  46 H46           -5.4689     1.2500    17.2641 H       
  47 C47           -6.6510     2.2398    15.8519 C.ar    
  48 C48           -7.1117     3.4559    16.3454 C.ar    
  49 C49           -7.9098     4.2560    15.5571 C.ar    
  50 C50           -8.2599     3.8613    14.2734 C.ar    
  51 C51           -7.8188     2.6703    13.7688 C.ar    
  52 C52           -7.0036     1.8471    14.5476 C.ar    
  53 C53           -5.3957    -0.7520    10.8877 C.2     
  54 O54           -6.0492    -0.4614     9.9082 O.2     
  55 N55           -4.6604    -1.8979    10.9120 N.am    
  56 C56           -4.7111    -2.7370     9.6974 C.3     
  57 H57           -4.9382    -3.7666     9.9739 H       
  58 C58           -5.7937    -2.2088     8.7540 C.3     
  59 C59           -7.1631    -2.3436     9.4228 C.3     
  60 C60           -8.2272    -1.6833     8.5438 C.3     
  61 C61           -9.5967    -1.8182     9.2126 C.3     
  62 N62          -10.6183    -1.1842     8.3687 N.3     
  63 C63           -3.3698    -2.6820     9.0127 C.2     
  64 O64           -2.3691    -2.3961     9.6354 O.2     
  65 N65           -3.3031    -2.9612     7.6758 N.am    
  66 C66           -1.9461    -2.8825     7.0855 C.3     
  67 H67           -1.2036    -2.8236     7.8814 H       
  68 C68           -1.6850    -4.1239     6.2302 C.3     
  69 C69           -1.6640    -5.3460     7.1118 C.ar    
  70 C70           -0.4762    -5.7656     7.6817 C.ar    
  71 C71           -0.4544    -6.8856     8.4902 C.ar    
  72 C72           -1.6257    -7.5891     8.7305 C.ar    
  73 O73           -1.6069    -8.6909     9.5258 O.3     
  74 C74           -2.8163    -7.1658     8.1578 C.ar    
  75 C75           -2.8337    -6.0424     7.3540 C.ar    
  76 C76           -1.8673    -1.6463     6.2274 C.2     
  77 O77           -2.8740    -1.1552     5.7623 O.2     
  78 N78           -0.6523    -1.0890     5.9804 N.am    
  79 C79            2.1913     1.1197     1.7748 C.2     
  80 O80            3.1083     1.0391     0.7979 O.3     
  81 O81            2.4252     1.7614     2.7715 O.2     
  82 H82            1.0004     2.9088     0.5472 H       
  83 H83           -0.5112     2.8380    -0.3899 H       
  84 H84           -0.5583     2.7188     1.3854 H       
  85 H85           -0.8514     0.4915     0.3358 H       
  86 H86            1.9282     1.0253    -0.8071 H       
  87 H87            1.0304    -0.5064    -0.9338 H       
  88 H88            0.4165     0.9546    -1.7443 H       
  89 H89           -0.5988     1.3711     2.8229 H       
  90 H90           -0.0517     1.0297     6.9971 H       
  91 H91            0.9754     1.4650     5.6100 H       
  92 H92           -1.8021     5.9646     7.2719 H       
  93 H93           -2.7053     4.4311     7.2405 H       
  94 H94           -0.4114     3.4069     9.1528 H       
  95 H95           -0.2407     1.6439    11.1587 H       
  96 H96            1.0543     1.5562    12.3767 H       
  97 H97           -0.4855     2.3574    12.7709 H       
  98 H98            1.8949     5.0576    12.2698 H       
  99 H99            0.8033     4.3928    13.3340 H       
 100 H100          -2.9029     4.7759    11.6041 H       
 101 H101          -6.3327     4.1737    12.8245 H       
 102 H102          -4.6963     4.6813    13.3069 H       
 103 H103          -3.7730     6.7930    12.5376 H       
 104 H104          -4.2568     9.0824    11.7716 H       
 105 H105          -8.1858     7.8708    10.6341 H       
 106 H106          -7.6975     5.5791    11.3908 H       
 107 H107          -6.5357     1.8042    11.3055 H       
 108 H108          -7.4438    -0.1846    12.6357 H       
 109 H109          -6.2983    -1.3480    13.3447 H       
 110 H110          -5.1325    -0.6621    15.6154 H       
 111 H111          -6.8450     3.7717    17.3431 H       
 112 H112          -8.2667     5.1998    15.9422 H       
 113 H113          -8.8862     4.5002    13.6686 H       
 114 H114          -8.0955     2.3695    12.7692 H       
 115 H115          -4.1315    -2.1494    11.6852 H       
 116 H116          -5.6003    -1.1596     8.5303 H       
 117 H117          -5.7826    -2.7855     7.8292 H       
 118 H118          -7.4022    -3.3993     9.5516 H       
 119 H119          -7.1416    -1.8545    10.3967 H       
 120 H120          -7.9882    -0.6277     8.4150 H       
 121 H121          -8.2487    -2.1725     7.5700 H       
 122 H122          -9.8357    -2.8738     9.3414 H       
 123 H123          -9.5752    -1.3291    10.1865 H       
 124 H124         -10.6141    -1.5768     7.4392 H       
 125 H125         -11.5325    -1.2600     8.7890 H       
 126 H126          -4.0860    -3.1939     7.1526 H       
 127 H127          -2.4755    -4.2258     5.4868 H       
 128 H128          -0.7235    -4.0226     5.7267 H       
 129 H129           0.4353    -5.2176     7.4943 H       
 130 H130           0.4738    -7.2134     8.9345 H       
 131 H131          -1.7610    -8.5030    10.4618 H       
 132 H132          -3.7294    -7.7119     8.3432 H       
 133 H133          -3.7610    -5.7100     6.9113 H       
 134 H134           0.1641    -1.4676     6.3424 H       
 135 H135           3.9407     1.5112     0.9371 H       
@<TRIPOS>BOND
   1    1    2 1
   2    1   82 1
   3    1   83 1
   4    1   84 1
   5    2    3 1
   6    2    4 1
   7    2   85 1
   8    3   86 1
   9    3   87 1
  10    3   88 1
  11    4    5 1
  12    4    6 1
  13    4   79 1
  14    6    7 am
  15    6   89 1
  16    7    8 2
  17    7    9 1
  18    9   10 1
  19    9   78 1
  20    9   11 1
  21   11   12 1
  22   11   90 1
  23   11   91 1
  24   12   13 1
  25   13   14 1
  26   14   15 1
  27   14   92 1
  28   14   93 1
  29   15   16 1
  30   15   17 1
  31   15   24 1
  32   17   18 am
  33   17   94 1
  34   18   19 2
  35   18   20 1
  36   20   21 1
  37   20   22 1
  38   20   23 1
  39   22   95 1
  40   22   96 1
  41   22   97 1
  42   23   98 1
  43   23   99 1
  44   24   25 2
  45   24   26 am
  46   26   27 1
  47   26  100 1
  48   27   28 1
  49   27   29 1
  50   27   37 1
  51   29   30 1
  52   29  101 1
  53   29  102 1
  54   30   36 ar
  55   30   31 ar
  56   31   32 ar
  57   31  103 1
  58   32   33 ar
  59   32  104 1
  60   33   34 1
  61   33   35 ar
  62   35   36 ar
  63   35  105 1
  64   36  106 1
  65   37   38 2
  66   37   39 am
  67   39   40 1
  68   39  107 1
  69   40   41 1
  70   40   42 1
  71   40   53 1
  72   42   43 1
  73   42  108 1
  74   42  109 1
  75   43   52 1
  76   43   44 2
  77   44   45 1
  78   44  110 1
  79   45   46 1
  80   45   47 1
  81   47   52 ar
  82   47   48 ar
  83   48   49 ar
  84   48  111 1
  85   49   50 ar
  86   49  112 1
  87   50   51 ar
  88   50  113 1
  89   51   52 ar
  90   51  114 1
  91   53   54 2
  92   53   55 am
  93   55   56 1
  94   55  115 1
  95   56   57 1
  96   56   58 1
  97   56   63 1
  98   58   59 1
  99   58  116 1
 100   58  117 1
 101   59   60 1
 102   59  118 1
 103   59  119 1
 104   60   61 1
 105   60  120 1
 106   60  121 1
 107   61   62 1
 108   61  122 1
 109   61  123 1
 110   62  124 1
 111   62  125 1
 112   63   64 2
 113   63   65 am
 114   65   66 1
 115   65  126 1
 116   66   67 1
 117   66   68 1
 118   66   76 1
 119   68   69 1
 120   68  127 1
 121   68  128 1
 122   69   75 ar
 123   69   70 ar
 124   70   71 ar
 125   70  129 1
 126   71   72 ar
 127   71  130 1
 128   72   73 1
 129   72   74 ar
 130   73  131 1
 131   74   75 ar
 132   74  132 1
 133   75  133 1
 134   76   77 2
 135   76   78 am
 136   78  134 1
 137   79   80 1
 138   79   81 2
 139   80  135 1

#	End of record

