#	Name: ASD10610015
#	Creating user name:	WinNT
#	Creation time:	15. 06. 2019 21:27

#	Modifying user name:	WinNT
#	Modification time:	15. 06. 2019 21:27

#	Program:	/corina/corina34_cracker 3.40 0067  02.08.2006

@<TRIPOS>MOLECULE
ASD10610015
  56   60    0    0    0
SMALL
NO_CHARGES


@<TRIPOS>ATOM
   1 C1             0.6143     1.0911    -0.4663 C.ar    
   2 C2             0.6892    -0.2996    -0.4111 C.ar    
   3 C3             1.9226    -0.9163    -0.2137 C.ar    
   4 C4             3.0657    -0.1518    -0.0733 C.ar    
   5 C5             2.9856     1.2286    -0.1288 C.ar    
   6 C6             1.7601     1.8453    -0.3252 C.ar    
   7 C7             4.3645     1.8278     0.0502 C.3     
   8 C8            -0.5375    -1.1183    -0.5613 C.ar    
   9 C9            -0.5651    -2.1780    -1.4631 C.ar    
  10 C10           -1.7100    -2.9397    -1.6006 C.ar    
  11 C11           -2.8349    -2.6555    -0.8446 C.ar    
  12 C12           -2.8242    -1.6060     0.0560 C.ar    
  13 C13           -1.6752    -0.8322     0.2095 C.ar    
  14 F14           -3.9254    -1.3340     0.7899 F       
  15 C15           -1.6581     0.2939     1.1741 C.2     
  16 N16           -0.6307     1.1183     1.4250 N.2     
  17 N17            4.5281     2.3270     1.4178 N.am    
  18 C18            4.1275     3.5749     1.7320 C.2     
  19 O19            3.7131     4.3151     0.8652 O.2     
  20 C20            4.1945     4.0505     3.1604 C.3     
  21 N21            3.8984     2.9932     4.1303 N.am    
  22 C22            2.6665     2.4485     4.1783 C.2     
  23 C23            2.3264     1.4479     5.2527 C.3     
  24 O24            1.8317     2.7636     3.3569 O.2     
  25 F25            1.0009     1.0284     5.0965 F       
  26 F26            3.1801     0.3444     5.1493 F       
  27 F27            2.4824     2.0421     6.5096 F       
  28 Cl28          -1.7383    -4.2599    -2.7275 Cl      
  29 N29           -1.0228     1.9560     2.3241 N.2     
  30 N30           -2.2418     1.6896     2.6407 N.pl3   
  31 N31           -2.6523     0.6834     1.9480 N.2     
  32 C32           -3.0393     2.4197     3.6292 C.3     
  33 C33            4.5035    -0.5721     0.1465 C.3     
  34 C34            5.3470     0.6680    -0.2175 C.3     
  35 C35            5.4649     4.8574     3.4884 C.3     
  36 O36            4.5797     5.7482     4.1967 O.3     
  37 C37            3.4275     5.3616     3.4161 C.3     
  38 H38           -0.3376     1.5764    -0.6236 H       
  39 H39            1.9858    -1.9936    -0.1699 H       
  40 H40            1.7021     2.9229    -0.3680 H       
  41 H41            4.5231     2.6329    -0.6672 H       
  42 H42            0.3086    -2.4050    -2.0561 H       
  43 H43           -3.7251    -3.2561    -0.9592 H       
  44 H44            4.9248     1.7595     2.0971 H       
  45 H45            4.5889     2.6851     4.7379 H       
  46 H46           -3.5677     3.2367     3.1379 H       
  47 H47           -3.7612     1.7424     4.0855 H       
  48 H48           -2.3823     2.8232     4.3997 H       
  49 H49            4.6625    -0.8447     1.1898 H       
  50 H50            4.7574    -1.4071    -0.5064 H       
  51 H51            5.6398     0.6429    -1.2671 H       
  52 H52            6.2218     0.7446     0.4281 H       
  53 H53            6.1682     4.3300     4.1329 H       
  54 H54            5.9386     5.3079     2.6162 H       
  55 H55            3.2783     5.9658     2.5212 H       
  56 H56            2.5184     5.2359     4.0042 H       
@<TRIPOS>BOND
   1    1    2 ar
   2    1    6 ar
   3    1   38 1
   4    2    3 ar
   5    2    8 1
   6    3    4 ar
   7    3   39 1
   8    4    5 ar
   9    4   33 1
  10    5    6 ar
  11    5    7 1
  12    6   40 1
  13    7   17 1
  14    7   34 1
  15    7   41 1
  16    8    9 ar
  17    8   13 ar
  18    9   10 ar
  19    9   42 1
  20   10   11 ar
  21   10   28 1
  22   11   12 ar
  23   11   43 1
  24   12   13 ar
  25   12   14 1
  26   13   15 1
  27   15   16 1
  28   15   31 2
  29   16   29 2
  30   17   18 am
  31   17   44 1
  32   18   19 2
  33   18   20 1
  34   20   21 1
  35   20   35 1
  36   20   37 1
  37   21   22 am
  38   21   45 1
  39   22   23 1
  40   22   24 2
  41   23   25 1
  42   23   26 1
  43   23   27 1
  44   29   30 1
  45   30   31 1
  46   30   32 1
  47   32   46 1
  48   32   47 1
  49   32   48 1
  50   33   34 1
  51   33   49 1
  52   33   50 1
  53   34   51 1
  54   34   52 1
  55   35   36 1
  56   35   53 1
  57   35   54 1
  58   36   37 1
  59   37   55 1
  60   37   56 1

#	End of record

