#	Name: ASD11000009
#	Creating user name:	WinNT
#	Creation time:	15. 06. 2019 21:28

#	Modifying user name:	WinNT
#	Modification time:	15. 06. 2019 21:28

#	Program:	/corina/corina34_cracker 3.40 0067  02.08.2006

@<TRIPOS>MOLECULE
ASD11000009
  49   51    0    0    0
SMALL
NO_CHARGES


@<TRIPOS>ATOM
   1 C1            -0.0167     1.3779     0.0096 C.ar    
   2 C2             0.0021    -0.0041     0.0020 C.ar    
   3 C3             1.2086    -0.6806    -0.0138 C.ar    
   4 C4             2.3932     0.0340    -0.0221 C.ar    
   5 C5             2.3745     1.4047    -0.0140 C.ar    
   6 C6             1.1712     2.0869     0.0021 C.ar    
   7 C7             3.7128    -0.7092    -0.0413 C.3     
   8 C8             4.3852    -0.5380     1.3232 C.3     
   9 C9             5.1873     0.7473     1.3742 C.3     
  10 C10            4.3502     2.0107     1.3405 C.3     
  11 C11            3.6739     2.1829    -0.0224 C.3     
  12 N12            5.9852     0.7499     2.6077 N.3     
  13 C13            7.1739     1.6010     2.4639 C.3     
  14 C14            7.9777     1.5783     3.7656 C.3     
  15 C15            9.2157     2.4648     3.6159 C.3     
  16 C16           10.0196     2.4421     4.9175 C.3     
  17 C17           11.2390     3.3152     4.7701 C.ar    
  18 C18           11.1743     4.6550     5.1042 C.ar    
  19 C19           12.2928     5.4559     4.9689 C.ar    
  20 C20           13.4762     4.9169     4.4999 C.ar    
  21 C21           13.5412     3.5769     4.1667 C.ar    
  22 C22           12.4238     2.7750     4.3061 C.ar    
  23 H23           -0.9594     1.9047     0.0170 H       
  24 H24           -0.9261    -0.5563     0.0088 H       
  25 H25            1.2257    -1.7605    -0.0194 H       
  26 H26            1.1592     3.1669     0.0082 H       
  27 H27            3.5345    -1.7675    -0.2316 H       
  28 H28            4.3542    -0.2968    -0.8201 H       
  29 H29            3.6200    -0.5138     2.0991 H       
  30 H30            5.0502    -1.3826     1.5033 H       
  31 H31            5.8704     0.7625     0.5250 H       
  32 H32            3.5857     1.9546     2.1153 H       
  33 H33            4.9918     2.8706     1.5331 H       
  34 H34            4.3264     1.7985    -0.8063 H       
  35 H35            3.4676     3.2386    -0.1982 H       
  36 H36            5.4280     1.0375     3.3982 H       
  37 H37            7.7924     1.2264     1.6483 H       
  38 H38            6.8646     2.6231     2.2456 H       
  39 H39            7.3591     1.9529     4.5812 H       
  40 H40            8.2869     0.5562     3.9839 H       
  41 H41            9.8343     2.0902     2.8003 H       
  42 H42            8.9065     3.4869     3.3975 H       
  43 H43            9.4010     2.8167     5.7331 H       
  44 H44           10.3288     1.4200     5.1358 H       
  45 H45           10.2497     5.0762     5.4705 H       
  46 H46           12.2421     6.5028     5.2292 H       
  47 H47           14.3500     5.5428     4.3936 H       
  48 H48           14.4657     3.1558     3.8000 H       
  49 H49           12.4756     1.7273     4.0493 H       
@<TRIPOS>BOND
   1    1    2 ar
   2    1    6 ar
   3    1   23 1
   4    2    3 ar
   5    2   24 1
   6    3    4 ar
   7    3   25 1
   8    4    5 ar
   9    4    7 1
  10    5    6 ar
  11    5   11 1
  12    6   26 1
  13    7    8 1
  14    7   27 1
  15    7   28 1
  16    8    9 1
  17    8   29 1
  18    8   30 1
  19    9   10 1
  20    9   12 1
  21    9   31 1
  22   10   11 1
  23   10   32 1
  24   10   33 1
  25   11   34 1
  26   11   35 1
  27   12   13 1
  28   12   36 1
  29   13   14 1
  30   13   37 1
  31   13   38 1
  32   14   15 1
  33   14   39 1
  34   14   40 1
  35   15   16 1
  36   15   41 1
  37   15   42 1
  38   16   17 1
  39   16   43 1
  40   16   44 1
  41   17   18 ar
  42   17   22 ar
  43   18   19 ar
  44   18   45 1
  45   19   20 ar
  46   19   46 1
  47   20   21 ar
  48   20   47 1
  49   21   22 ar
  50   21   48 1
  51   22   49 1

#	End of record

