#	Name: ASD14170004
#	Creating user name:	WinNT
#	Creation time:	15. 06. 2019 21:30

#	Modifying user name:	WinNT
#	Modification time:	15. 06. 2019 21:30

#	Program:	/corina/corina34_cracker 3.40 0067  02.08.2006

@<TRIPOS>MOLECULE
ASD14170004
  41   43    0    0    0
SMALL
NO_CHARGES


@<TRIPOS>ATOM
   1 C1             0.0946     1.4281    -0.0736 C.2     
   2 C2             0.0925     0.0415    -0.3189 C.2     
   3 C3             1.3251    -0.4470     0.0740 C.2     
   4 N4             2.0423     0.6009     0.5376 N.pl3   
   5 N5             1.2536     1.7524     0.4341 N.2     
   6 N6             1.7484    -1.7712     0.0054 N.am    
   7 C7             3.4102     0.5415     1.0588 C.3     
   8 C8            -1.0427     2.3761    -0.3545 C.3     
   9 F9            -1.8718     2.4559     0.7695 F       
  10 F10           -0.5308     3.6447    -0.6474 F       
  11 F11           -1.7813     1.9078    -1.4465 F       
  12 C12           -1.0247    -0.7486    -0.8920 C.ar    
  13 C13           -1.4420    -0.5206    -2.2021 C.ar    
  14 C14           -2.4813    -1.2583    -2.7312 C.ar    
  15 C15           -3.1099    -2.2239    -1.9621 C.ar    
  16 C16           -2.6988    -2.4536    -0.6593 C.ar    
  17 C17           -1.6563    -1.7251    -0.1239 C.ar    
  18 F18           -4.1273    -2.9434    -2.4840 F       
  19 C19            2.8471    -2.0915    -0.7064 C.2     
  20 N20            3.2886    -3.3647    -0.7279 N.am    
  21 O21            3.4401    -1.2318    -1.3291 O.2     
  22 C22            4.4847    -3.6807    -1.3871 C.ar    
  23 C23            6.4340    -5.0645    -1.6079 C.ar    
  24 C24            6.8478    -4.3041    -2.6890 C.ar    
  25 C25            6.0848    -3.2307    -3.1156 C.ar    
  26 C26            4.9052    -2.9181    -2.4671 C.ar    
  27 C27            5.2545    -4.7556    -0.9559 C.ar    
  28 F28            8.0008    -4.6070    -3.3247 F       
  29 F29            4.8507    -5.4968     0.0990 F       
  30 H30            1.2525    -2.4635     0.4699 H       
  31 H31            4.1171     0.5929     0.2307 H       
  32 H32            3.5789     1.3811     1.7331 H       
  33 H33            3.5524    -0.3937     1.6004 H       
  34 H34           -0.9530     0.2325    -2.8022 H       
  35 H35           -2.8054    -1.0823    -3.7463 H       
  36 H36           -3.1922    -3.2069    -0.0631 H       
  37 H37           -1.3332    -1.9082     0.8902 H       
  38 H38            2.7787    -4.0624    -0.2873 H       
  39 H39            7.0305    -5.9017    -1.2768 H       
  40 H40            6.4097    -2.6394    -3.9589 H       
  41 H41            4.3106    -2.0807    -2.8012 H       
@<TRIPOS>BOND
   1    1    2 1
   2    1    5 2
   3    1    8 1
   4    2    3 2
   5    2   12 1
   6    3    4 1
   7    3    6 1
   8    4    5 1
   9    4    7 1
  10    6   19 am
  11    6   30 1
  12    7   31 1
  13    7   32 1
  14    7   33 1
  15    8    9 1
  16    8   10 1
  17    8   11 1
  18   12   13 ar
  19   12   17 ar
  20   13   14 ar
  21   13   34 1
  22   14   15 ar
  23   14   35 1
  24   15   16 ar
  25   15   18 1
  26   16   17 ar
  27   16   36 1
  28   17   37 1
  29   19   20 am
  30   19   21 2
  31   20   22 1
  32   20   38 1
  33   22   27 ar
  34   22   26 ar
  35   23   24 ar
  36   23   27 ar
  37   23   39 1
  38   24   25 ar
  39   24   28 1
  40   25   26 ar
  41   25   40 1
  42   26   41 1
  43   27   29 1

#	End of record

