#	Name: ASD11030009
#	Creating user name:	WinNT
#	Creation time:	15. 06. 2019 21:29

#	Modifying user name:	WinNT
#	Modification time:	15. 06. 2019 21:29

#	Program:	/corina/corina34_cracker 3.40 0067  02.08.2006

@<TRIPOS>MOLECULE
ASD11030009
  37   40    0    0    0
SMALL
NO_CHARGES


@<TRIPOS>ATOM
   1 F1            -0.0667     0.1231     1.8470 F       
   2 C2            -0.0767     1.4590     1.6462 C.ar    
   3 C3             1.1102     2.1730     1.6924 C.ar    
   4 C4             1.1059     3.5368     1.4878 C.ar    
   5 C5            -0.0973     4.1981     1.2336 C.ar    
   6 C6            -1.2900     3.4737     1.1881 C.ar    
   7 C7            -1.2732     2.1095     1.3891 C.ar    
   8 C8            -0.1083     5.6591     1.0139 C.2     
   9 N9             0.9319     6.4449     1.0305 N.2     
  10 N10            0.7428     7.6742     0.8219 N.2     
  11 C11           -0.4877     8.0688     0.6038 C.2     
  12 S12           -1.5306     6.6471     0.6754 S.3     
  13 N13           -0.8879     9.3428     0.3611 N.2     
  14 C14           -0.0015    10.3169     0.3291 C.2     
  15 N15            1.3462    10.1995     0.5202 N.am    
  16 C16            2.0958    11.2870     0.4531 C.2     
  17 O17            3.3020    11.2578     0.6123 O.2     
  18 C18            1.3704    12.5308     0.1726 C.2     
  19 C19            1.8824    13.7817     0.0503 C.2     
  20 C20            0.9814    14.9379    -0.0468 C.ar    
  21 C21           -0.3489    14.8308     0.3739 C.ar    
  22 C22           -1.1880    15.9204     0.2794 C.ar    
  23 C23           -0.7195    17.1192    -0.2305 C.ar    
  24 C24            0.5938    17.2361    -0.6498 C.ar    
  25 C25            1.4507    16.1568    -0.5563 C.ar    
  26 F26            2.7330    16.2716    -0.9660 F       
  27 S27           -0.3255    12.0318     0.0222 S.3     
  28 H28            2.0402     1.6605     1.8895 H       
  29 H29            2.0313     4.0923     1.5244 H       
  30 H30           -2.2235     3.9803     0.9923 H       
  31 H31           -2.1951     1.5481     1.3538 H       
  32 H32            1.7457     9.3345     0.7021 H       
  33 H33            2.9522    13.9272     0.0245 H       
  34 H34           -0.7174    13.8967     0.7714 H       
  35 H35           -2.2149    15.8384     0.6039 H       
  36 H36           -1.3832    17.9682    -0.3016 H       
  37 H37            0.9510    18.1749    -1.0467 H       
@<TRIPOS>BOND
   1    1    2 1
   2    2    3 ar
   3    2    7 ar
   4    3    4 ar
   5    3   28 1
   6    4    5 ar
   7    4   29 1
   8    5    6 ar
   9    5    8 1
  10    6    7 ar
  11    6   30 1
  12    7   31 1
  13    8    9 2
  14    8   12 1
  15    9   10 1
  16   10   11 2
  17   11   12 1
  18   11   13 1
  19   13   14 2
  20   14   15 1
  21   14   27 1
  22   15   16 am
  23   15   32 1
  24   16   17 2
  25   16   18 1
  26   18   19 2
  27   18   27 1
  28   19   20 1
  29   19   33 1
  30   20   21 ar
  31   20   25 ar
  32   21   22 ar
  33   21   34 1
  34   22   23 ar
  35   22   35 1
  36   23   24 ar
  37   23   36 1
  38   24   25 ar
  39   24   37 1
  40   25   26 1

#	End of record

