#	Name: ASD11000333
#	Creating user name:	WinNT
#	Creation time:	15. 06. 2019 21:29

#	Modifying user name:	WinNT
#	Modification time:	15. 06. 2019 21:29

#	Program:	/corina/corina34_cracker 3.40 0067  02.08.2006

@<TRIPOS>MOLECULE
ASD11000333
  46   49    0    0    0
SMALL
NO_CHARGES


@<TRIPOS>ATOM
   1 C1            -0.0168     1.3867     0.0097 C.ar    
   2 C2             0.0021    -0.0041     0.0020 C.ar    
   3 N3             1.1510    -0.6624    -0.0125 N.ar    
   4 C4             2.3098    -0.0315    -0.0202 C.ar    
   5 C5             2.3650     1.3481    -0.0128 C.ar    
   6 C6             1.1827     2.0759     0.0019 C.ar    
   7 C7             3.6950     2.0567    -0.0207 C.3     
   8 O8             4.1033     2.2883    -1.3704 O.3     
   9 C9             5.2912     2.9231    -1.5556 C.ar    
  10 C10            6.0471     3.3142    -0.4533 C.ar    
  11 C11            7.2533     3.9580    -0.6219 C.ar    
  12 C12            7.7263     4.2229    -1.9025 C.ar    
  13 C13            6.9655     3.8293    -3.0196 C.ar    
  14 C14            5.7450     3.1717    -2.8356 C.ar    
  15 N15            8.9318     4.8678    -2.0923 N.am    
  16 C16            9.3908     5.1258    -3.3293 C.2     
  17 C17            8.6661     4.7523    -4.4812 C.2     
  18 C18            7.4751     4.1154    -4.3621 C.2     
  19 O19           10.4597     5.6972    -3.4591 O.2     
  20 N20           -1.1958    -0.7093     0.0101 N.pl3   
  21 C21           -3.6077    -0.9765     0.0327 C.ar    
  22 C22           -4.1167    -1.4359     1.2327 C.ar    
  23 C23           -4.1444    -1.4189    -1.1622 C.ar    
  24 C24           -5.1910    -2.3215    -1.1592 C.ar    
  25 C25           -5.7031    -2.7835     0.0409 C.ar    
  26 C26           -5.1648    -2.3399     1.2391 C.ar    
  27 F27           -6.7264    -3.6655     0.0446 F       
  28 C28           -2.4706     0.0125     0.0267 C.3     
  29 F29           -5.6626    -2.7897     2.4117 F       
  30 H30           -0.9551     1.9214     0.0170 H       
  31 H31            3.2270    -0.6015    -0.0320 H       
  32 H32            1.1992     3.1557     0.0075 H       
  33 H33            3.6018     3.0100     0.4994 H       
  34 H34            4.4387     1.4392     0.4830 H       
  35 H35            5.6840     3.1112     0.5434 H       
  36 H36            7.8310     4.2572     0.2401 H       
  37 H37            5.1576     2.8672    -3.6892 H       
  38 H38            9.4553     5.1390    -1.3220 H       
  39 H39            9.0619     4.9742    -5.4613 H       
  40 H40            6.9144     3.8254    -5.2384 H       
  41 H41           -1.1876    -1.6792     0.0048 H       
  42 H42           -3.6963    -1.0898     2.1654 H       
  43 H43           -3.7455    -1.0585    -2.0990 H       
  44 H44           -5.6096    -2.6661    -2.0933 H       
  45 H45           -2.5248     0.6338     0.9206 H       
  46 H46           -2.5424     0.6434    -0.8593 H       
@<TRIPOS>BOND
   1    1    2 ar
   2    1    6 ar
   3    1   30 1
   4    2    3 ar
   5    2   20 1
   6    3    4 ar
   7    4    5 ar
   8    4   31 1
   9    5    6 ar
  10    5    7 1
  11    6   32 1
  12    7    8 1
  13    7   33 1
  14    7   34 1
  15    8    9 1
  16    9   10 ar
  17    9   14 ar
  18   10   11 ar
  19   10   35 1
  20   11   12 ar
  21   11   36 1
  22   12   13 ar
  23   12   15 1
  24   13   14 ar
  25   13   18 1
  26   14   37 1
  27   15   16 am
  28   15   38 1
  29   16   17 1
  30   16   19 2
  31   17   18 2
  32   17   39 1
  33   18   40 1
  34   20   28 1
  35   20   41 1
  36   21   22 ar
  37   21   23 ar
  38   21   28 1
  39   22   26 ar
  40   22   42 1
  41   23   24 ar
  42   23   43 1
  43   24   25 ar
  44   24   44 1
  45   25   26 ar
  46   25   27 1
  47   26   29 1
  48   28   45 1
  49   28   46 1

#	End of record

