#	Name: ASD14830003
#	Creating user name:	WinNT
#	Creation time:	15. 06. 2019 21:31

#	Modifying user name:	WinNT
#	Modification time:	15. 06. 2019 21:31

#	Program:	/corina/corina34_cracker 3.40 0067  02.08.2006

@<TRIPOS>MOLECULE
ASD14830003
  76   81    0    0    0
SMALL
NO_CHARGES


@<TRIPOS>ATOM
   1 C1             0.0093     1.2581     0.3082 C.ar    
   2 C2             0.0134    -0.1229     0.1206 C.ar    
   3 N3             1.1523    -0.7946     0.0176 N.ar    
   4 C4             2.3196    -0.1902     0.0873 C.ar    
   5 C5             2.3918     1.1939     0.2747 C.ar    
   6 C6             1.1995     1.9292     0.3868 C.ar    
   7 C7             3.6947     1.8690     0.3535 C.2     
   8 C8             4.8339     1.1526     0.2450 C.2     
   9 C9             6.1302     1.8243     0.3235 C.2     
  10 N10            7.2674     1.1091     0.2151 N.am    
  11 O11            6.1823     3.0294     0.4867 O.2     
  12 C12            8.5663     1.7822     0.2937 C.3     
  13 C13            9.6855     0.7500     0.1425 C.3     
  14 C14           11.0544     0.0137    -1.5292 C.ar    
  15 O15            9.7568     0.2708    -1.2109 O.3     
  16 C16           11.0702     1.4093     0.3456 C.3     
  17 C17           11.9239     0.6596    -0.6595 C.ar    
  18 C18           12.9614    -0.8936    -2.7124 C.ar    
  19 C19           11.5862    -0.7734    -2.5640 C.ar    
  20 C20           13.2865     0.5447    -0.8053 C.ar    
  21 C21           13.8182    -0.2342    -1.8352 C.ar    
  22 C22           15.2867    -0.3586    -1.9933 C.ar    
  23 C23           15.8134    -1.1384    -3.0237 C.ar    
  24 C24           17.1769    -1.2546    -3.1714 C.ar    
  25 C25           18.0338    -0.5910    -2.2894 C.ar    
  26 C26           17.5053     0.1900    -1.2582 C.ar    
  27 C27           16.1415     0.3088    -1.1152 C.ar    
  28 C28           19.4969    -0.7153    -2.4466 C.2     
  29 O29           19.9908    -1.7957    -2.7054 O.2     
  30 N30           -1.1903    -0.8043     0.0408 N.pl3   
  31 C31           10.6765    -1.4783    -3.4999 C.ar    
  32 C32           19.6963     1.7024    -2.1180 C.3     
  33 C33           10.0156    -2.0216    -5.7430 C.ar    
  34 C34            8.9781    -2.7945    -5.2471 C.ar    
  35 C35            8.7844    -2.9062    -3.8798 C.ar    
  36 C36            9.6281    -2.2522    -3.0056 C.ar    
  37 C37           10.8641    -1.3641    -4.8761 C.ar    
  38 F38            8.1496    -3.4365    -6.0994 F       
  39 N39           20.2846     0.3688    -2.3033 N.am    
  40 C40           21.7479     0.2396    -2.3287 C.3     
  41 C41           22.3098     1.2034    -3.3785 C.3     
  42 C42           21.8090     2.6194    -3.0851 C.3     
  43 C43           20.2812     2.6498    -3.1701 C.3     
  44 F44           22.2119     2.9995    -1.8005 F       
  45 F45           22.3457     3.5074    -4.0235 F       
  46 H46           -0.9247     1.7946     0.3865 H       
  47 H47            3.2283    -0.7673    -0.0004 H       
  48 H48            1.2219     2.9992     0.5316 H       
  49 H49            3.7409     2.9383     0.4983 H       
  50 H50            4.7877     0.0833     0.1002 H       
  51 H51            7.2259     0.1488     0.0850 H       
  52 H52            8.6421     2.5200    -0.5050 H       
  53 H53            8.6595     2.2804     1.2587 H       
  54 H54            9.5446    -0.0753     0.8404 H       
  55 H55           11.0338     2.4728     0.1095 H       
  56 H56           11.4328     1.2492     1.3610 H       
  57 H57           13.3669    -1.4996    -3.5091 H       
  58 H58           13.9467     1.0582    -0.1221 H       
  59 H59           15.1510    -1.6512    -3.7052 H       
  60 H60           17.5843    -1.8588    -3.9685 H       
  61 H61           18.1667     0.7033    -0.5760 H       
  62 H62           15.7329     0.9154    -0.3206 H       
  63 H63           -2.0275    -0.3202     0.1155 H       
  64 H64           -1.1958    -1.7654    -0.0898 H       
  65 H65           18.6146     1.6446    -2.2393 H       
  66 H66           19.9351     2.0717    -1.1207 H       
  67 H67           10.1630    -1.9372    -6.8095 H       
  68 H68            7.9744    -3.5098    -3.4975 H       
  69 H69            9.4766    -2.3402    -1.9399 H       
  70 H70           11.6724    -0.7616    -5.2636 H       
  71 H71           22.1540     0.4896    -1.3486 H       
  72 H72           22.0199    -0.7833    -2.5891 H       
  73 H73           23.3991     1.1877    -3.3408 H       
  74 H74           21.9752     0.8972    -4.3697 H       
  75 H75           19.9657     2.3300    -4.1632 H       
  76 H76           19.9266     3.6636    -2.9841 H       
@<TRIPOS>BOND
   1    1    2 ar
   2    1    6 ar
   3    1   46 1
   4    2    3 ar
   5    2   30 1
   6    3    4 ar
   7    4    5 ar
   8    4   47 1
   9    5    6 ar
  10    5    7 1
  11    6   48 1
  12    7    8 2
  13    7   49 1
  14    8    9 1
  15    8   50 1
  16    9   10 am
  17    9   11 2
  18   10   12 1
  19   10   51 1
  20   12   13 1
  21   12   52 1
  22   12   53 1
  23   13   16 1
  24   13   15 1
  25   13   54 1
  26   14   15 1
  27   14   17 ar
  28   14   19 ar
  29   16   17 1
  30   16   55 1
  31   16   56 1
  32   17   20 ar
  33   18   19 ar
  34   18   21 ar
  35   18   57 1
  36   19   31 1
  37   20   21 ar
  38   20   58 1
  39   21   22 1
  40   22   23 ar
  41   22   27 ar
  42   23   24 ar
  43   23   59 1
  44   24   25 ar
  45   24   60 1
  46   25   26 ar
  47   25   28 1
  48   26   27 ar
  49   26   61 1
  50   27   62 1
  51   28   29 2
  52   28   39 am
  53   30   63 1
  54   30   64 1
  55   31   37 ar
  56   31   36 ar
  57   32   43 1
  58   32   39 1
  59   32   65 1
  60   32   66 1
  61   33   34 ar
  62   33   37 ar
  63   33   67 1
  64   34   35 ar
  65   34   38 1
  66   35   36 ar
  67   35   68 1
  68   36   69 1
  69   37   70 1
  70   39   40 1
  71   40   41 1
  72   40   71 1
  73   40   72 1
  74   41   42 1
  75   41   73 1
  76   41   74 1
  77   42   43 1
  78   42   44 1
  79   42   45 1
  80   43   75 1
  81   43   76 1

#	End of record

