#	Name: ASD10160389
#	Creating user name:	WinNT
#	Creation time:	15. 06. 2019 21:25

#	Modifying user name:	WinNT
#	Modification time:	15. 06. 2019 21:25

#	Program:	/corina/corina34_cracker 3.40 0067  02.08.2006

@<TRIPOS>MOLECULE
ASD10160389
  44   45    0    0    0
SMALL
NO_CHARGES


@<TRIPOS>ATOM
   1 C1            -0.0168     1.3889     0.0097 C.ar    
   2 C2             0.0021    -0.0041     0.0020 C.ar    
   3 C3             1.2158    -0.6614    -0.0131 C.ar    
   4 C4             2.3884     0.1057    -0.0203 C.ar    
   5 C5             2.2879     1.4955    -0.0118 C.ar    
   6 N6             1.1101     2.0839     0.0027 N.ar    
   7 O7             5.0836     0.0406    -0.0459 O.3     
   8 B8             3.7953    -0.5908    -0.0370 Du      
   9 O9             4.0744    -1.9981    -0.0462 O.3     
  10 C10            5.2090    -2.1512     0.8324 C.3     
  11 C11            5.8932    -0.7690     0.8326 C.3     
  12 C12            7.3199    -0.8803     0.2910 C.3     
  13 C13            5.9021    -0.1788     2.2441 C.3     
  14 C14            4.7449    -2.5165     2.2438 C.3     
  15 C15            6.1626    -3.2180     0.2906 C.3     
  16 Cl16          -1.4833    -0.9026     0.0120 Cl      
  17 O17           -1.2044     2.0412     0.0188 O.3     
  18 C18           -1.1600     3.4694     0.0264 C.3     
  19 C19           -0.4291     3.9636    -1.2237 C.3     
  20 C20           -2.5859     4.0240     0.0361 C.3     
  21 C21           -0.4173     3.9500     1.2748 C.3     
  22 H22            1.2606    -1.7405    -0.0190 H       
  23 H23            3.1854     2.0962    -0.0172 H       
  24 H24            7.7688     0.1119     0.2433 H       
  25 H25            7.9107    -1.5151     0.9513 H       
  26 H26            7.2964    -1.3168    -0.7075 H       
  27 H27            4.8807    -0.1215     2.6205 H       
  28 H28            6.4960    -0.8151     2.9003 H       
  29 H29            6.3359     0.8208     2.2173 H       
  30 H30            4.2131    -3.4676     2.2166 H       
  31 H31            5.6109    -2.6031     2.9000 H       
  32 H32            4.0800    -1.7391     2.6202 H       
  33 H33            6.4957    -2.9344    -0.7077 H       
  34 H34            7.0256    -3.3031     0.9511 H       
  35 H35            5.6459    -4.1766     0.2426 H       
  36 H36           -0.9582     3.6212    -2.1130 H       
  37 H37           -0.3953     5.0530    -1.2179 H       
  38 H38            0.5867     3.5685    -1.2306 H       
  39 H39           -3.1066     3.6719     0.9267 H       
  40 H40           -2.5520     5.1134     0.0419 H       
  41 H41           -3.1150     3.6816    -0.8532 H       
  42 H42            0.5985     3.5550     1.2678 H       
  43 H43           -0.3835     5.0395     1.2805 H       
  44 H44           -0.9380     3.5980     2.1653 H       
@<TRIPOS>BOND
   1    1    2 ar
   2    1    6 ar
   3    1   17 1
   4    2    3 ar
   5    2   16 1
   6    3    4 ar
   7    3   22 1
   8    4    5 ar
   9    4    8 1
  10    5    6 ar
  11    5   23 1
  12    7    8 1
  13    7   11 1
  14    8    9 1
  15    9   10 1
  16   10   11 1
  17   10   14 1
  18   10   15 1
  19   11   12 1
  20   11   13 1
  21   12   24 1
  22   12   25 1
  23   12   26 1
  24   13   27 1
  25   13   28 1
  26   13   29 1
  27   14   30 1
  28   14   31 1
  29   14   32 1
  30   15   33 1
  31   15   34 1
  32   15   35 1
  33   17   18 1
  34   18   19 1
  35   18   21 1
  36   18   20 1
  37   19   36 1
  38   19   37 1
  39   19   38 1
  40   20   39 1
  41   20   40 1
  42   20   41 1
  43   21   42 1
  44   21   43 1
  45   21   44 1

#	End of record

