#	Name: ASD10410230
#	Creating user name:	WinNT
#	Creation time:	15. 06. 2019 21:27

#	Modifying user name:	WinNT
#	Modification time:	15. 06. 2019 21:27

#	Program:	/corina/corina34_cracker 3.40 0067  02.08.2006

@<TRIPOS>MOLECULE
ASD10410230
  53   56    0    0    0
SMALL
NO_CHARGES


@<TRIPOS>ATOM
   1 C1            -0.0183     1.3925    -0.0810 C.ar    
   2 C2            -0.0057     0.0095     0.0247 C.ar    
   3 C3             1.2007    -0.6691     0.1153 C.ar    
   4 C4             2.3904     0.0319     0.1003 C.ar    
   5 C5             2.3788     1.4166    -0.0056 C.ar    
   6 C6             1.1704     2.0951    -0.0962 C.ar    
   7 O7            -1.1769    -0.6816     0.0400 O.3     
   8 N8             3.5843     2.1280    -0.0204 N.pl3   
   9 C9             3.6712     3.3387    -0.7076 C.2     
  10 N10            4.7092     4.1402    -0.7098 N.2     
  11 N11            2.7109     3.8668    -1.4756 N.2     
  12 C12            3.1220     5.0134    -1.9732 C.2     
  13 N13            4.3787     5.2367    -1.5222 N.pl3   
  14 C14            5.1863     6.3396    -1.8081 C.ar    
  15 N15            2.3998     5.8418    -2.8109 N.pl3   
  16 C16            1.0440     5.4673    -3.2207 C.3     
  17 N17            4.9883     7.0261    -2.9224 N.ar    
  18 C18            6.1867     6.7094    -0.9173 C.ar    
  19 C19            5.7281     8.0735    -3.2304 C.ar    
  20 C20            6.7437     8.4941    -2.3937 C.ar    
  21 C21            6.9801     7.8046    -1.2127 C.ar    
  22 C22           -1.0897    -2.1036     0.1512 C.3     
  23 C23           -2.4976    -2.7024     0.1519 C.3     
  24 N24           -3.1367    -2.4526    -1.1470 N.3     
  25 C25           -3.0081    -1.0321    -1.5362 C.3     
  26 C26           -4.5689    -2.8006    -1.1069 C.3     
  27 C27           -5.3577    -1.5385    -1.5147 C.3     
  28 C28           -4.3116    -0.7146    -2.3108 C.3     
  29 H29           -0.9579     1.9196    -0.1560 H       
  30 H30            1.2096    -1.7459     0.1980 H       
  31 H31            3.3297    -0.4966     0.1712 H       
  32 H32            1.1605     3.1719    -0.1789 H       
  33 H33            4.3592     1.7790     0.4472 H       
  34 H34            2.7904     6.6713    -3.1276 H       
  35 H35            0.6366     6.2374    -3.8757 H       
  36 H36            1.0750     4.5166    -3.7531 H       
  37 H37            0.4118     5.3691    -2.3383 H       
  38 H38            6.3428     6.1502    -0.0066 H       
  39 H39            5.5377     8.6092    -4.1486 H       
  40 H40            7.3446     9.3529    -2.6538 H       
  41 H41            7.7679     8.1130    -0.5414 H       
  42 H42           -0.5266    -2.5002    -0.6937 H       
  43 H43           -0.5831    -2.3651     1.0802 H       
  44 H44           -2.4355    -3.7767     0.3256 H       
  45 H45           -3.0886    -2.2401     0.9425 H       
  46 H46           -2.9299    -0.4015    -0.6506 H       
  47 H47           -2.1402    -0.8922    -2.1806 H       
  48 H48           -4.7739    -3.6089    -1.8088 H       
  49 H49           -4.8489    -3.1029    -0.0978 H       
  50 H50           -6.2045    -1.8014    -2.1486 H       
  51 H51           -5.6903    -0.9903    -0.6333 H       
  52 H52           -4.5403     0.3504    -2.2702 H       
  53 H53           -4.2463    -1.0593    -3.3428 H       
@<TRIPOS>BOND
   1    1    2 ar
   2    1    6 ar
   3    1   29 1
   4    2    3 ar
   5    2    7 1
   6    3    4 ar
   7    3   30 1
   8    4    5 ar
   9    4   31 1
  10    5    6 ar
  11    5    8 1
  12    6   32 1
  13    7   22 1
  14    8    9 1
  15    8   33 1
  16    9   10 2
  17    9   11 1
  18   10   13 1
  19   11   12 2
  20   12   13 1
  21   12   15 1
  22   13   14 1
  23   14   17 ar
  24   14   18 ar
  25   15   16 1
  26   15   34 1
  27   16   35 1
  28   16   36 1
  29   16   37 1
  30   17   19 ar
  31   18   21 ar
  32   18   38 1
  33   19   20 ar
  34   19   39 1
  35   20   21 ar
  36   20   40 1
  37   21   41 1
  38   22   23 1
  39   22   42 1
  40   22   43 1
  41   23   24 1
  42   23   44 1
  43   23   45 1
  44   24   26 1
  45   24   25 1
  46   25   28 1
  47   25   46 1
  48   25   47 1
  49   26   27 1
  50   26   48 1
  51   26   49 1
  52   27   28 1
  53   27   50 1
  54   27   51 1
  55   28   52 1
  56   28   53 1

#	End of record

