#	Name: ASD10610054
#	Creating user name:	WinNT
#	Creation time:	15. 06. 2019 21:27

#	Modifying user name:	WinNT
#	Modification time:	15. 06. 2019 21:27

#	Program:	/corina/corina34_cracker 3.40 0067  02.08.2006

@<TRIPOS>MOLECULE
ASD10610054
  60   65    0    0    0
SMALL
NO_CHARGES


@<TRIPOS>ATOM
   1 C1            -0.5793     1.8493     1.2569 C.ar    
   2 C2            -1.7020     1.6139     2.0553 C.ar    
   3 C3            -1.7940     2.3055     3.2699 C.ar    
   4 C4            -0.7669     3.1755     3.5979 C.ar    
   5 N5             0.2532     3.3300     2.7765 N.ar    
   6 N6             0.3435     2.6998     1.6628 N.ar    
   7 C7            -2.7586     0.6660     1.6314 C.2     
   8 O8            -3.7261     0.4771     2.3419 O.2     
   9 N9            -2.6467     0.0132     0.4576 N.am    
  10 C10           -3.6322    -1.0065     0.0898 C.3     
  11 C11           -5.0730    -0.5460    -0.1405 C.3     
  12 C12           -4.2024    -0.9586    -1.3292 C.3     
  13 C13           -3.4265    -2.3635     0.7120 C.2     
  14 N14           -2.1784    -2.8345     0.9043 N.am    
  15 O15           -4.3840    -3.0318     1.0398 O.2     
  16 C16           -1.9787    -4.1946     1.4107 C.3     
  17 C17           -0.5980    -4.7304     0.9765 C.3     
  18 C18            0.2983    -4.3445     2.1722 C.3     
  19 C19           -0.6355    -4.2780     3.3621 C.ar    
  20 C20           -0.3589    -4.2915     4.7170 C.ar    
  21 C21           -1.3959    -4.2189     5.6438 C.ar    
  22 C22           -2.7142    -4.1321     5.1994 C.ar    
  23 C23           -2.9817    -4.1188     3.8449 C.ar    
  24 C24           -1.9446    -4.1918     2.9245 C.ar    
  25 F25           -4.2590    -4.0348     3.4129 F       
  26 C26           -1.0990    -4.2343     7.0962 C.ar    
  27 C27           -1.6582    -3.2620     7.9410 C.ar    
  28 C28           -1.3718    -3.2874     9.3054 C.ar    
  29 C29           -0.5412    -4.2668     9.8185 C.ar    
  30 C30            0.0092    -5.2248     8.9838 C.ar    
  31 C31           -0.2696    -5.2158     7.6299 C.ar    
  32 O32           -3.6326    -1.1205     6.0078 O.3     
  33 N33           -2.8961    -2.0761     6.1320 N.2     
  34 C34           -2.5472    -2.2145     7.3856 C.2     
  35 N35           -3.1506    -1.2223     8.0794 N.2     
  36 C36           -3.8331    -0.5392     7.1948 C.2     
  37 C37           -4.6848     0.6744     7.4643 C.3     
  38 F38           -1.9051    -2.3555    10.1255 F       
  39 Cl39           1.0501    -6.4481     9.6424 Cl      
  40 H40           -0.4657     1.3341     0.3145 H       
  41 H41           -2.6381     2.1653     3.9289 H       
  42 H42           -0.8018     3.7273     4.5257 H       
  43 H43           -1.9138     0.2185    -0.1437 H       
  44 H44           -5.8720    -1.2247     0.1576 H       
  45 H45           -5.2876     0.5156    -0.0184 H       
  46 H46           -3.8444    -0.1683    -1.9890 H       
  47 H47           -4.4288    -1.9087    -1.8130 H       
  48 H48           -1.4124    -2.2730     0.7073 H       
  49 H49           -2.7699    -4.8518     1.0500 H       
  50 H50           -0.6257    -5.8122     0.8463 H       
  51 H51           -0.2606    -4.2378     0.0646 H       
  52 H52            1.0623    -5.1051     2.3331 H       
  53 H53            0.7612    -3.3729     1.9998 H       
  54 H54            0.6639    -4.3588     5.0573 H       
  55 H55           -3.5236    -4.0759     5.9122 H       
  56 H56           -0.3204    -4.2845    10.8756 H       
  57 H57            0.1595    -5.9687     6.9855 H       
  58 H58           -5.1275     1.0222     6.5310 H       
  59 H59           -5.4763     0.4141     8.1670 H       
  60 H60           -4.0666     1.4649     7.8900 H       
@<TRIPOS>BOND
   1    1    2 ar
   2    1    6 ar
   3    1   40 1
   4    2    3 ar
   5    2    7 1
   6    3    4 ar
   7    3   41 1
   8    4    5 ar
   9    4   42 1
  10    5    6 ar
  11    7    8 2
  12    7    9 am
  13    9   10 1
  14    9   43 1
  15   10   11 1
  16   10   12 1
  17   10   13 1
  18   11   12 1
  19   11   44 1
  20   11   45 1
  21   12   46 1
  22   12   47 1
  23   13   14 am
  24   13   15 2
  25   14   16 1
  26   14   48 1
  27   16   17 1
  28   16   24 1
  29   16   49 1
  30   17   18 1
  31   17   50 1
  32   17   51 1
  33   18   19 1
  34   18   52 1
  35   18   53 1
  36   19   20 ar
  37   19   24 ar
  38   20   21 ar
  39   20   54 1
  40   21   22 ar
  41   21   26 1
  42   22   23 ar
  43   22   55 1
  44   23   24 ar
  45   23   25 1
  46   26   27 ar
  47   26   31 ar
  48   27   28 ar
  49   27   34 1
  50   28   29 ar
  51   28   38 1
  52   29   30 ar
  53   29   56 1
  54   30   31 ar
  55   30   39 1
  56   31   57 1
  57   32   33 1
  58   32   36 1
  59   33   34 2
  60   34   35 1
  61   35   36 2
  62   36   37 1
  63   37   58 1
  64   37   59 1
  65   37   60 1

#	End of record

