#	Name: ASD10160240
#	Creating user name:	WinNT
#	Creation time:	15. 06. 2019 21:25

#	Modifying user name:	WinNT
#	Modification time:	15. 06. 2019 21:25

#	Program:	/corina/corina34_cracker 3.40 0067  02.08.2006

@<TRIPOS>MOLECULE
ASD10160240
  38   40    0    0    0
SMALL
NO_CHARGES


@<TRIPOS>ATOM
   1 C1            -0.1276     1.4676     0.0316 C.2     
   2 C2            -0.0788    -0.0061     0.0179 C.ar    
   3 C3             1.1456    -0.6665    -0.1378 C.ar    
   4 C4             1.1861    -2.0463    -0.1500 C.ar    
   5 C5             0.0150    -2.7783    -0.0083 C.ar    
   6 C6            -1.2051    -2.1252     0.1463 C.ar    
   7 C7            -1.2545    -0.7481     0.1660 C.ar    
   8 O8             0.8967     2.1111    -0.0924 O.2     
   9 N9            -1.3083     2.1014     0.1760 N.am    
  10 S10           -1.3632     3.7564     0.1914 S.o2    
  11 O11           -2.7381     4.0597     0.3832 O.2     
  12 O12           -0.3890     4.1304     1.1560 O.2     
  13 C13           -0.8303     4.2425    -1.4730 C.3     
  14 O14            0.0593    -4.1351    -0.0209 O.3     
  15 N15           -0.5857    -6.0393    -3.6222 N.ar    
  16 C16           -0.6896    -4.7339    -3.5379 C.ar    
  17 C17           -0.4790    -4.0577    -2.3426 C.ar    
  18 C18           -0.1514    -4.7678    -1.2012 C.ar    
  19 C19           -0.0428    -6.1734    -1.3040 C.ar    
  20 C20            0.2850    -6.9629    -0.1923 C.ar    
  21 C21            0.3800    -8.3145    -0.3301 C.ar    
  22 C22            0.1552    -8.9242    -1.5643 C.ar    
  23 C23           -0.1649    -8.1848    -2.6647 C.ar    
  24 C24           -0.2718    -6.7883    -2.5589 C.ar    
  25 F25            0.2564   -10.2672    -1.6714 F       
  26 F26           -2.3415    -2.8427     0.2834 F       
  27 F27            2.2855     0.0452    -0.2762 F       
  28 H28            2.1301    -2.5570    -0.2704 H       
  29 H29           -2.2007    -0.2427     0.2912 H       
  30 H30           -2.1259     1.5881     0.2709 H       
  31 H31           -1.5121     3.8196    -2.2108 H       
  32 H32           -0.8365     5.3295    -1.5536 H       
  33 H33            0.1780     3.8705    -1.6548 H       
  34 H34           -0.9449    -4.1693    -4.4225 H       
  35 H35           -0.5714    -2.9824    -2.3043 H       
  36 H36            0.4615    -6.5014     0.7680 H       
  37 H37            0.6329    -8.9216     0.5267 H       
  38 H38           -0.3361    -8.6712    -3.6136 H       
@<TRIPOS>BOND
   1    1    2 1
   2    1    8 2
   3    1    9 am
   4    2    3 ar
   5    2    7 ar
   6    3    4 ar
   7    3   27 1
   8    4    5 ar
   9    4   28 1
  10    5    6 ar
  11    5   14 1
  12    6    7 ar
  13    6   26 1
  14    7   29 1
  15    9   10 am
  16    9   30 1
  17   10   11 2
  18   10   12 2
  19   10   13 1
  20   13   31 1
  21   13   32 1
  22   13   33 1
  23   14   18 1
  24   15   16 ar
  25   15   24 ar
  26   16   17 ar
  27   16   34 1
  28   17   18 ar
  29   17   35 1
  30   18   19 ar
  31   19   20 ar
  32   19   24 ar
  33   20   21 ar
  34   20   36 1
  35   21   22 ar
  36   21   37 1
  37   22   23 ar
  38   22   25 1
  39   23   24 ar
  40   23   38 1

#	End of record

