#	Name: ASD12260002
#	Creating user name:	WinNT
#	Creation time:	15. 06. 2019 21:30

#	Modifying user name:	WinNT
#	Modification time:	15. 06. 2019 21:30

#	Program:	/corina/corina34_cracker 3.40 0067  02.08.2006

@<TRIPOS>MOLECULE
ASD12260002
  10    9    0    0    0
SMALL
NO_CHARGES


@<TRIPOS>ATOM
   1 C1            -0.0173     1.4248     0.0099 C.3     
   2 O2             0.0021    -0.0041     0.0020 O.3     
   3 C3             1.4181     1.9544    -0.0010 C.3     
   4 O4             2.0503     1.5916    -1.2301 O.3     
   5 H5            -0.5445     1.7859    -0.8732 H       
   6 H6            -0.5275     1.7763     0.9067 H       
   7 H7            -0.8759    -0.4094     0.0082 H       
   8 H8             1.4055     3.0401     0.0945 H       
   9 H9             1.9710     1.5226     0.8333 H       
  10 H10            2.9652     1.8954    -1.3064 H       
@<TRIPOS>BOND
   1    1    2 1
   2    1    3 1
   3    1    5 1
   4    1    6 1
   5    2    7 1
   6    3    4 1
   7    3    8 1
   8    3    9 1
   9    4   10 1

#	End of record

