#	Name: ASD10420117
#	Creating user name:	WinNT
#	Creation time:	15. 06. 2019 21:27

#	Modifying user name:	WinNT
#	Modification time:	15. 06. 2019 21:27

#	Program:	/corina/corina34_cracker 3.40 0067  02.08.2006

@<TRIPOS>MOLECULE
ASD10420117
  85   89    0    0    0
SMALL
NO_CHARGES


@<TRIPOS>ATOM
   1 N1            -0.1213     0.1938    -0.6370 N.pl3   
   2 C2            -0.5637    -1.0117    -1.1160 C.2     
   3 C3            -1.9695    -0.9747    -1.1588 C.2     
   4 C4            -2.3624     0.2804    -0.6946 C.2     
   5 C5            -1.2150     0.9863    -0.3729 C.2     
   6 C6             1.2175     0.4317    -0.4911 C.2     
   7 C7             2.1295    -0.5057    -0.8125 C.2     
   8 C8             1.7114    -1.7635    -1.3110 C.2     
   9 C9             0.3548    -2.0118    -1.4610 C.2     
  10 C10           -1.1724     2.3512     0.1531 C.2     
  11 O11           -1.1852     2.5407     1.3557 O.2     
  12 C12           -3.7791     0.7768    -0.5620 C.3     
  13 C13           -4.2750     0.5133     0.8365 C.ar    
  14 C14           -4.4302     1.5620     1.7234 C.ar    
  15 C15           -4.5797    -0.7762     1.2300 C.ar    
  16 C16           -5.0347    -1.0194     2.5128 C.ar    
  17 C17           -5.1857     0.0267     3.4028 C.ar    
  18 C18           -2.8643    -2.0641    -1.6122 C.ar    
  19 C19           -2.9234    -3.2633    -0.9019 C.ar    
  20 C20           -3.7590    -4.2745    -1.3294 C.ar    
  21 C21           -4.5373    -4.1011    -2.4600 C.ar    
  22 C22           -4.4832    -2.9141    -3.1688 C.ar    
  23 C23           -3.6559    -1.8932    -2.7481 C.ar    
  24 C24           -4.1042     2.9687     1.2920 C.3     
  25 C25           -4.8857     1.3197     3.0080 C.ar    
  26 F26           -5.0326     2.3433     3.8775 F       
  27 C27            2.7054    -2.7964    -1.6658 C.2     
  28 N28            4.0210    -2.5452    -1.5159 N.am    
  29 O29            2.3369    -3.8734    -2.0931 O.2     
  30 C30            5.0071    -3.5699    -1.8679 C.3     
  31 N31           -1.1191     3.3984    -0.6936 N.am    
  32 C32           -1.1826     4.7793    -0.1913 C.3     
  33 C33           -0.0100     5.5674    -0.7846 C.3     
  34 N34           -0.0270     5.4373    -2.2478 N.3     
  35 C35            0.1692     4.0413    -2.6609 C.3     
  36 C36           -0.9899     3.1907    -2.1439 C.3     
  37 C37           -0.1408     7.0430    -0.4018 C.3     
  38 C38            1.0740     7.7957    -0.8801 C.2     
  39 N39            1.1787     9.1201    -0.6532 N.am    
  40 O40            1.9574     7.2096    -1.4692 O.2     
  41 C41            0.1116     9.8280     0.0583 C.3     
  42 C42            2.3596     9.8518    -1.1182 C.3     
  43 C43            2.1112    10.3736    -2.5349 C.3     
  44 O44            1.0556    11.3365    -2.5095 O.3     
  45 C45            0.7424    11.8893    -3.7895 C.3     
  46 H46            1.5490     1.3872    -0.1123 H       
  47 H47            3.1822    -0.2976    -0.6901 H       
  48 H48            0.0113    -2.9634    -1.8389 H       
  49 H49           -3.8091     1.8478    -0.7625 H       
  50 H50           -4.4152     0.2553    -1.2773 H       
  51 H51           -4.4626    -1.5944     0.5348 H       
  52 H52           -5.2724    -2.0274     2.8191 H       
  53 H53           -5.5418    -0.1634     4.4045 H       
  54 H54           -2.3160    -3.4000    -0.0194 H       
  55 H55           -3.8053    -5.2035    -0.7806 H       
  56 H56           -5.1896    -4.8957    -2.7909 H       
  57 H57           -5.0929    -2.7848    -4.0508 H       
  58 H58           -3.6147    -0.9670    -3.3020 H       
  59 H59           -4.9659     3.4018     0.7839 H       
  60 H60           -3.8588     3.5696     2.1676 H       
  61 H61           -3.2522     2.9520     0.6123 H       
  62 H62            4.3150    -1.6860    -1.1751 H       
  63 H63            4.9061    -3.8241    -2.9230 H       
  64 H64            6.0107    -3.1878    -1.6807 H       
  65 H65            4.8383    -4.4600    -1.2619 H       
  66 H66           -2.1234     5.2372    -0.4968 H       
  67 H67           -1.1093     4.7771     0.8962 H       
  68 H68            0.9282     5.1720    -0.3952 H       
  69 H69           -0.8804     5.8121    -2.6342 H       
  70 H70            0.2060     3.9857    -3.7488 H       
  71 H71            1.1049     3.6671    -2.2453 H       
  72 H72           -0.7892     2.1387    -2.3467 H       
  73 H73           -1.9118     3.4929    -2.6407 H       
  74 H74           -1.0336     7.4612    -0.8666 H       
  75 H75           -0.2198     7.1316     0.6817 H       
  76 H76            0.3168     9.8132     1.1288 H       
  77 H77            0.0661    10.8602    -0.2887 H       
  78 H78           -0.8421     9.3371    -0.1355 H       
  79 H79            2.5531    10.6913    -0.4505 H       
  80 H80            3.2218     9.1849    -1.1227 H       
  81 H81            3.0199    10.8406    -2.9146 H       
  82 H82            1.8307     9.5439    -3.1837 H       
  83 H83            1.6227    12.3878    -4.1953 H       
  84 H84            0.4334    11.0911    -4.4643 H       
  85 H85           -0.0680    12.6109    -3.6851 H       
@<TRIPOS>BOND
   1    1    2 1
   2    1    6 1
   3    1    5 1
   4    2    3 2
   5    2    9 1
   6    3    4 1
   7    3   18 1
   8    4    5 2
   9    4   12 1
  10    5   10 1
  11    6    7 2
  12    6   46 1
  13    7    8 1
  14    7   47 1
  15    8    9 2
  16    8   27 1
  17    9   48 1
  18   10   11 2
  19   10   31 am
  20   12   13 1
  21   12   49 1
  22   12   50 1
  23   13   14 ar
  24   13   15 ar
  25   14   24 1
  26   14   25 ar
  27   15   16 ar
  28   15   51 1
  29   16   17 ar
  30   16   52 1
  31   17   25 ar
  32   17   53 1
  33   18   19 ar
  34   18   23 ar
  35   19   20 ar
  36   19   54 1
  37   20   21 ar
  38   20   55 1
  39   21   22 ar
  40   21   56 1
  41   22   23 ar
  42   22   57 1
  43   23   58 1
  44   24   59 1
  45   24   60 1
  46   24   61 1
  47   25   26 1
  48   27   28 am
  49   27   29 2
  50   28   30 1
  51   28   62 1
  52   30   63 1
  53   30   64 1
  54   30   65 1
  55   31   32 1
  56   31   36 1
  57   32   33 1
  58   32   66 1
  59   32   67 1
  60   33   34 1
  61   33   37 1
  62   33   68 1
  63   34   35 1
  64   34   69 1
  65   35   36 1
  66   35   70 1
  67   35   71 1
  68   36   72 1
  69   36   73 1
  70   37   38 1
  71   37   74 1
  72   37   75 1
  73   38   39 am
  74   38   40 2
  75   39   41 1
  76   39   42 1
  77   41   76 1
  78   41   77 1
  79   41   78 1
  80   42   43 1
  81   42   79 1
  82   42   80 1
  83   43   44 1
  84   43   81 1
  85   43   82 1
  86   44   45 1
  87   45   83 1
  88   45   84 1
  89   45   85 1

#	End of record

