#	Name: ASD14630001
#	Creating user name:	WinNT
#	Creation time:	15. 06. 2019 21:31

#	Modifying user name:	WinNT
#	Modification time:	15. 06. 2019 21:31

#	Program:	/corina/corina34_cracker 3.40 0067  02.08.2006

@<TRIPOS>MOLECULE
ASD14630001
  21   20    0    0    0
SMALL
NO_CHARGES


@<TRIPOS>ATOM
   1 Cl1           -0.4191    -4.4906    -0.0490 Cl      
   2 N2             0.0826     1.3637     0.0064 N.2     
   3 N3             0.5101     1.2808     2.2911 N.pl3   
   4 N4             0.2824     3.3660     1.1725 N.pl3   
   5 C5            -0.0346    -0.0015    -0.0067 C.ar    
   6 C6            -0.9784    -0.6318     0.8062 C.ar    
   7 C7             0.7854    -0.7674    -0.8372 C.ar    
   8 C8            -1.0915    -2.0066     0.7885 C.ar    
   9 C9             0.6627    -2.1414    -0.8459 C.ar    
  10 C10           -0.2711    -2.7610    -0.0328 C.ar    
  11 C11            0.2886     1.9940     1.1395 C.2     
  12 H12           -1.6184    -0.0443     1.4478 H       
  13 H13            1.5142    -0.2852    -1.4719 H       
  14 H14           -1.8213    -2.4953     1.4169 H       
  15 H15            1.2965    -2.7350    -1.4880 H       
  16 H16            0.6232     0.3183     2.2513 H       
  17 H17            0.5535     1.7394     3.1448 H       
  18 H18            0.1258     3.8701     0.3587 H       
  19 H19            0.4346     3.8317     2.0097 H       
  20 Cl20           6.5142     8.8701     8.1448 Cl      
  21 H21            6.5142    10.2401     8.1448 H       
@<TRIPOS>BOND
   1    1   10 1
   2    2    5 1
   3    2   11 2
   4    3   11 1
   5    3   16 1
   6    3   17 1
   7    4   11 1
   8    4   18 1
   9    4   19 1
  10    5    6 ar
  11    5    7 ar
  12    6    8 ar
  13    6   12 1
  14    7    9 ar
  15    7   13 1
  16    8   10 ar
  17    8   14 1
  18    9   10 ar
  19    9   15 1
  20   20   21 1

#	End of record

