#	Name: ASD10108001
#	Creating user name:	WinNT
#	Creation time:	15. 06. 2019 21:24

#	Modifying user name:	WinNT
#	Modification time:	15. 06. 2019 21:24

#	Program:	/corina/corina34_cracker 3.40 0067  02.08.2006

@<TRIPOS>MOLECULE
ASD10108001
  43   44    0    0    0
SMALL
NO_CHARGES


@<TRIPOS>ATOM
   1 C1            -0.5673     1.2390     1.0161 C.2     
   2 C2             0.0176     1.8067     2.2493 C.ar    
   3 C3             0.4559     0.9620     3.2705 C.ar    
   4 C4             1.0013     1.4982     4.4186 C.ar    
   5 C5             1.1138     2.8700     4.5594 C.ar    
   6 C6             0.6809     3.7129     3.5512 C.ar    
   7 C7             0.1394     3.1895     2.3954 C.ar    
   8 O8            -1.1998     0.2015     1.0648 O.2     
   9 N9            -0.4042     1.8743    -0.1614 N.am    
  10 C10           -0.8977     1.2630    -1.3979 C.3     
  11 C11            1.5085     5.5446    -0.2774 C.2     
  12 N12            2.1809     4.4618     0.1513 N.am    
  13 C13            1.5841     3.2547     0.2000 C.2     
  14 C14            0.2413     3.1273    -0.2030 C.2     
  15 C15           -0.4323     4.2498    -0.6401 C.2     
  16 N16            0.2246     5.4580    -0.6698 N.am    
  17 O17            2.2031     2.2792     0.5901 O.2     
  18 O18            2.0700     6.6229    -0.3064 O.2     
  19 C19           -0.4783     6.6578    -1.1310 C.3     
  20 C20           -0.2923     6.8086    -2.6421 C.3     
  21 C21           -1.0264     8.0616    -3.1238 C.3     
  22 C22           -0.8404     8.2125    -4.6349 C.3     
  23 N23           -1.7440     4.1616    -1.0405 N.pl3   
  24 H24            0.3680    -0.1090     3.1621 H       
  25 H25            1.3407     0.8457     5.2095 H       
  26 H26            1.5412     3.2847     5.4604 H       
  27 H27            0.7713     4.7828     3.6675 H       
  28 H28           -0.1940     3.8484     1.6072 H       
  29 H29           -1.9530     1.5038    -1.5263 H       
  30 H30           -0.3312     1.6491    -2.2453 H       
  31 H31           -0.7760     0.1812    -1.3422 H       
  32 H32            3.1062     4.5506     0.4285 H       
  33 H33           -1.5403     6.5669    -0.9029 H       
  34 H34           -0.0718     7.5338    -0.6256 H       
  35 H35            0.7697     6.8995    -2.8702 H       
  36 H36           -0.6988     5.9326    -3.1475 H       
  37 H37           -2.0884     7.9707    -2.8957 H       
  38 H38           -0.6199     8.9377    -2.6184 H       
  39 H39           -1.3634     9.1051    -4.9781 H       
  40 H40            0.2216     8.3033    -4.8630 H       
  41 H41           -1.2468     7.3364    -5.1403 H       
  42 H42           -2.2322     3.3317    -0.9230 H       
  43 H43           -2.1816     4.9292    -1.4407 H       
@<TRIPOS>BOND
   1    1    2 1
   2    1    8 2
   3    1    9 am
   4    2    3 ar
   5    2    7 ar
   6    3    4 ar
   7    3   24 1
   8    4    5 ar
   9    4   25 1
  10    5    6 ar
  11    5   26 1
  12    6    7 ar
  13    6   27 1
  14    7   28 1
  15    9   10 1
  16    9   14 1
  17   10   29 1
  18   10   30 1
  19   10   31 1
  20   11   12 am
  21   11   16 am
  22   11   18 2
  23   12   13 am
  24   12   32 1
  25   13   14 1
  26   13   17 2
  27   14   15 2
  28   15   16 1
  29   15   23 1
  30   16   19 1
  31   19   20 1
  32   19   33 1
  33   19   34 1
  34   20   21 1
  35   20   35 1
  36   20   36 1
  37   21   22 1
  38   21   37 1
  39   21   38 1
  40   22   39 1
  41   22   40 1
  42   22   41 1
  43   23   42 1
  44   23   43 1

#	End of record

