#	Name: ASD14730003
#	Creating user name:	WinNT
#	Creation time:	15. 06. 2019 21:31

#	Modifying user name:	WinNT
#	Modification time:	15. 06. 2019 21:31

#	Program:	/corina/corina34_cracker 3.40 0067  02.08.2006

@<TRIPOS>MOLECULE
ASD14730003
  67   67    0    0    0
SMALL
NO_CHARGES


@<TRIPOS>ATOM
   1 O1             6.6339     4.9966     3.3039 O.3     
   2 O2             1.0702    -3.4704    -5.1768 O.2     
   3 O3             6.5500     6.0869     1.3709 O.2     
   4 O4            -1.0660    -5.6831    -0.9269 O.2     
   5 C5             4.9640     2.6315    -1.8143 C.3     
   6 C6             2.4325     0.6756    -3.9334 C.3     
   7 C7             0.9635     1.0876    -3.8183 C.3     
   8 C8             4.1966     1.5104    -2.4662 C.2     
   9 C9             4.2689     3.0361    -0.5127 C.3     
  10 C10            3.3069     1.7763    -3.3903 C.2     
  11 C11            0.0891    -0.0131    -4.3614 C.2     
  12 C12            5.0363     4.1572     0.1392 C.2     
  13 C13            5.0402     2.8335     2.2118 C.3     
  14 C14            5.4276     4.0469     1.4064 C.2     
  15 C15           -0.4218    -0.9048    -3.5491 C.2     
  16 C16           -1.1766    -2.0851    -4.1043 C.3     
  17 C17            4.4526     0.0833    -2.0551 C.3     
  18 C18            6.1580     1.7918     2.1343 C.3     
  19 C19           -0.5971    -3.3595    -3.5464 C.2     
  20 C20           -0.1975    -0.0880    -5.8390 C.3     
  21 C21            0.5743    -3.9838    -4.1943 C.2     
  22 C22            5.7706     0.5784     2.9397 C.2     
  23 C23           -1.1411    -3.9233    -2.4592 C.2     
  24 C24            1.1423    -5.2329    -3.6475 C.2     
  25 C25            6.2375     5.1083     2.0204 C.2     
  26 C26            6.5816     0.1157     3.8585 C.2     
  27 C27           -0.5731    -5.1724    -1.9123 C.2     
  28 C28            0.5948    -5.7997    -2.5636 C.2     
  29 C29            2.3371    -5.8702    -4.3089 C.3     
  30 C30            7.9584     0.7080     4.0158 C.3     
  31 C31            6.1378    -1.0087     4.7584 C.3     
  32 H32            5.9787     2.2984    -1.5959 H       
  33 H33            4.9998     3.4874    -2.4883 H       
  34 H34            2.5998    -0.2370    -3.3613 H       
  35 H35            2.6793     0.4986    -4.9802 H       
  36 H36            0.7167     1.2646    -2.7715 H       
  37 H37            0.7962     2.0002    -4.3904 H       
  38 H38            3.2543     3.3692    -0.7311 H       
  39 H39            4.2332     2.1802     0.1613 H       
  40 H40            3.2001     2.7843    -3.7629 H       
  41 H41            5.2688     5.0502    -0.4219 H       
  42 H42            4.8838     3.1221     3.2512 H       
  43 H43            4.1199     2.4095     1.8100 H       
  44 H44           -0.3022    -0.7941    -2.4814 H       
  45 H45           -2.2269    -2.0098    -3.8227 H       
  46 H46           -1.0913    -2.0924    -5.1909 H       
  47 H47            3.7220    -0.2149    -1.3032 H       
  48 H48            4.3643    -0.5669    -2.9255 H       
  49 H49            5.4567    -0.0005    -1.6394 H       
  50 H50            6.3144     1.5032     1.0949 H       
  51 H51            7.0783     2.2158     2.5361 H       
  52 H52            0.5183    -0.7587    -6.3144 H       
  53 H53           -1.2080    -0.4659    -5.9944 H       
  54 H54           -0.1100     0.9063    -6.2770 H       
  55 H55            4.8242     0.0902     2.7593 H       
  56 H56           -1.9947    -3.4642    -1.9826 H       
  57 H57            1.0101    -6.7130    -2.1638 H       
  58 H58            3.2513    -5.4753    -3.8657 H       
  59 H59            2.2998    -6.9499    -4.1637 H       
  60 H60            2.3243    -5.6464    -5.3756 H       
  61 H61            6.4017    -1.9636     4.3037 H       
  62 H62            6.6330    -0.9174     5.7251 H       
  63 H63            7.9135     1.5551     4.7002 H       
  64 H64            8.6352    -0.0469     4.4159 H       
  65 H65            8.3223     1.0443     3.0449 H       
  66 H66            5.0579    -0.9584     4.8971 H       
  67 H67            7.1650     5.7200     3.6639 H       
@<TRIPOS>BOND
   1    1   25 1
   2    1   67 1
   3    2   21 2
   4    3   25 2
   5    4   27 2
   6    5    8 1
   7    5    9 1
   8    5   32 1
   9    5   33 1
  10    6    7 1
  11    6   10 1
  12    6   34 1
  13    6   35 1
  14    7   11 1
  15    7   36 1
  16    7   37 1
  17    8   10 2
  18    8   17 1
  19    9   12 1
  20    9   38 1
  21    9   39 1
  22   10   40 1
  23   11   15 2
  24   11   20 1
  25   12   14 2
  26   12   41 1
  27   13   14 1
  28   13   18 1
  29   13   42 1
  30   13   43 1
  31   14   25 1
  32   15   16 1
  33   15   44 1
  34   16   19 1
  35   16   45 1
  36   16   46 1
  37   17   47 1
  38   17   48 1
  39   17   49 1
  40   18   22 1
  41   18   50 1
  42   18   51 1
  43   19   21 1
  44   19   23 2
  45   20   52 1
  46   20   53 1
  47   20   54 1
  48   21   24 1
  49   22   26 2
  50   22   55 1
  51   23   27 1
  52   23   56 1
  53   24   28 2
  54   24   29 1
  55   26   30 1
  56   26   31 1
  57   27   28 1
  58   28   57 1
  59   29   58 1
  60   29   59 1
  61   29   60 1
  62   30   63 1
  63   30   64 1
  64   30   65 1
  65   31   61 1
  66   31   62 1
  67   31   66 1

#	End of record

