#	Name: ASD13110060
#	Creating user name:	WinNT
#	Creation time:	15. 06. 2019 21:30

#	Modifying user name:	WinNT
#	Modification time:	15. 06. 2019 21:30

#	Program:	/corina/corina34_cracker 3.40 0067  02.08.2006

@<TRIPOS>MOLECULE
ASD13110060
  49   50    0    0    0
SMALL
NO_CHARGES


@<TRIPOS>ATOM
   1 C1             0.3492     0.6983     0.6827 C.ar    
   2 C2             0.2923    -0.6859     0.5013 C.ar    
   3 C3             1.4701    -1.3956     0.2129 C.ar    
   4 C4             2.6791    -0.7221     0.1101 C.ar    
   5 C5             2.7225     0.6435     0.2912 C.ar    
   6 C6             1.5599     1.3534     0.5771 C.ar    
   7 N7             1.0958    -2.7209     0.0914 N.pl3   
   8 C8            -0.2466    -2.7825     0.3004 C.2     
   9 N9            -0.7172    -1.5933     0.5401 N.2     
  10 C10           -1.0694    -4.0444     0.2602 C.3     
  11 N11           -1.2396    -4.5600     1.6209 N.am    
  12 C12           -0.2928    -5.5414     2.1561 C.3     
  13 C13           -2.2673    -4.1313     2.3803 C.2     
  14 O14           -3.1055    -3.3904     1.9060 O.2     
  15 O15           -2.3651    -4.5241     3.6643 O.3     
  16 C16           -3.5531    -4.1127     4.3908 C.3     
  17 C17           -4.7982    -4.6255     3.6644 C.3     
  18 C18           -3.5125    -4.6938     5.8056 C.3     
  19 C19           -3.6004    -2.5854     4.4680 C.3     
  20 O20            1.6169     2.7005     0.7529 O.3     
  21 C21            1.9809    -3.8494    -0.2075 C.3     
  22 O22            2.6099    -4.2934     0.9963 O.3     
  23 C23            3.5868    -5.3173     0.7982 C.3     
  24 C24            2.9002     3.3171     0.6303 C.3     
  25 H25           -0.5509     1.2541     0.9003 H       
  26 H26            3.5848    -1.2674    -0.1112 H       
  27 H27            3.6644     1.1658     0.2111 H       
  28 H28           -2.0467    -3.8274    -0.1710 H       
  29 H29           -0.5606    -4.7906    -0.3501 H       
  30 H30            0.5278    -5.0221     2.6511 H       
  31 H31           -0.8024    -6.1836     2.8745 H       
  32 H32            0.1006    -6.1488     1.3410 H       
  33 H33           -4.7611    -5.7132     3.6034 H       
  34 H34           -5.6897    -4.3226     4.2135 H       
  35 H35           -4.8308    -4.2061     2.6589 H       
  36 H36           -2.6254    -4.3285     6.3231 H       
  37 H37           -4.4043    -4.3850     6.3510 H       
  38 H38           -3.4787    -5.7819     5.7506 H       
  39 H39           -3.6294    -2.1714     3.4601 H       
  40 H40           -4.4922    -2.2766     5.0133 H       
  41 H41           -2.7134    -2.2201     4.9855 H       
  42 H42            1.3978    -4.6652    -0.6350 H       
  43 H43            2.7427    -3.5347    -0.9208 H       
  44 H44            4.0765    -5.5405     1.7461 H       
  45 H45            3.0995    -6.2162     0.4205 H       
  46 H46            4.3295    -4.9762     0.0770 H       
  47 H47            3.5781     2.8959     1.3726 H       
  48 H48            3.2967     3.1351    -0.3686 H       
  49 H49            2.8046     4.3906     0.7932 H       
@<TRIPOS>BOND
   1    1    2 ar
   2    1    6 ar
   3    1   25 1
   4    2    9 1
   5    2    3 ar
   6    3    4 ar
   7    3    7 1
   8    4    5 ar
   9    4   26 1
  10    5    6 ar
  11    5   27 1
  12    6   20 1
  13    7    8 1
  14    7   21 1
  15    8   10 1
  16    8    9 2
  17   10   11 1
  18   10   28 1
  19   10   29 1
  20   11   12 1
  21   11   13 am
  22   12   30 1
  23   12   31 1
  24   12   32 1
  25   13   14 2
  26   13   15 1
  27   15   16 1
  28   16   17 1
  29   16   18 1
  30   16   19 1
  31   17   33 1
  32   17   34 1
  33   17   35 1
  34   18   36 1
  35   18   37 1
  36   18   38 1
  37   19   39 1
  38   19   40 1
  39   19   41 1
  40   20   24 1
  41   21   22 1
  42   21   42 1
  43   21   43 1
  44   22   23 1
  45   23   44 1
  46   23   45 1
  47   23   46 1
  48   24   47 1
  49   24   48 1
  50   24   49 1

#	End of record

