#	Name: ASD10160312
#	Creating user name:	WinNT
#	Creation time:	15. 06. 2019 21:25

#	Modifying user name:	WinNT
#	Modification time:	15. 06. 2019 21:25

#	Program:	/corina/corina34_cracker 3.40 0067  02.08.2006

@<TRIPOS>MOLECULE
ASD10160312
  32   33    0    0    0
SMALL
NO_CHARGES


@<TRIPOS>ATOM
   1 C1            -0.3984     1.1097    -1.9452 C.2     
   2 C2            -0.2785    -0.2699    -1.4389 C.ar    
   3 C3             0.9053    -0.9902    -1.6375 C.ar    
   4 C4             1.0129    -2.2813    -1.1611 C.ar    
   5 C5            -0.0507    -2.8651    -0.4861 C.ar    
   6 C6            -1.2302    -2.1520    -0.2868 C.ar    
   7 C7            -1.3446    -0.8606    -0.7537 C.ar    
   8 O8             0.5318     1.6234    -2.5364 O.2     
   9 N9            -1.5411     1.7994    -1.7577 N.am    
  10 S10           -1.6758     3.3488    -2.3264 S.o2    
  11 O11           -2.9785     3.7555    -1.9302 O.2     
  12 O12           -0.5195     4.0070    -1.8276 O.2     
  13 C13           -1.5831     3.1786    -4.1300 C.3     
  14 F14           -2.2621    -2.7256     0.3700 F       
  15 F15            1.9404    -0.4229    -2.2947 F       
  16 O16            0.0593    -4.1349    -0.0193 O.3     
  17 C17            1.5486    -5.5233    -1.2582 C.ar    
  18 C18            1.2622    -4.7568    -0.1387 C.ar    
  19 C19            2.2225    -4.6323     0.8606 C.ar    
  20 C20            3.4343    -5.2840     0.6949 C.ar    
  21 C21            3.6478    -6.0326    -0.4523 C.ar    
  22 N22            2.7139    -6.1289    -1.3804 N.ar    
  23 F23            4.8261    -6.6710    -0.6228 F       
  24 Cl24           4.6698    -5.1639     1.9085 Cl      
  25 H25            1.9255    -2.8383    -1.3140 H       
  26 H26           -2.2581    -0.3070    -0.5944 H       
  27 H27           -2.2845     1.3882    -1.2896 H       
  28 H28           -2.3992     2.5452    -4.4776 H       
  29 H29           -1.6645     4.1623    -4.5924 H       
  30 H30           -0.6300     2.7261    -4.4038 H       
  31 H31            0.8076    -5.6292    -2.0367 H       
  32 H32            2.0283    -4.0418     1.7438 H       
@<TRIPOS>BOND
   1    1    2 1
   2    1    8 2
   3    1    9 am
   4    2    3 ar
   5    2    7 ar
   6    3    4 ar
   7    3   15 1
   8    4    5 ar
   9    4   25 1
  10    5    6 ar
  11    5   16 1
  12    6    7 ar
  13    6   14 1
  14    7   26 1
  15    9   10 am
  16    9   27 1
  17   10   11 2
  18   10   12 2
  19   10   13 1
  20   13   28 1
  21   13   29 1
  22   13   30 1
  23   16   18 1
  24   17   18 ar
  25   17   22 ar
  26   17   31 1
  27   18   19 ar
  28   19   20 ar
  29   19   32 1
  30   20   21 ar
  31   20   24 1
  32   21   22 ar
  33   21   23 1

#	End of record

