#	Name: ASD11710030
#	Creating user name:	WinNT
#	Creation time:	15. 06. 2019 21:29

#	Modifying user name:	WinNT
#	Modification time:	15. 06. 2019 21:29

#	Program:	/corina/corina34_cracker 3.40 0067  02.08.2006

@<TRIPOS>MOLECULE
ASD11710030
  55   57    0    0    0
SMALL
NO_CHARGES


@<TRIPOS>ATOM
   1 C1             0.0168     0.0796     0.3656 C.3     
   2 N2            -0.0955    -1.3779     0.2690 N.am    
   3 C3             0.0598    -2.1401     1.3696 C.2     
   4 C4            -0.1927    -3.5953     1.3026 C.ar    
   5 O5             0.4075    -1.6312     2.4173 O.2     
   6 C6            -0.7448    -4.2620     2.3975 C.ar    
   7 C7             0.1145    -4.3074     0.1421 C.ar    
   8 C8            -0.1240    -5.6650     0.0860 C.ar    
   9 C9            -0.6670    -6.3207     1.1767 C.ar    
  10 C10           -0.9784    -5.6199     2.3283 C.ar    
  11 S11           -0.9696    -8.0547     1.0962 S.o2    
  12 N12            0.3420    -8.8127     1.7650 N.am    
  13 C13            1.6032    -8.6707     1.1818 C.ar    
  14 C14            2.7089    -8.3891     1.9741 C.ar    
  15 C15            1.7556    -8.8163    -0.1913 C.ar    
  16 C16            3.0040    -8.6751    -0.7647 C.ar    
  17 C17            4.1017    -8.3897     0.0264 C.ar    
  18 C18            3.9544    -8.2493     1.3942 C.ar    
  19 O19           -2.0663    -8.3112     1.9627 O.2     
  20 O20           -0.9717    -8.3981    -0.2827 O.2     
  21 C21            1.4494     0.4891     0.1394 C.ar    
  22 C22            1.8941     0.7711    -1.1387 C.ar    
  23 C23            3.2082     1.1466    -1.3462 C.ar    
  24 C24            4.0775     1.2406    -0.2754 C.ar    
  25 C25            3.6325     0.9595     1.0028 C.ar    
  26 C26            2.3173     0.5881     1.2108 C.ar    
  27 C27           -0.3768    -2.0068    -1.0239 C.3     
  28 C28            0.9237    -2.1430    -1.8184 C.3     
  29 C29            0.6580    -2.9364    -3.0993 C.3     
  30 N30            1.9066    -3.0671    -3.8622 N.3     
  31 H31           -0.6173     0.5438    -0.3898 H       
  32 H32           -0.3016     0.4037     1.3564 H       
  33 H33           -0.9883    -3.7162     3.2971 H       
  34 H34            0.5378    -3.7966    -0.7101 H       
  35 H35            0.1133    -6.2171    -0.8113 H       
  36 H36           -1.4020    -6.1377     3.1762 H       
  37 H37            0.2345    -9.3554     2.5618 H       
  38 H38            2.5945    -8.2794     3.0425 H       
  39 H39            0.8988    -9.0399    -0.8096 H       
  40 H40            3.1232    -8.7882    -1.8321 H       
  41 H41            5.0770    -8.2805    -0.4245 H       
  42 H42            4.8138    -8.0263     2.0092 H       
  43 H43            1.2150     0.6976    -1.9752 H       
  44 H44            3.5558     1.3662    -2.3448 H       
  45 H45            5.1043     1.5333    -0.4376 H       
  46 H46            4.3117     1.0326     1.8393 H       
  47 H47            1.9697     0.3685     2.2094 H       
  48 H48           -0.8083    -2.9944    -0.8613 H       
  49 H49           -1.0809    -1.3901    -1.5824 H       
  50 H50            1.2977    -1.1520    -2.0758 H       
  51 H51            1.6654    -2.6657    -1.2145 H       
  52 H52            0.2841    -3.9274    -2.8419 H       
  53 H53           -0.0837    -2.4137    -3.7033 H       
  54 H54            2.6304    -3.4910    -3.3012 H       
  55 H55            1.7574    -3.5878    -4.7135 H       
@<TRIPOS>BOND
   1    1    2 1
   2    1   21 1
   3    1   31 1
   4    1   32 1
   5    2    3 am
   6    2   27 1
   7    3    4 1
   8    3    5 2
   9    4    6 ar
  10    4    7 ar
  11    6   10 ar
  12    6   33 1
  13    7    8 ar
  14    7   34 1
  15    8    9 ar
  16    8   35 1
  17    9   10 ar
  18    9   11 1
  19   10   36 1
  20   11   12 am
  21   11   19 2
  22   11   20 2
  23   12   13 1
  24   12   37 1
  25   13   14 ar
  26   13   15 ar
  27   14   18 ar
  28   14   38 1
  29   15   16 ar
  30   15   39 1
  31   16   17 ar
  32   16   40 1
  33   17   18 ar
  34   17   41 1
  35   18   42 1
  36   21   22 ar
  37   21   26 ar
  38   22   23 ar
  39   22   43 1
  40   23   24 ar
  41   23   44 1
  42   24   25 ar
  43   24   45 1
  44   25   26 ar
  45   25   46 1
  46   26   47 1
  47   27   28 1
  48   27   48 1
  49   27   49 1
  50   28   29 1
  51   28   50 1
  52   28   51 1
  53   29   30 1
  54   29   52 1
  55   29   53 1
  56   30   54 1
  57   30   55 1

#	End of record

