#	Name: ASD10610047
#	Creating user name:	WinNT
#	Creation time:	15. 06. 2019 21:27

#	Modifying user name:	WinNT
#	Modification time:	15. 06. 2019 21:27

#	Program:	/corina/corina34_cracker 3.40 0067  02.08.2006

@<TRIPOS>MOLECULE
ASD10610047
  60   63    0    0    0
SMALL
NO_CHARGES


@<TRIPOS>ATOM
   1 O1            -0.2529     1.2018    -1.1914 O.3     
   2 N2            -0.6558     0.1622    -1.6583 N.2     
   3 C3            -1.0277     0.2991    -2.9021 C.2     
   4 C4            -0.8090     1.6597    -3.2387 C.2     
   5 C5            -0.3042     2.2028    -2.0907 C.2     
   6 C6             0.1031     3.6050    -1.8791 C.2     
   7 O7             0.0023     4.4105    -2.7842 O.2     
   8 N8             0.5868     3.9929    -0.6825 N.am    
   9 O9            -0.2716     6.2775     0.7573 O.3     
  10 C10            0.0235     6.4520    -0.6346 C.3     
  11 C11            1.0895     5.3572    -0.5030 C.3     
  12 C12            1.0842     5.8530     0.9483 C.3     
  13 C13            2.3661     5.6321    -1.2554 C.2     
  14 N14            3.2955     4.6643    -1.3818 N.am    
  15 O15            2.5570     6.7242    -1.7471 O.2     
  16 C16            4.5812     4.9620    -2.0177 C.3     
  17 C17            4.4436     4.8246    -3.5352 C.3     
  18 C18            5.6243     3.9957    -1.5183 C.ar    
  19 C19            6.8725     4.4701    -1.1485 C.ar    
  20 C20            7.8276     3.5765    -0.6895 C.ar    
  21 C21            7.4881     2.2227    -0.6186 C.ar    
  22 C22            6.2109     1.8263    -1.0095 C.ar    
  23 N23            5.3335     2.7122    -1.4348 N.ar    
  24 F24            7.1555     5.7883    -1.2346 F       
  25 C25            8.4722     1.2235    -0.1352 C.ar    
  26 C26            9.0823     1.3858     1.1119 C.ar    
  27 C27           10.0010     0.4475     1.5564 C.ar    
  28 C28           10.3120    -0.6452     0.7675 C.ar    
  29 C29            9.7095    -0.8081    -0.4683 C.ar    
  30 C30            8.7878     0.1167    -0.9197 C.ar    
  31 O31            8.7763     2.4600     1.8859 O.3     
  32 C32            7.6527     2.3312     2.7594 C.3     
  33 C33            7.4047     3.6628     3.4709 C.3     
  34 F34            8.5366     4.0117     4.2154 F       
  35 F35            7.1459     4.6576     2.5218 F       
  36 Cl36          10.1076    -2.1830    -1.4504 Cl      
  37 Cl37          10.7622     0.6444     3.1041 Cl      
  38 O38           -1.5253    -0.6690    -3.7129 O.3     
  39 C39           -1.6597    -1.9774    -3.1542 C.3     
  40 H40           -0.9969     2.1512    -4.1819 H       
  41 H41            0.6022     3.3688     0.0599 H       
  42 H42           -0.8023     6.1754    -1.2901 H       
  43 H43            0.4371     7.4327    -0.8697 H       
  44 H44            1.7748     6.6773     1.1266 H       
  45 H45            1.1878     5.0515     1.6797 H       
  46 H46            3.1130     3.7706    -1.0517 H       
  47 H47            4.8815     5.9804    -1.7708 H       
  48 H48            5.4003     5.0461    -4.0084 H       
  49 H49            4.1434     3.8063    -3.7821 H       
  50 H50            3.6892     5.5235    -3.8964 H       
  51 H51            8.8090     3.9176    -0.3947 H       
  52 H52            5.9360     0.7830    -0.9594 H       
  53 H53           11.0281    -1.3743     1.1168 H       
  54 H54            8.3160    -0.0159    -1.8821 H       
  55 H55            6.7708     2.0594     2.1794 H       
  56 H56            7.8543     1.5562     3.4989 H       
  57 H57            6.5476     3.5646     4.1372 H       
  58 H58           -2.3320    -1.9391    -2.2970 H       
  59 H59           -2.0675    -2.6533    -3.9059 H       
  60 H60           -0.6823    -2.3377    -2.8336 H       
@<TRIPOS>BOND
   1    1    2 1
   2    1    5 1
   3    2    3 2
   4    3    4 1
   5    3   38 1
   6    4    5 2
   7    4   40 1
   8    5    6 1
   9    6    7 2
  10    6    8 am
  11    8   11 1
  12    8   41 1
  13    9   10 1
  14    9   12 1
  15   10   11 1
  16   10   42 1
  17   10   43 1
  18   11   12 1
  19   11   13 1
  20   12   44 1
  21   12   45 1
  22   13   14 am
  23   13   15 2
  24   14   16 1
  25   14   46 1
  26   16   17 1
  27   16   18 1
  28   16   47 1
  29   17   48 1
  30   17   49 1
  31   17   50 1
  32   18   19 ar
  33   18   23 ar
  34   19   20 ar
  35   19   24 1
  36   20   21 ar
  37   20   51 1
  38   21   22 ar
  39   21   25 1
  40   22   23 ar
  41   22   52 1
  42   25   26 ar
  43   25   30 ar
  44   26   27 ar
  45   26   31 1
  46   27   28 ar
  47   27   37 1
  48   28   29 ar
  49   28   53 1
  50   29   30 ar
  51   29   36 1
  52   30   54 1
  53   31   32 1
  54   32   33 1
  55   32   55 1
  56   32   56 1
  57   33   34 1
  58   33   35 1
  59   33   57 1
  60   38   39 1
  61   39   58 1
  62   39   59 1
  63   39   60 1

#	End of record

