#	Name: ASD10220035
#	Creating user name:	WinNT
#	Creation time:	15. 06. 2019 21:26

#	Modifying user name:	WinNT
#	Modification time:	15. 06. 2019 21:26

#	Program:	/corina/corina34_cracker 3.40 0067  02.08.2006

@<TRIPOS>MOLECULE
ASD10220035
  36   38    0    0    0
SMALL
NO_CHARGES


@<TRIPOS>ATOM
   1 C1             0.0032     1.5137     0.4036 C.2     
   2 C2             0.0488     0.2221     0.9792 C.2     
   3 C3            -1.0788    -0.4290     1.3413 C.2     
   4 C4            -2.4057     0.1579     1.1611 C.2     
   5 C5            -2.5347     1.4205     0.6037 C.2     
   6 C6            -1.3331     2.1681     0.2006 C.2     
   7 O7            -3.6422    -0.2957     1.4416 O.3     
   8 C8            -4.5765     0.5944     1.1014 C.2     
   9 C9            -3.9735     1.7023     0.5675 C.2     
  10 O10           -1.4198     3.2744    -0.2893 O.2     
  11 O11            1.0267     2.0851     0.0841 O.2     
  12 C12           -4.6316     2.9203     0.0628 C.2     
  13 O13           -3.9615     3.8742    -0.2848 O.2     
  14 C14           -6.1034     2.9829    -0.0210 C.ar    
  15 C15           -6.7608     4.2112     0.1015 C.ar    
  16 C16           -8.1381     4.2643     0.0219 C.ar    
  17 C17           -8.8707     3.0946    -0.1803 C.ar    
  18 C18           -8.2181     1.8752    -0.3014 C.ar    
  19 C19           -6.8434     1.8156    -0.2287 C.ar    
  20 Br20           1.7247    -0.6120     1.2471 Br      
  21 Br21          -0.9360    -2.1533     2.1045 Br      
  22 O22          -10.2252     3.1487    -0.2584 O.3     
  23 C23          -10.9129     1.9134    -0.4665 C.3     
  24 O24           -8.7806     5.4570     0.1410 O.3     
  25 C25           -7.9677     6.6141     0.3470 C.3     
  26 C26           -8.8266     7.8048     0.4522 C.1     
  27 N27           -9.4895     8.7238     0.5334 N.1     
  28 H28           -5.6409     0.4621     1.2276 H       
  29 H29           -6.1924     5.1160     0.2583 H       
  30 H30           -8.7890     0.9718    -0.4575 H       
  31 H31           -6.3383     0.8657    -0.3237 H       
  32 H32          -11.9863     2.0979    -0.5094 H       
  33 H33          -10.5830     1.4675    -1.4048 H       
  34 H34          -10.6939     1.2326     0.3561 H       
  35 H35           -7.3950     6.4967     1.2670 H       
  36 H36           -7.2842     6.7323    -0.4938 H       
@<TRIPOS>BOND
   1    1    2 1
   2    1   11 2
   3    1    6 1
   4    2    3 2
   5    2   20 1
   6    3    4 1
   7    3   21 1
   8    4    5 2
   9    4    7 1
  10    5    6 1
  11    5    9 1
  12    6   10 2
  13    7    8 1
  14    8    9 2
  15    8   28 1
  16    9   12 1
  17   12   13 2
  18   12   14 1
  19   14   15 ar
  20   14   19 ar
  21   15   16 ar
  22   15   29 1
  23   16   17 ar
  24   16   24 1
  25   17   18 ar
  26   17   22 1
  27   18   19 ar
  28   18   30 1
  29   19   31 1
  30   22   23 1
  31   23   32 1
  32   23   33 1
  33   23   34 1
  34   24   25 1
  35   25   26 1
  36   25   35 1
  37   25   36 1
  38   26   27 3

#	End of record

