#	Name: ASD11000302
#	Creating user name:	WinNT
#	Creation time:	15. 06. 2019 21:29

#	Modifying user name:	WinNT
#	Modification time:	15. 06. 2019 21:29

#	Program:	/corina/corina34_cracker 3.40 0067  02.08.2006

@<TRIPOS>MOLECULE
ASD11000302
  27   29    0    0    0
SMALL
NO_CHARGES


@<TRIPOS>ATOM
   1 N1             0.4429     0.7197     0.3896 N.am    
   2 C2             0.6418    -0.5621     0.7430 C.2     
   3 C3             1.9320    -1.0621     1.0207 C.2     
   4 C4             3.0128    -0.2477     0.9358 C.2     
   5 C5             2.8074     1.1502     0.5517 C.ar    
   6 C6             3.8849     2.0361     0.4476 C.ar    
   7 C7             3.6557     3.3475     0.0825 C.ar    
   8 C8             2.3605     3.7883    -0.1805 C.ar    
   9 C9             1.2918     2.9256    -0.0808 C.ar    
  10 C10            1.5007     1.5997     0.2847 C.ar    
  11 O11           -0.3162    -1.3111     0.8260 O.2     
  12 O12            4.6989     4.2133    -0.0204 O.3     
  13 C13            5.4968     4.1223    -1.1143 C.ar    
  14 C14            6.6392     4.9133    -1.2142 C.ar    
  15 C15            7.4215     4.7832    -2.3508 C.ar    
  16 C16            7.0184     3.8728    -3.3194 C.ar    
  17 N17            5.9201     3.1643    -3.1409 N.ar    
  18 N18            5.1955     3.2780    -2.0876 N.ar    
  19 Cl19           7.9589     3.6680    -4.7641 Cl      
  20 H20           -0.4569     1.0294     0.2017 H       
  21 H21            2.0589    -2.0970     1.3021 H       
  22 H22            4.0036    -0.6219     1.1473 H       
  23 H23            4.8896     1.6964     0.6518 H       
  24 H24            2.1930     4.8166    -0.4649 H       
  25 H25            0.2919     3.2783    -0.2863 H       
  26 H26            6.9067     5.6065    -0.4304 H       
  27 H27            8.3175     5.3722    -2.4797 H       
@<TRIPOS>BOND
   1    1    2 am
   2    1   10 1
   3    1   20 1
   4    2    3 1
   5    2   11 2
   6    3    4 2
   7    3   21 1
   8    4    5 1
   9    4   22 1
  10    5    6 ar
  11    5   10 ar
  12    6    7 ar
  13    6   23 1
  14    7    8 ar
  15    7   12 1
  16    8    9 ar
  17    8   24 1
  18    9   10 ar
  19    9   25 1
  20   12   13 1
  21   13   14 ar
  22   13   18 ar
  23   14   15 ar
  24   14   26 1
  25   15   16 ar
  26   15   27 1
  27   16   17 ar
  28   16   19 1
  29   17   18 ar

#	End of record

