#	Name: ASD13650002
#	Creating user name:	WinNT
#	Creation time:	15. 06. 2019 21:30

#	Modifying user name:	WinNT
#	Modification time:	15. 06. 2019 21:30

#	Program:	/corina/corina34_cracker 3.40 0067  02.08.2006

@<TRIPOS>MOLECULE
ASD13650002
  63   67    0    0    0
SMALL
NO_CHARGES


@<TRIPOS>ATOM
   1 C1            -0.0169     1.3964     0.0335 C.ar    
   2 C2             0.0021    -0.0039     0.0501 C.ar    
   3 C3             1.1956    -0.6618     0.0576 C.ar    
   4 C4             2.3983     0.0410     0.0495 C.ar    
   5 C5             2.4161     1.4018     0.0338 C.ar    
   6 C6             1.2040     2.1155     0.0246 C.ar    
   7 N7             1.1927     3.4511     0.0087 N.ar    
   8 C8             0.0742     4.1323     0.0010 C.ar    
   9 C9            -1.1697     3.5049     0.0088 C.ar    
  10 C10           -1.2379     2.1181     0.0194 C.ar    
  11 C11           -2.5401     1.4169     0.0212 C.2     
  12 N12           -3.6842     2.1205     0.1322 N.am    
  13 O13           -2.5785     0.2060    -0.0773 O.2     
  14 C14           -4.9741     1.4260     0.1340 C.3     
  15 C15           -7.7390     1.1847     1.0723 C.3     
  16 C16           -6.6451     0.2302     1.5553 C.3     
  17 C17           -5.2980     0.9555     1.5534 C.3     
  18 C18           -6.0680     2.3805    -0.3490 C.3     
  19 C19           -7.4151     1.6551    -0.3471 C.3     
  20 C20           -9.0861     0.4593     1.0743 C.3     
  21 C21          -10.1974     1.4464     0.7116 C.3     
  22 N22          -11.4908     0.7500     0.7134 N.3     
  23 C23          -13.7596     0.7213    -0.1711 C.3     
  24 C24          -14.1154    -0.1140     1.0323 C.ar    
  25 C25          -11.8574     0.3261     2.0683 C.3     
  26 C26          -12.5481     1.5996     0.1424 C.3     
  27 C27          -15.7360    -1.4862     2.1698 C.ar    
  28 C28          -14.8324    -1.6735     3.2181 C.ar    
  29 C29          -13.5904    -1.0815     3.1624 C.ar    
  30 C30          -13.2277    -0.3007     2.0724 C.ar    
  31 C31          -15.3674    -0.7023     1.0774 C.ar    
  32 C32          -17.0312    -2.0953     2.2164 C.1     
  33 N33          -18.0586    -2.5784     2.2533 N.1     
  34 H34           -0.9241    -0.5594     0.0573 H       
  35 H35            1.2091    -1.7416     0.0704 H       
  36 H36            3.3315    -0.5026     0.0561 H       
  37 H37            3.3572     1.9316     0.0284 H       
  38 H38            0.1173     5.2114    -0.0116 H       
  39 H39           -2.0753     4.0934     0.0021 H       
  40 H40           -3.6536     3.0869     0.2108 H       
  41 H41           -4.9238     0.5644    -0.5318 H       
  42 H42           -7.7893     2.0462     1.7381 H       
  43 H43           -6.8759    -0.1050     2.5665 H       
  44 H44           -6.5948    -0.6314     0.8895 H       
  45 H45           -4.5187     0.2755     1.8975 H       
  46 H46           -5.3483     1.8171     2.2191 H       
  47 H47           -6.1183     3.2421     0.3168 H       
  48 H48           -5.8373     2.7157    -1.3602 H       
  49 H49           -7.3648     0.7935    -1.0128 H       
  50 H50           -8.1944     2.3351    -0.6911 H       
  51 H51           -9.0648    -0.3486     0.3428 H       
  52 H52           -9.2755     0.0472     2.0654 H       
  53 H53          -10.2187     2.2543     1.4430 H       
  54 H54          -10.0081     1.8585    -0.2796 H       
  55 H55          -13.5245     0.0660    -1.0097 H       
  56 H56          -14.6066     1.3546    -0.4351 H       
  57 H57          -11.1285    -0.4003     2.4276 H       
  58 H58          -11.8564     1.1930     2.7291 H       
  59 H59          -12.8293     2.3680     0.8625 H       
  60 H60          -12.1875     2.0668    -0.7740 H       
  61 H61          -15.1067    -2.2796     4.0689 H       
  62 H62          -12.8922    -1.2253     3.9737 H       
  63 H63          -16.0615    -0.5532     0.2635 H       
@<TRIPOS>BOND
   1    1    2 ar
   2    1    6 ar
   3    1   10 ar
   4    2    3 ar
   5    2   34 1
   6    3    4 ar
   7    3   35 1
   8    4    5 ar
   9    4   36 1
  10    5    6 ar
  11    5   37 1
  12    6    7 ar
  13    7    8 ar
  14    8    9 ar
  15    8   38 1
  16    9   10 ar
  17    9   39 1
  18   10   11 1
  19   11   12 am
  20   11   13 2
  21   12   14 1
  22   12   40 1
  23   14   18 1
  24   14   17 1
  25   14   41 1
  26   15   16 1
  27   15   19 1
  28   15   20 1
  29   15   42 1
  30   16   17 1
  31   16   43 1
  32   16   44 1
  33   17   45 1
  34   17   46 1
  35   18   19 1
  36   18   47 1
  37   18   48 1
  38   19   49 1
  39   19   50 1
  40   20   21 1
  41   20   51 1
  42   20   52 1
  43   21   22 1
  44   21   53 1
  45   21   54 1
  46   22   26 1
  47   22   25 1
  48   23   24 1
  49   23   26 1
  50   23   55 1
  51   23   56 1
  52   24   31 ar
  53   24   30 ar
  54   25   30 1
  55   25   57 1
  56   25   58 1
  57   26   59 1
  58   26   60 1
  59   27   28 ar
  60   27   31 ar
  61   27   32 1
  62   28   29 ar
  63   28   61 1
  64   29   30 ar
  65   29   62 1
  66   31   63 1
  67   32   33 3

#	End of record

