#	Name: ASD10160319
#	Creating user name:	WinNT
#	Creation time:	15. 06. 2019 21:25

#	Modifying user name:	WinNT
#	Modification time:	15. 06. 2019 21:25

#	Program:	/corina/corina34_cracker 3.40 0067  02.08.2006

@<TRIPOS>MOLECULE
ASD10160319
  38   39    0    0    0
SMALL
NO_CHARGES


@<TRIPOS>ATOM
   1 C1            -2.2276    -2.6062     4.8622 C.2     
   2 C2            -1.6268    -3.0079     3.5787 C.ar    
   3 C3            -2.3783    -2.9410     2.4007 C.ar    
   4 C4            -1.8122    -3.3178     1.2025 C.ar    
   5 C5            -0.4937    -3.7649     1.1624 C.ar    
   6 C6             0.2566    -3.8338     2.3287 C.ar    
   7 C7            -0.2996    -3.4526     3.5330 C.ar    
   8 O8            -1.5730    -2.6650     5.8844 O.2     
   9 O9            -3.5015    -2.1680     4.9021 O.3     
  10 O10            0.0593    -4.1350    -0.0206 O.3     
  11 C11            2.4218    -3.8529    -0.1443 C.ar    
  12 C12            1.3101    -4.6677    -0.0016 C.ar    
  13 C13            1.4897    -6.0386     0.1620 C.ar    
  14 C14            2.7814    -6.5371     0.1757 C.ar    
  15 C15            3.8478    -5.6586     0.0267 C.ar    
  16 N16            3.6389    -4.3622    -0.1265 N.ar    
  17 O17            5.1184    -6.1369     0.0391 O.3     
  18 C18            6.1718    -5.1843    -0.1185 C.3     
  19 Cl19           3.0652    -8.2379     0.3769 Cl      
  20 F20            0.4330    -3.5141     4.6664 F       
  21 F21           -2.5375    -3.2538     0.0645 F       
  22 C22            7.5210    -5.9046    -0.0789 C.3     
  23 C23            7.6361    -6.8387    -1.2852 C.3     
  24 C24            8.6510    -4.8740    -0.1224 C.3     
  25 H25           -3.4009    -2.5948     2.4305 H       
  26 H26            1.2785    -4.1815     2.2927 H       
  27 H27           -3.8521    -1.9157     5.7673 H       
  28 H28            2.2903    -2.7891    -0.2761 H       
  29 H29            0.6416    -6.6975     0.2758 H       
  30 H30            6.0602    -4.6742    -1.0754 H       
  31 H31            6.1257    -4.4545     0.6898 H       
  32 H32            7.5953    -6.4867     0.8397 H       
  33 H33            6.8311    -7.5730    -1.2543 H       
  34 H34            7.5618    -6.2567    -2.2038 H       
  35 H35            8.5973    -7.3519    -1.2570 H       
  36 H36            8.5690    -4.2085     0.7370 H       
  37 H37            9.6122    -5.3872    -0.0941 H       
  38 H38            8.5767    -4.2919    -1.0409 H       
@<TRIPOS>BOND
   1    1    2 1
   2    1    8 2
   3    1    9 1
   4    2    3 ar
   5    2    7 ar
   6    3    4 ar
   7    3   25 1
   8    4    5 ar
   9    4   21 1
  10    5    6 ar
  11    5   10 1
  12    6    7 ar
  13    6   26 1
  14    7   20 1
  15    9   27 1
  16   10   12 1
  17   11   12 ar
  18   11   16 ar
  19   11   28 1
  20   12   13 ar
  21   13   14 ar
  22   13   29 1
  23   14   15 ar
  24   14   19 1
  25   15   16 ar
  26   15   17 1
  27   17   18 1
  28   18   22 1
  29   18   30 1
  30   18   31 1
  31   22   23 1
  32   22   24 1
  33   22   32 1
  34   23   33 1
  35   23   34 1
  36   23   35 1
  37   24   36 1
  38   24   37 1
  39   24   38 1

#	End of record

