#	Name: ASD10610070
#	Creating user name:	WinNT
#	Creation time:	15. 06. 2019 21:27

#	Modifying user name:	WinNT
#	Modification time:	15. 06. 2019 21:27

#	Program:	/corina/corina34_cracker 3.40 0067  02.08.2006

@<TRIPOS>MOLECULE
ASD10610070
  61   66    0    0    0
SMALL
NO_CHARGES


@<TRIPOS>ATOM
   1 C1             0.9701     2.9619    -1.4583 C.ar    
   2 N2             1.7795     2.9705    -2.4993 N.ar    
   3 C3             2.9202     2.3037    -2.4791 C.ar    
   4 C4             3.2621     1.5819    -1.3299 C.ar    
   5 C5             2.3726     1.6016    -0.2497 C.ar    
   6 N6             1.2531     2.2955    -0.3561 N.ar    
   7 C7             4.5270     0.8199    -1.2592 C.2     
   8 O8             5.2870     0.8143    -2.2079 O.2     
   9 N9             4.8374     0.1313    -0.1430 N.am    
  10 O10            7.3351     0.2365     1.1908 O.3     
  11 C11            7.3579     0.0543    -0.2308 C.3     
  12 C12            6.0348    -0.7121    -0.1119 C.3     
  13 C13            6.5879    -0.9826     1.2928 C.3     
  14 C14            5.9354    -1.9310    -0.9925 C.2     
  15 N15            4.7566    -2.5701    -1.1281 N.am    
  16 O16            6.9162    -2.3368    -1.5793 O.2     
  17 C17            4.6829    -3.8162    -1.8950 C.3     
  18 C18            3.4840    -4.6655    -1.4225 C.3     
  19 C19            2.3614    -4.2171    -2.3820 C.3     
  20 C20            3.0731    -3.7502    -3.6340 C.ar    
  21 C21            2.5896    -3.5442    -4.9129 C.ar    
  22 C22            3.4443    -3.1043    -5.9207 C.ar    
  23 C23            4.7889    -2.8735    -5.6331 C.ar    
  24 C24            5.2618    -3.0821    -4.3552 C.ar    
  25 C25            4.4082    -3.5196    -3.3542 C.ar    
  26 C26            2.9272    -2.8830    -7.2922 C.ar    
  27 C27            3.1950    -1.6780    -7.9615 C.ar    
  28 C28            2.7031    -1.4817    -9.2513 C.ar    
  29 C29            1.9561    -2.4716    -9.8634 C.ar    
  30 C30            1.6930    -3.6593    -9.2019 C.ar    
  31 C31            2.1788    -3.8707    -7.9251 C.ar    
  32 O32            5.1114     0.3530    -5.8580 O.3     
  33 N33            4.5143    -0.6746    -6.1002 N.2     
  34 C34            3.9956    -0.6206    -7.3004 C.2     
  35 N35            4.3277     0.5815    -7.8246 N.2     
  36 C36            5.0329     1.1853    -6.9010 C.2     
  37 C37            5.6414     2.5607    -6.9960 C.3     
  38 F38            2.9556    -0.3252    -9.9024 F       
  39 Cl39           0.7533    -4.8924    -9.9829 Cl      
  40 H40            0.0480     3.5221    -1.5083 H       
  41 H41            3.5778     2.3152    -3.3358 H       
  42 H42            2.5973     1.0580     0.6562 H       
  43 H43            4.2680     0.1943     0.6398 H       
  44 H44            7.2692     0.9868    -0.7881 H       
  45 H45            8.1869    -0.5643    -0.5747 H       
  46 H46            7.2158    -1.8719     1.3468 H       
  47 H47            5.8245    -0.9585     2.0705 H       
  48 H48            3.9570    -2.2050    -0.7180 H       
  49 H49            5.6099    -4.3801    -1.7916 H       
  50 H50            3.6923    -5.7289    -1.5401 H       
  51 H51            3.2269    -4.4319    -0.3894 H       
  52 H52            1.7029    -5.0549    -2.6114 H       
  53 H53            1.7929    -3.3976    -1.9422 H       
  54 H54            1.5473    -3.7245    -5.1307 H       
  55 H55            5.4580    -2.5327    -6.4093 H       
  56 H56            6.3034    -2.9037    -4.1324 H       
  57 H57            1.5757    -2.3174   -10.8624 H       
  58 H58            1.9735    -4.8012    -7.4168 H       
  59 H59            6.1696     2.7891    -6.0703 H       
  60 H60            6.3414     2.5915    -7.8309 H       
  61 H61            4.8531     3.2965    -7.1555 H       
@<TRIPOS>BOND
   1    1    2 ar
   2    1    6 ar
   3    1   40 1
   4    2    3 ar
   5    3    4 ar
   6    3   41 1
   7    4    5 ar
   8    4    7 1
   9    5    6 ar
  10    5   42 1
  11    7    8 2
  12    7    9 am
  13    9   12 1
  14    9   43 1
  15   10   11 1
  16   10   13 1
  17   11   12 1
  18   11   44 1
  19   11   45 1
  20   12   13 1
  21   12   14 1
  22   13   46 1
  23   13   47 1
  24   14   15 am
  25   14   16 2
  26   15   17 1
  27   15   48 1
  28   17   18 1
  29   17   25 1
  30   17   49 1
  31   18   19 1
  32   18   50 1
  33   18   51 1
  34   19   20 1
  35   19   52 1
  36   19   53 1
  37   20   21 ar
  38   20   25 ar
  39   21   22 ar
  40   21   54 1
  41   22   23 ar
  42   22   26 1
  43   23   24 ar
  44   23   55 1
  45   24   25 ar
  46   24   56 1
  47   26   27 ar
  48   26   31 ar
  49   27   28 ar
  50   27   34 1
  51   28   29 ar
  52   28   38 1
  53   29   30 ar
  54   29   57 1
  55   30   31 ar
  56   30   39 1
  57   31   58 1
  58   32   33 1
  59   32   36 1
  60   33   34 2
  61   34   35 1
  62   35   36 2
  63   36   37 1
  64   37   59 1
  65   37   60 1
  66   37   61 1

#	End of record

