#	Name: ASD11000064
#	Creating user name:	WinNT
#	Creation time:	15. 06. 2019 21:28

#	Modifying user name:	WinNT
#	Modification time:	15. 06. 2019 21:28

#	Program:	/corina/corina34_cracker 3.40 0067  02.08.2006

@<TRIPOS>MOLECULE
ASD11000064
  33   34    0    0    0
SMALL
NO_CHARGES


@<TRIPOS>ATOM
   1 C1            -0.0168     1.3858     0.0097 C.ar    
   2 C2             0.0021    -0.0041     0.0020 C.ar    
   3 C3            -1.1798    -0.7106     0.0100 C.ar    
   4 C4            -2.3994    -0.0283     0.0257 C.ar    
   5 C5            -2.4140     1.3692     0.0334 C.ar    
   6 C6            -1.2276     2.0682     0.0307 C.ar    
   7 C7            -3.6682    -0.7814     0.0338 C.2     
   8 O8            -3.6537    -1.9971     0.0267 O.2     
   9 N9            -4.8434    -0.1216     0.0490 N.am    
  10 C10           -6.0343    -0.8284     0.0566 C.2     
  11 C11           -7.2814    -0.2561     0.0720 C.2     
  12 C12           -8.3468    -1.2352     0.0760 C.2     
  13 C13           -7.9065    -2.4849     0.0639 C.2     
  14 S14           -6.1526    -2.5286     0.0407 S.3     
  15 C15           -7.5096     1.1901     0.0837 C.2     
  16 O16           -8.7685     1.6741     0.0987 O.3     
  17 O17           -6.5638     1.9550     0.0800 O.2     
  18 C18           -8.7925    -3.7039     0.0655 C.3     
  19 O19            1.1503     2.0784     0.0022 O.3     
  20 C20            1.0584     3.5044     0.0108 C.3     
  21 H21            0.9450    -0.5305    -0.0105 H       
  22 H22           -1.1643    -1.7904     0.0037 H       
  23 H23           -3.3544     1.9001     0.0456 H       
  24 H24           -1.2379     3.1481     0.0366 H       
  25 H25           -4.8550     0.8483     0.0547 H       
  26 H26           -9.3946    -0.9739     0.0875 H       
  27 H27           -8.8690     2.6359     0.1060 H       
  28 H28           -9.0165    -3.9916    -0.9617 H       
  29 H29           -8.2811    -4.5241     0.5692 H       
  30 H30           -9.7208    -3.4777     0.5901 H       
  31 H31            0.5138     3.8387    -0.8723 H       
  32 H32            0.5308     3.8292     0.9076 H       
  33 H33            2.0605     3.9331     0.0035 H       
@<TRIPOS>BOND
   1    1    2 ar
   2    1   19 1
   3    1    6 ar
   4    2    3 ar
   5    2   21 1
   6    3    4 ar
   7    3   22 1
   8    4    5 ar
   9    4    7 1
  10    5    6 ar
  11    5   23 1
  12    6   24 1
  13    7    8 2
  14    7    9 am
  15    9   10 1
  16    9   25 1
  17   10   11 2
  18   10   14 1
  19   11   12 1
  20   11   15 1
  21   12   13 2
  22   12   26 1
  23   13   14 1
  24   13   18 1
  25   15   16 1
  26   15   17 2
  27   16   27 1
  28   18   28 1
  29   18   29 1
  30   18   30 1
  31   19   20 1
  32   20   31 1
  33   20   32 1
  34   20   33 1

#	End of record

