#	Name: ASD11000280
#	Creating user name:	WinNT
#	Creation time:	15. 06. 2019 21:29

#	Modifying user name:	WinNT
#	Modification time:	15. 06. 2019 21:29

#	Program:	/corina/corina34_cracker 3.40 0067  02.08.2006

@<TRIPOS>MOLECULE
ASD11000280
  27   27    0    0    0
SMALL
NO_CHARGES


@<TRIPOS>ATOM
   1 C1            -0.0159     1.3221     0.0093 C.ar    
   2 N2             0.0021    -0.0041     0.0020 N.ar    
   3 C3             1.1493    -0.6672    -0.0125 C.ar    
   4 C4             2.3568     0.0618    -0.0201 C.ar    
   5 C5             2.2851     1.4603    -0.0119 C.ar    
   6 N6             1.1003     2.0415     0.0025 N.ar    
   7 C7             3.6557    -0.6280    -0.0357 C.2     
   8 O8             3.6987    -1.8427    -0.0422 O.2     
   9 O9             4.7984     0.0869    -0.0427 O.3     
  10 S10           -1.5686     2.1550     0.0211 S.3     
  11 C11           -1.0029     3.8744     0.0278 C.3     
  12 O12            1.1621    -2.0198    -0.0194 O.3     
  13 C13           -0.1049    -2.6807    -0.0104 C.3     
  14 C14            6.0433    -0.6603    -0.0581 C.3     
  15 C15            7.2229     0.3141    -0.0642 C.3     
  16 H16            3.1867     2.0550    -0.0169 H       
  17 H17           -0.4054     4.0637    -0.8640 H       
  18 H18           -1.8655     4.5406     0.0355 H       
  19 H19           -0.3970     4.0541     0.9159 H       
  20 H20            0.0482    -3.7599    -0.0174 H       
  21 H21           -0.6560    -2.3976     0.8864 H       
  22 H22           -0.6733    -2.3887    -0.8935 H       
  23 H23            6.0987    -1.2923     0.8282 H       
  24 H24            6.0821    -1.2833    -0.9517 H       
  25 H25            7.1675     0.9461    -0.9505 H       
  26 H26            7.1841     0.9372     0.8293 H       
  27 H27            8.1575    -0.2468    -0.0758 H       
@<TRIPOS>BOND
   1    1    2 ar
   2    1    6 ar
   3    1   10 1
   4    2    3 ar
   5    3    4 ar
   6    3   12 1
   7    4    5 ar
   8    4    7 1
   9    5    6 ar
  10    5   16 1
  11    7    8 2
  12    7    9 1
  13    9   14 1
  14   10   11 1
  15   11   17 1
  16   11   18 1
  17   11   19 1
  18   12   13 1
  19   13   20 1
  20   13   21 1
  21   13   22 1
  22   14   15 1
  23   14   23 1
  24   14   24 1
  25   15   25 1
  26   15   26 1
  27   15   27 1

#	End of record

