#	Name: ASD11030013
#	Creating user name:	WinNT
#	Creation time:	15. 06. 2019 21:29

#	Modifying user name:	WinNT
#	Modification time:	15. 06. 2019 21:29

#	Program:	/corina/corina34_cracker 3.40 0067  02.08.2006

@<TRIPOS>MOLECULE
ASD11030013
  37   40    0    0    0
SMALL
NO_CHARGES


@<TRIPOS>ATOM
   1 F1             0.1563     0.0289    -1.1541 F       
   2 C2             0.1231     1.3752    -1.0465 C.ar    
   3 C3             1.3058     2.0872    -0.9238 C.ar    
   4 C4             1.2779     3.4616    -0.8136 C.ar    
   5 C5             0.0552     4.1356    -0.8259 C.ar    
   6 C6            -1.1331     3.4132    -0.9498 C.ar    
   7 C7            -1.0930     2.0395    -1.0650 C.ar    
   8 C8             0.0189     5.6079    -0.7078 C.2     
   9 N9             1.0527     6.3933    -0.5873 N.2     
  10 N10            0.8410     7.6332    -0.4976 N.2     
  11 C11           -0.4048     8.0386    -0.5326 C.2     
  12 S12           -1.4306     6.6141    -0.7126 S.3     
  13 N13           -0.8297     9.3251    -0.4508 N.2     
  14 C14            0.0458    10.3012    -0.3239 C.2     
  15 N15            1.4046    10.1744    -0.2606 N.am    
  16 C16            2.1406    11.2657    -0.1326 C.2     
  17 O17            3.3554    11.2288    -0.0702 O.2     
  18 C18            1.3884    12.5243    -0.0716 C.2     
  19 C19            1.8819    13.7816     0.0567 C.2     
  20 C20            0.9805    14.9381    -0.0393 C.ar    
  21 C21           -0.1815    14.8620    -0.8151 C.ar    
  22 C22           -1.0220    15.9515    -0.9000 C.ar    
  23 C23           -0.7195    17.1192    -0.2209 C.ar    
  24 C24            0.4274    17.2041     0.5490 C.ar    
  25 C25            1.2766    16.1211     0.6500 C.ar    
  26 Cl26           2.7148    16.2293     1.6161 Cl      
  27 S27           -0.3108    12.0332    -0.2100 S.3     
  28 H28            2.2510     1.5648    -0.9140 H       
  29 H29            2.2001     4.0155    -0.7177 H       
  30 H30           -2.0817     3.9295    -0.9599 H       
  31 H31           -2.0116     1.4796    -1.1613 H       
  32 H32            1.8218     9.3000    -0.3084 H       
  33 H33            2.9373    13.9325     0.2293 H       
  34 H34           -0.4192    13.9522    -1.3464 H       
  35 H35           -1.9191    15.8939    -1.4985 H       
  36 H36           -1.3822    17.9689    -0.2925 H       
  37 H37            0.6561    18.1188     1.0757 H       
@<TRIPOS>BOND
   1    1    2 1
   2    2    3 ar
   3    2    7 ar
   4    3    4 ar
   5    3   28 1
   6    4    5 ar
   7    4   29 1
   8    5    6 ar
   9    5    8 1
  10    6    7 ar
  11    6   30 1
  12    7   31 1
  13    8    9 2
  14    8   12 1
  15    9   10 1
  16   10   11 2
  17   11   12 1
  18   11   13 1
  19   13   14 2
  20   14   15 1
  21   14   27 1
  22   15   16 am
  23   15   32 1
  24   16   17 2
  25   16   18 1
  26   18   19 2
  27   18   27 1
  28   19   20 1
  29   19   33 1
  30   20   21 ar
  31   20   25 ar
  32   21   22 ar
  33   21   34 1
  34   22   23 ar
  35   22   35 1
  36   23   24 ar
  37   23   36 1
  38   24   25 ar
  39   24   37 1
  40   25   26 1

#	End of record

