#	Name: ASD11000188
#	Creating user name:	WinNT
#	Creation time:	15. 06. 2019 21:28

#	Modifying user name:	WinNT
#	Modification time:	15. 06. 2019 21:28

#	Program:	/corina/corina34_cracker 3.40 0067  02.08.2006

@<TRIPOS>MOLECULE
ASD11000188
  46   49    0    0    0
SMALL
NO_CHARGES


@<TRIPOS>ATOM
   1 N1            -0.0172     1.3215    -0.0111 N.ar    
   2 C2             0.0016    -0.0034    -0.0059 C.ar    
   3 N3             1.1403    -0.6810    -0.0148 N.ar    
   4 C4             2.3025    -0.0498    -0.0298 C.ar    
   5 C5             2.3192     1.3362    -0.0361 C.ar    
   6 C6             1.1099     2.0136    -0.0259 C.ar    
   7 C7             3.6239     2.0904    -0.0526 C.3     
   8 O8             4.0226     2.3228    -1.4050 O.3     
   9 C9             5.1878     2.9966    -1.5979 C.ar    
  10 C10            5.6306     3.2610    -2.8871 C.ar    
  11 N11           -1.1974    -0.6965     0.0098 N.pl3   
  12 C12           -1.2008    -2.0922    -0.1034 C.ar    
  13 C13           -2.1494    -2.8419     0.5792 C.ar    
  14 C14           -0.2591    -2.7266    -0.9029 C.ar    
  15 C15           -0.2629    -4.1033    -1.0154 C.ar    
  16 C16           -1.2067    -4.8531    -0.3304 C.ar    
  17 C17           -2.1521    -4.2201     0.4663 C.ar    
  18 O18           -1.2097    -6.2089    -0.4424 O.3     
  19 C19            5.9297     3.4238    -0.5066 C.ar    
  20 C20            7.1138     4.1103    -0.6989 C.ar    
  21 C21            7.5581     4.3700    -1.9854 C.ar    
  22 C22            6.8116     3.9440    -3.0789 C.ar    
  23 N23            8.7534     5.0676    -2.2090 N.am    
  24 C24            9.0065     5.5795    -3.4307 C.2     
  25 O25            8.1130     5.4521    -4.4285 O.3     
  26 C26            7.3216     4.2360    -4.4677 C.3     
  27 O27           10.0533     6.1627    -3.6325 O.2     
  28 F28           -3.0715    -4.9510     1.1340 F       
  29 C29           -0.2121    -6.7927    -1.2825 C.3     
  30 F30           -0.3583    -6.3075    -2.5865 F       
  31 F31            1.0578    -6.4582    -0.8002 F       
  32 H32            3.2273    -0.6076    -0.0367 H       
  33 H33            1.0882     3.0933    -0.0308 H       
  34 H34            3.4982     3.0450     0.4583 H       
  35 H35            4.3890     1.5039     0.4561 H       
  36 H36            5.0511     2.9319    -3.7370 H       
  37 H37           -2.0347    -0.2151     0.0991 H       
  38 H38           -2.8845    -2.3491     1.1982 H       
  39 H39            0.4763    -2.1433    -1.4371 H       
  40 H40            0.4696    -4.5959    -1.6376 H       
  41 H41            5.5812     3.2200     0.4951 H       
  42 H42            7.6909     4.4435     0.1510 H       
  43 H43            9.3940     5.1816    -1.4896 H       
  44 H44            7.9419     3.4071    -4.8085 H       
  45 H45            6.4801     4.3693    -5.1476 H       
  46 H46           -0.3265    -7.8767    -1.2832 H       
@<TRIPOS>BOND
   1    1    2 ar
   2    1    6 ar
   3    2    3 ar
   4    2   11 1
   5    3    4 ar
   6    4    5 ar
   7    4   32 1
   8    5    6 ar
   9    5    7 1
  10    6   33 1
  11    7    8 1
  12    7   34 1
  13    7   35 1
  14    8    9 1
  15    9   19 ar
  16    9   10 ar
  17   10   22 ar
  18   10   36 1
  19   11   12 1
  20   11   37 1
  21   12   13 ar
  22   12   14 ar
  23   13   17 ar
  24   13   38 1
  25   14   15 ar
  26   14   39 1
  27   15   16 ar
  28   15   40 1
  29   16   17 ar
  30   16   18 1
  31   17   28 1
  32   18   29 1
  33   19   20 ar
  34   19   41 1
  35   20   21 ar
  36   20   42 1
  37   21   22 ar
  38   21   23 1
  39   22   26 1
  40   23   24 am
  41   23   43 1
  42   24   25 1
  43   24   27 2
  44   25   26 1
  45   26   44 1
  46   26   45 1
  47   29   30 1
  48   29   31 1
  49   29   46 1

#	End of record

