#	Name: ASD15280023
#	Creating user name:	WinNT
#	Creation time:	15. 06. 2019 21:31

#	Modifying user name:	WinNT
#	Modification time:	15. 06. 2019 21:31

#	Program:	/corina/corina34_cracker 3.40 0067  02.08.2006

@<TRIPOS>MOLECULE
ASD15280023
  49   53    0    0    0
SMALL
NO_CHARGES


@<TRIPOS>ATOM
   1 C1            -0.0678     1.5017     0.0154 C.3     
   2 C2            -0.0217    -0.0046     0.0044 C.ar    
   3 C3            -0.1235    -0.6930    -1.2028 C.ar    
   4 N4            -0.2373     0.0331    -2.3735 N.am    
   5 C5            -1.0208    -0.1145    -3.4096 C.2     
   6 O6            -0.8963     0.7240    -4.2805 O.2     
   7 C7            -2.0268    -1.1465    -3.6705 C.ar    
   8 C8            -3.2748    -0.8049    -4.2060 C.ar    
   9 C9            -4.1958    -1.8063    -4.4451 C.ar    
  10 N10           -3.9182    -3.0671    -4.1797 N.ar    
  11 C11           -2.7555    -3.4331    -3.6724 C.ar    
  12 C12           -1.7845    -2.4947    -3.4013 C.ar    
  13 S13           -0.2353    -2.9717    -2.7076 S.o2    
  14 O14           -0.3518    -4.3450    -2.3619 O.2     
  15 O15            0.7700    -2.4684    -3.5767 O.2     
  16 C16           -0.0875    -2.0815    -1.1900 C.ar    
  17 C17            0.0596    -2.7756    -0.0048 C.ar    
  18 C18            0.1653    -2.0974     1.1924 C.ar    
  19 C19            0.1282    -0.7020     1.1998 C.ar    
  20 C20            0.2424     0.0344     2.4769 C.2     
  21 O21            0.3223     1.2473     2.4739 O.2     
  22 N22            0.2578    -0.6391     3.6441 N.am    
  23 C23            0.3710     0.0906     4.9094 C.3     
  24 C24            0.3653    -0.8877     6.0557 C.2     
  25 C25            1.4396    -1.4641     6.6008 C.2     
  26 N26            1.1743    -2.2869     7.5965 N.2     
  27 C27           -0.0715    -2.4348     7.9204 C.2     
  28 S28           -1.0592    -1.4654     6.9165 S.3     
  29 N29           -0.5381    -3.2596     8.9427 N.pl3   
  30 C30            0.2252    -4.0298     9.7614 C.2     
  31 C31           -0.6075    -4.6725    10.6124 C.2     
  32 C32           -1.9178    -4.2867    10.3082 C.2     
  33 N33           -1.8773    -3.4378     9.3133 N.2     
  34 H34            0.9482     1.8962     0.0306 H       
  35 H35           -0.5818     1.8559    -0.8782 H       
  36 H36           -0.6032     1.8423     0.9016 H       
  37 H37            0.3717     0.7854    -2.4374 H       
  38 H38           -3.5136     0.2247    -4.4280 H       
  39 H39           -5.1612    -1.5514    -4.8568 H       
  40 H40           -2.5645    -4.4762    -3.4681 H       
  41 H41            0.0918    -3.8551    -0.0150 H       
  42 H42            0.2801    -2.6427     2.1175 H       
  43 H43            0.1941    -1.6070     3.6465 H       
  44 H44            1.3020     0.6573     4.9200 H       
  45 H45           -0.4717     0.7744     5.0111 H       
  46 H46            2.4443    -1.2719     6.2542 H       
  47 H47            1.3016    -4.1142     9.7369 H       
  48 H48           -0.3128    -5.3624    11.3894 H       
  49 H49           -2.8102    -4.6284    10.8116 H       
@<TRIPOS>BOND
   1    1    2 1
   2    1   34 1
   3    1   35 1
   4    1   36 1
   5    2   19 ar
   6    2    3 ar
   7    3   16 ar
   8    3    4 1
   9    4    5 am
  10    4   37 1
  11    5    6 2
  12    5    7 1
  13    7   12 ar
  14    7    8 ar
  15    8    9 ar
  16    8   38 1
  17    9   10 ar
  18    9   39 1
  19   10   11 ar
  20   11   12 ar
  21   11   40 1
  22   12   13 1
  23   13   14 2
  24   13   15 2
  25   13   16 1
  26   16   17 ar
  27   17   18 ar
  28   17   41 1
  29   18   19 ar
  30   18   42 1
  31   19   20 1
  32   20   21 2
  33   20   22 am
  34   22   23 1
  35   22   43 1
  36   23   24 1
  37   23   44 1
  38   23   45 1
  39   24   28 1
  40   24   25 2
  41   25   26 1
  42   25   46 1
  43   26   27 2
  44   27   28 1
  45   27   29 1
  46   29   33 1
  47   29   30 1
  48   30   31 2
  49   30   47 1
  50   31   32 1
  51   31   48 1
  52   32   33 2
  53   32   49 1

#	End of record

