#	Name: ASD13490077
#	Creating user name:	WinNT
#	Creation time:	15. 06. 2019 21:30

#	Modifying user name:	WinNT
#	Modification time:	15. 06. 2019 21:30

#	Program:	/corina/corina34_cracker 3.40 0067  02.08.2006

@<TRIPOS>MOLECULE
ASD13490077
  54   58    0    0    0
SMALL
NO_CHARGES


@<TRIPOS>ATOM
   1 C1            -0.0167     1.3770     0.0096 C.ar    
   2 C2             0.0021    -0.0041     0.0020 C.ar    
   3 C3             1.2269    -0.6860    -0.0133 C.ar    
   4 C4             2.4244     0.0324    -0.0209 C.ar    
   5 C5             2.4027     1.4087    -0.0133 C.ar    
   6 C6             1.1836     2.0904     0.0020 C.ar    
   7 C7             1.2508    -2.1621    -0.0210 C.2     
   8 O8             0.5742    -2.9831     0.8123 O.3     
   9 C9             0.8704    -4.2449     0.4709 C.2     
  10 N10            1.6990    -4.2302    -0.5354 N.2     
  11 C11            1.9527    -2.9566    -0.8712 C.2     
  12 C12            1.1642     3.5683     0.0101 C.2     
  13 N13            0.1349     4.3402     0.2983 N.2     
  14 N14            0.4790     5.5785     0.2056 N.2     
  15 N15            2.2066     4.3957    -0.2727 N.pl3   
  16 C16            4.0369     6.4963    -0.3612 C.3     
  17 C17            4.2395     5.2910    -1.2685 C.3     
  18 C18            3.5770     4.0539    -0.6506 C.3     
  19 C19            1.7282     5.6657    -0.1410 C.2     
  20 C20            2.5578     6.9052    -0.3648 C.3     
  21 C21            2.3035     7.9046     0.7341 C.ar    
  22 C22            2.5479     7.5613     2.0509 C.ar    
  23 C23            2.3146     8.4778     3.0588 C.ar    
  24 C24            1.8373     9.7382     2.7501 C.ar    
  25 C25            1.5939    10.0817     1.4337 C.ar    
  26 C26            1.8313     9.1663     0.4252 C.ar    
  27 C27            0.3324    -5.4820     1.1427 C.3     
  28 O28           -1.1645    -0.7005     0.0099 O.3     
  29 C29           -2.3741     0.0601     0.0260 C.3     
  30 C30            1.5708     9.5427    -1.0107 C.3     
  31 F31            1.1016    10.8593    -1.0699 F       
  32 F32            2.7581     9.4374    -1.7431 F       
  33 F33            0.6110     8.6807    -1.5519 F       
  34 H34           -0.9589     1.9047     0.0169 H       
  35 H35            3.3683    -0.4923    -0.0324 H       
  36 H36            3.3300     1.9624    -0.0188 H       
  37 H37            2.5986    -2.6233    -1.6700 H       
  38 H38            4.3288     6.2383     0.6568 H       
  39 H39            4.6488     7.3256    -0.7162 H       
  40 H40            3.7837     5.4867    -2.2391 H       
  41 H41            5.3064     5.1101    -1.3989 H       
  42 H42            4.1338     3.7443     0.2338 H       
  43 H43            3.5639     3.2436    -1.3795 H       
  44 H44            2.2994     7.3436    -1.3287 H       
  45 H45            2.9207     6.5768     2.2920 H       
  46 H46            2.5048     8.2094     4.0874 H       
  47 H47            1.6543    10.4541     3.5378 H       
  48 H48            1.2207    11.0661     1.1927 H       
  49 H49           -0.5907    -5.7898     0.6516 H       
  50 H50            1.0674    -6.2837     1.0700 H       
  51 H51            0.1316    -5.2672     2.1922 H       
  52 H52           -3.2287    -0.6164     0.0308 H       
  53 H53           -2.3993     0.6837     0.9196 H       
  54 H54           -2.4170     0.6933    -0.8603 H       
@<TRIPOS>BOND
   1    1    2 ar
   2    1    6 ar
   3    1   34 1
   4    2    3 ar
   5    2   28 1
   6    3    4 ar
   7    3    7 1
   8    4    5 ar
   9    4   35 1
  10    5    6 ar
  11    5   36 1
  12    6   12 1
  13    7    8 1
  14    7   11 2
  15    8    9 1
  16    9   10 2
  17    9   27 1
  18   10   11 1
  19   11   37 1
  20   12   13 2
  21   12   15 1
  22   13   14 1
  23   14   19 2
  24   15   19 1
  25   15   18 1
  26   16   17 1
  27   16   20 1
  28   16   38 1
  29   16   39 1
  30   17   18 1
  31   17   40 1
  32   17   41 1
  33   18   42 1
  34   18   43 1
  35   19   20 1
  36   20   21 1
  37   20   44 1
  38   21   22 ar
  39   21   26 ar
  40   22   23 ar
  41   22   45 1
  42   23   24 ar
  43   23   46 1
  44   24   25 ar
  45   24   47 1
  46   25   26 ar
  47   25   48 1
  48   26   30 1
  49   27   49 1
  50   27   50 1
  51   27   51 1
  52   28   29 1
  53   29   52 1
  54   29   53 1
  55   29   54 1
  56   30   31 1
  57   30   32 1
  58   30   33 1

#	End of record

