#	Name: ASD16700001
#	Creating user name:	WinNT
#	Creation time:	15. 06. 2019 21:31

#	Modifying user name:	WinNT
#	Modification time:	15. 06. 2019 21:31

#	Program:	/corina/corina34_cracker 3.40 0067  02.08.2006

@<TRIPOS>MOLECULE
ASD16700001
  36   38    0    0    0
SMALL
NO_CHARGES


@<TRIPOS>ATOM
   1 O1            -0.0198     1.6058     0.0109 O.3     
   2 P2             0.0021    -0.0041     0.0020 P.3     
   3 O3            -1.3864    -0.5163     0.0125 O.2     
   4 O4             0.7557    -0.5233    -1.3226 O.3     
   5 O5             0.7808    -0.5374     1.3064 O.3     
   6 C6             0.3012    -0.3331     2.6369 C.3     
   7 C7             1.2763    -0.9639     3.6330 C.3     
   8 O8             2.5408    -0.2672     3.6172 O.3     
   9 C9             0.7742    -0.7689     5.0863 C.3     
  10 O10           -0.1274    -1.8132     5.4588 O.3     
  11 C11            2.0891    -0.8585     5.8985 C.3     
  12 C12            3.1918    -0.5509     4.8669 C.3     
  13 N13            3.9681     0.6137     5.2998 N.pl3   
  14 C14            3.7531     1.9085     4.9317 C.2     
  15 N15            4.6286     2.6841     5.5024 N.2     
  16 C16            5.4584     1.9384     6.2709 C.ar    
  17 C17            6.5604     2.2201     7.0965 C.ar    
  18 N18            7.0132     3.5181     7.2546 N.pl3   
  19 N19            7.1571     1.2109     7.7221 N.ar    
  20 C20            6.7316    -0.0310     7.5775 C.ar    
  21 N21            5.7048    -0.3417     6.8150 N.ar    
  22 C22            5.0410     0.6020     6.1548 C.ar    
  23 H23            0.8582     2.0111     0.0047 H       
  24 H24            0.3404    -0.2390    -2.1483 H       
  25 H25            0.2211     0.7359     2.8341 H       
  26 H26           -0.6793    -0.7969     2.7449 H       
  27 H27            1.4181    -2.0218     3.4120 H       
  28 H28            0.3066     0.2081     5.2086 H       
  29 H29           -0.4689    -1.7351     6.3601 H       
  30 H30            2.0957    -0.1163     6.6968 H       
  31 H31            2.2177    -1.8608     6.3070 H       
  32 H32            3.8469    -1.4150     4.7559 H       
  33 H33            2.9719     2.2415     4.2645 H       
  34 H34            6.5690     4.2464     6.7928 H       
  35 H35            7.7748     3.6998     7.8272 H       
  36 H36            7.2457    -0.8213     8.1043 H       
@<TRIPOS>BOND
   1    1    2 1
   2    1   23 1
   3    2    3 2
   4    2    4 1
   5    2    5 1
   6    4   24 1
   7    5    6 1
   8    6    7 1
   9    6   25 1
  10    6   26 1
  11    7    8 1
  12    7    9 1
  13    7   27 1
  14    8   12 1
  15    9   10 1
  16    9   11 1
  17    9   28 1
  18   10   29 1
  19   11   12 1
  20   11   30 1
  21   11   31 1
  22   12   13 1
  23   12   32 1
  24   13   14 1
  25   13   22 1
  26   14   15 2
  27   14   33 1
  28   15   16 1
  29   16   17 ar
  30   16   22 ar
  31   17   18 1
  32   17   19 ar
  33   18   34 1
  34   18   35 1
  35   19   20 ar
  36   20   21 ar
  37   20   36 1
  38   21   22 ar

#	End of record

