#	Name: ASD10950073
#	Creating user name:	WinNT
#	Creation time:	15. 06. 2019 21:28

#	Modifying user name:	WinNT
#	Modification time:	15. 06. 2019 21:28

#	Program:	/corina/corina34_cracker 3.40 0067  02.08.2006

@<TRIPOS>MOLECULE
ASD10950073
  50   52    0    0    0
SMALL
NO_CHARGES


@<TRIPOS>ATOM
   1 C1            -1.4260     1.1986     0.8042 C.3     
   2 O2            -1.1919    -0.2256     0.6452 O.3     
   3 C3            -0.3852    -0.6037    -0.3653 C.2     
   4 O4             0.1090     0.2334    -1.0936 O.2     
   5 C5            -0.1017    -2.0364    -0.5875 C.ar    
   6 C6             0.7339    -2.4318    -1.6339 C.ar    
   7 C7             0.9944    -3.7713    -1.8359 C.ar    
   8 C8             0.4297    -4.7221    -1.0043 C.ar    
   9 C9            -0.3993    -4.3372     0.0345 C.ar    
  10 C10           -0.6636    -3.0008     0.2513 C.ar    
  11 C11            0.7184    -6.1837    -1.2314 C.3     
  12 N12            1.1567    -6.8116     0.0204 N.am    
  13 C13            2.3414    -6.4440     0.7999 C.3     
  14 C14            1.9659    -5.3692     1.8221 C.3     
  15 C15            3.1845    -4.9910     2.6240 C.ar    
  16 C16            4.0048    -3.9656     2.1917 C.ar    
  17 C17            5.1241    -3.6165     2.9250 C.ar    
  18 C18            5.4251    -4.2918     4.0917 C.ar    
  19 C19            4.6031    -5.3210     4.5279 C.ar    
  20 C20            3.4779    -5.6656     3.7935 C.ar    
  21 O21            4.8974    -5.9873     5.6752 O.3     
  22 C22            0.2789    -7.7841     0.3265 C.2     
  23 O23            0.3464    -8.5020     1.3041 O.2     
  24 C24           -0.7814    -7.8492    -0.7035 C.2     
  25 C25           -0.5433    -6.9039    -1.6461 C.2     
  26 C26           -1.3254    -6.6426    -2.7960 C.2     
  27 O27           -2.3771    -7.2258    -2.9600 O.2     
  28 C28           -0.8525    -5.6402    -3.8171 C.3     
  29 O29           -1.8214    -8.7125    -0.7043 O.3     
  30 H30           -0.4773     1.7052     0.9815 H       
  31 H31           -1.8857     1.5945    -0.1014 H       
  32 H32           -2.0908     1.3651     1.6517 H       
  33 H33            1.1751    -1.6906    -2.2839 H       
  34 H34            1.6403    -4.0785    -2.6451 H       
  35 H35           -0.8371    -5.0846     0.6797 H       
  36 H36           -1.3108    -2.7017     1.0625 H       
  37 H37            1.4856    -6.2990    -1.9970 H       
  38 H38            2.7213    -7.3232     1.3202 H       
  39 H39            3.1104    -6.0568     0.1315 H       
  40 H40            1.5860    -4.4899     1.3019 H       
  41 H41            1.1969    -5.7563     2.4906 H       
  42 H42            3.7714    -3.4366     1.2795 H       
  43 H43            5.7635    -2.8153     2.5850 H       
  44 H44            6.2997    -4.0192     4.6636 H       
  45 H45            2.8366    -6.4663     4.1310 H       
  46 H46            4.5007    -5.6002     6.4676 H       
  47 H47           -0.1720    -6.1267    -4.5159 H       
  48 H48           -1.7097    -5.2437    -4.3612 H       
  49 H49           -0.3336    -4.8250    -3.3127 H       
  50 H50           -1.8310    -9.3175     0.0500 H       
@<TRIPOS>BOND
   1    1    2 1
   2    1   30 1
   3    1   31 1
   4    1   32 1
   5    2    3 1
   6    3    4 2
   7    3    5 1
   8    5    6 ar
   9    5   10 ar
  10    6    7 ar
  11    6   33 1
  12    7    8 ar
  13    7   34 1
  14    8    9 ar
  15    8   11 1
  16    9   10 ar
  17    9   35 1
  18   10   36 1
  19   11   12 1
  20   11   25 1
  21   11   37 1
  22   12   13 1
  23   12   22 am
  24   13   14 1
  25   13   38 1
  26   13   39 1
  27   14   15 1
  28   14   40 1
  29   14   41 1
  30   15   16 ar
  31   15   20 ar
  32   16   17 ar
  33   16   42 1
  34   17   18 ar
  35   17   43 1
  36   18   19 ar
  37   18   44 1
  38   19   20 ar
  39   19   21 1
  40   20   45 1
  41   21   46 1
  42   22   23 2
  43   22   24 1
  44   24   25 2
  45   24   29 1
  46   25   26 1
  47   26   27 2
  48   26   28 1
  49   28   47 1
  50   28   48 1
  51   28   49 1
  52   29   50 1

#	End of record

