#	Name: ASD10160290
#	Creating user name:	WinNT
#	Creation time:	15. 06. 2019 21:25

#	Modifying user name:	WinNT
#	Modification time:	15. 06. 2019 21:25

#	Program:	/corina/corina34_cracker 3.40 0067  02.08.2006

@<TRIPOS>MOLECULE
ASD10160290
  27   27    0    0    0
SMALL
NO_CHARGES


@<TRIPOS>ATOM
   1 C1            -0.0179     1.4702     0.0101 C.2     
   2 C2             0.0021    -0.0041     0.0020 C.ar    
   3 C3             1.2219    -0.6902    -0.0133 C.ar    
   4 C4             1.2336    -2.0717    -0.0204 C.ar    
   5 C5             0.0417    -2.7771    -0.0128 C.ar    
   6 C6            -1.1720    -2.1013     0.0020 C.ar    
   7 C7            -1.1970    -0.7222     0.0155 C.ar    
   8 O8             1.0260     2.0919     0.0035 O.2     
   9 O9            -1.1939     2.1280     0.0193 O.3     
  10 F10           -2.3304    -2.7965     0.0085 F       
  11 F11            0.0594    -4.1279    -0.0202 F       
  12 F12            2.3851    -0.0032    -0.0216 F       
  13 C13           -1.1376     3.5788     0.0269 C.3     
  14 C14           -0.4030     4.0673    -1.2232 C.3     
  15 C15           -2.5592     4.1444     0.0367 C.3     
  16 C16           -0.3912     4.0537     1.2752 C.3     
  17 H17            2.1740    -2.6027    -0.0322 H       
  18 H18           -2.1413    -0.1984     0.0314 H       
  19 H19           -0.9348     3.7290    -2.1125 H       
  20 H20           -0.3607     5.1565    -1.2175 H       
  21 H21            0.6098     3.6644    -1.2302 H       
  22 H22           -3.0825     3.7964     0.9273 H       
  23 H23           -2.5169     5.2335     0.0424 H       
  24 H24           -3.0909     3.8061    -0.8526 H       
  25 H25            0.6216     3.6508     1.2682 H       
  26 H26           -0.3489     5.1429     1.2809 H       
  27 H27           -0.9145     3.7057     2.1658 H       
@<TRIPOS>BOND
   1    1    2 1
   2    1    8 2
   3    1    9 1
   4    2    3 ar
   5    2    7 ar
   6    3    4 ar
   7    3   12 1
   8    4    5 ar
   9    4   17 1
  10    5    6 ar
  11    5   11 1
  12    6    7 ar
  13    6   10 1
  14    7   18 1
  15    9   13 1
  16   13   14 1
  17   13   16 1
  18   13   15 1
  19   14   19 1
  20   14   20 1
  21   14   21 1
  22   15   22 1
  23   15   23 1
  24   15   24 1
  25   16   25 1
  26   16   26 1
  27   16   27 1

#	End of record

