#	Name: ASD10080001
#	Creating user name:	WinNT
#	Creation time:	15. 06. 2019 21:24

#	Modifying user name:	WinNT
#	Modification time:	15. 06. 2019 21:24

#	Program:	/corina/corina34_cracker 3.40 0067  02.08.2006

@<TRIPOS>MOLECULE
ASD10080001
 112  117    0    0    0
SMALL
NO_CHARGES


@<TRIPOS>ATOM
   1 C1             1.0534    -0.4152     0.8029 C.ar    
   2 C2            -0.0211     0.0357     0.0102 C.ar    
   3 C3            -1.2802    -0.7078     0.0355 C.2     
   4 C4            -1.3678    -1.8088     0.8243 C.2     
   5 C5            -0.2632    -2.2180     1.5989 C.2     
   6 N6             0.8972    -1.5389     1.5872 N.am    
   7 C7             2.2536     0.2822     0.7875 C.ar    
   8 C8             2.3814     1.4116    -0.0055 C.ar    
   9 C9             1.3136     1.8526    -0.7880 C.ar    
  10 C10            0.1274     1.1790    -0.7840 C.ar    
  11 O11           -0.3644    -3.2094     2.3008 O.2     
  12 C12           -2.4550    -0.2610    -0.7959 C.3     
  13 N13            3.5874     2.1136    -0.0213 N.am    
  14 C14            4.7559     1.4476     0.0657 C.2     
  15 C15            6.0595     2.1939    -0.0563 C.3     
  16 O16            4.7584     0.2477     0.2423 O.2     
  17 C17            6.1271     2.8824    -1.4210 C.3     
  18 C18            7.3915     3.7405    -1.4972 C.3     
  19 C19            7.4592     4.4289    -2.8619 C.3     
  20 C20            8.7236     5.2870    -2.9381 C.3     
  21 H21            6.1242     2.9435     0.7324 H       
  22 N22            7.1749     1.2528     0.0717 N.am    
  23 C23            7.6328     0.9126     1.2928 C.2     
  24 C24            8.7801    -0.0555     1.4245 C.3     
  25 O25            7.1214     1.3857     2.2856 O.2     
  26 C26            8.3948    -1.3926     0.7886 C.3     
  27 H27            9.6565     0.3487     0.9178 H       
  28 N28            9.0867    -0.2594     2.8425 N.am    
  29 C29            9.6005    -2.3342     0.8107 C.3     
  30 C30            9.1823    -3.7106     0.2897 C.3     
  31 C31           10.3881    -4.6522     0.3118 C.3     
  32 C32           11.4949    -4.0844    -0.5790 C.3     
  33 C33           11.9131    -2.7080    -0.0580 C.3     
  34 C34           10.7074    -1.7664    -0.0801 C.3     
  35 N35            8.7884     5.9462    -4.2448 N.am    
  36 O36            9.8826     7.3639    -5.7404 O.3     
  37 C37           11.0255     8.2243    -5.9887 C.3     
  38 C38           12.3136     7.4063    -5.8766 C.3     
  39 C39           10.9200     8.8195    -7.3942 C.3     
  40 C40           11.0473     9.3539    -4.9569 C.3     
  41 C41            9.8231     6.7581    -4.5394 C.2     
  42 O42           10.7021     6.9433    -3.7213 O.2     
  43 C43           13.1900     0.1475     7.7178 C.ar    
  44 C44           14.0845    -1.0195     7.5176 C.ar    
  45 C45           13.4464    -1.9602     6.7140 C.ar    
  46 C46           12.0853    -1.4106     6.3641 C.3     
  47 C47           11.9931    -0.0641     7.0392 C.ar    
  48 C48           10.9953     0.8869     7.0761 C.ar    
  49 C49           11.1804     2.0578     7.7894 C.ar    
  50 C50           12.3666     2.2774     8.4666 C.ar    
  51 C51           13.3682     1.3295     8.4391 C.ar    
  52 C52           15.3731    -1.2815     7.9868 C.ar    
  53 C53           16.0008    -2.4633     7.6527 C.ar    
  54 C54           15.3587    -3.3918     6.8531 C.ar    
  55 C55           14.0814    -3.1393     6.3853 C.ar    
  56 C56           11.9559    -1.2497     4.8481 C.3     
  57 O57           10.6043    -0.8334     4.5191 O.3     
  58 C58           10.3226    -0.6460     3.2159 C.2     
  59 O59           11.1827    -0.8253     2.3765 O.2     
  60 H60           -2.2876    -2.3737     0.8589 H       
  61 H61            1.6375    -1.8481     2.1324 H       
  62 H62            3.0839    -0.0535     1.3911 H       
  63 H63            1.4271     2.7342    -1.4014 H       
  64 H64           -0.6946     1.5263    -1.3923 H       
  65 H65           -2.4091    -0.7371    -1.7754 H       
  66 H66           -3.3818    -0.5445    -0.2972 H       
  67 H67           -2.4238     0.8219    -0.9165 H       
  68 H68            3.5847     3.0808    -0.0949 H       
  69 H69            6.1519     2.1282    -2.2076 H       
  70 H70            5.2498     3.5157    -1.5524 H       
  71 H71            7.3668     4.4947    -0.7106 H       
  72 H72            8.2689     3.1072    -1.3658 H       
  73 H73            7.4840     3.6747    -3.6485 H       
  74 H74            6.5818     5.0622    -2.9933 H       
  75 H75            8.6988     6.0412    -2.1515 H       
  76 H76            9.6010     4.6537    -2.8067 H       
  77 H77            7.5838     0.8745    -0.7223 H       
  78 H78            7.5746    -1.8393     1.3506 H       
  79 H79            8.0814    -1.2277    -0.2423 H       
  80 H80            8.4001    -0.1163     3.5126 H       
  81 H81            9.9689    -2.4289     1.8321 H       
  82 H82            8.3938    -4.1151     0.9243 H       
  83 H83            8.8140    -3.6159    -0.7318 H       
  84 H84           10.7565    -4.7469     1.3332 H       
  85 H85           10.0902    -5.6328    -0.0594 H       
  86 H86           12.3539    -4.7552    -0.5633 H       
  87 H87           11.1265    -3.9897    -1.6005 H       
  88 H88           12.2815    -2.8027     0.9635 H       
  89 H89           12.7016    -2.3035    -0.6926 H       
  90 H90           10.3390    -1.6717    -1.1016 H       
  91 H91           11.0053    -0.7858     0.2911 H       
  92 H92            8.0867     5.7984    -4.8979 H       
  93 H93           12.2981     6.6016    -6.6116 H       
  94 H94           13.1716     8.0522    -6.0630 H       
  95 H95           12.3888     6.9823    -4.8752 H       
  96 H96           10.0024     9.4022    -7.4741 H       
  97 H97           11.7780     9.4654    -7.5807 H       
  98 H98           10.9045     8.0148    -8.1293 H       
  99 H99           11.1225     8.9299    -3.9556 H       
 100 H100          11.9053     9.9998    -5.1433 H       
 101 H101          10.1297     9.9366    -5.0368 H       
 102 H102          11.3052    -2.0729     6.7397 H       
 103 H103          10.0688     0.7177     6.5475 H       
 104 H104          10.3979     2.8017     7.8173 H       
 105 H105          12.5075     3.1928     9.0220 H       
 106 H106          14.2908     1.5027     8.9732 H       
 107 H107          15.8783    -0.5590     8.6107 H       
 108 H108          16.9976    -2.6644     8.0164 H       
 109 H109          15.8551    -4.3153     6.5939 H       
 110 H110          13.5817    -3.8656     5.7615 H       
 111 H111          12.6628    -0.4960     4.5011 H       
 112 H112          12.1716    -2.2012     4.3620 H       
@<TRIPOS>BOND
   1    1    2 ar
   2    1    7 ar
   3    1    6 1
   4    2    3 1
   5    2   10 ar
   6    3    4 2
   7    3   12 1
   8    4    5 1
   9    4   60 1
  10    5    6 am
  11    5   11 2
  12    6   61 1
  13    7    8 ar
  14    7   62 1
  15    8    9 ar
  16    8   13 1
  17    9   10 ar
  18    9   63 1
  19   10   64 1
  20   12   65 1
  21   12   66 1
  22   12   67 1
  23   13   14 am
  24   13   68 1
  25   14   15 1
  26   14   16 2
  27   15   17 1
  28   15   21 1
  29   15   22 1
  30   17   18 1
  31   17   69 1
  32   17   70 1
  33   18   19 1
  34   18   71 1
  35   18   72 1
  36   19   20 1
  37   19   73 1
  38   19   74 1
  39   20   35 1
  40   20   75 1
  41   20   76 1
  42   22   23 am
  43   22   77 1
  44   23   24 1
  45   23   25 2
  46   24   26 1
  47   24   27 1
  48   24   28 1
  49   26   29 1
  50   26   78 1
  51   26   79 1
  52   28   58 am
  53   28   80 1
  54   29   30 1
  55   29   34 1
  56   29   81 1
  57   30   31 1
  58   30   82 1
  59   30   83 1
  60   31   32 1
  61   31   84 1
  62   31   85 1
  63   32   33 1
  64   32   86 1
  65   32   87 1
  66   33   34 1
  67   33   88 1
  68   33   89 1
  69   34   90 1
  70   34   91 1
  71   35   41 am
  72   35   92 1
  73   36   37 1
  74   36   41 1
  75   37   38 1
  76   37   39 1
  77   37   40 1
  78   38   93 1
  79   38   94 1
  80   38   95 1
  81   39   96 1
  82   39   97 1
  83   39   98 1
  84   40   99 1
  85   40  100 1
  86   40  101 1
  87   41   42 2
  88   43   44 1
  89   43   47 ar
  90   43   51 ar
  91   44   45 ar
  92   44   52 ar
  93   45   46 1
  94   45   55 ar
  95   46   47 1
  96   46   56 1
  97   46  102 1
  98   47   48 ar
  99   48   49 ar
 100   48  103 1
 101   49   50 ar
 102   49  104 1
 103   50   51 ar
 104   50  105 1
 105   51  106 1
 106   52   53 ar
 107   52  107 1
 108   53   54 ar
 109   53  108 1
 110   54   55 ar
 111   54  109 1
 112   55  110 1
 113   56   57 1
 114   56  111 1
 115   56  112 1
 116   57   58 1
 117   58   59 2

#	End of record

