#	Name: ASD14340002
#	Creating user name:	WinNT
#	Creation time:	15. 06. 2019 21:31

#	Modifying user name:	WinNT
#	Modification time:	15. 06. 2019 21:31

#	Program:	/corina/corina34_cracker 3.40 0067  02.08.2006

@<TRIPOS>MOLECULE
ASD14340002
  46   49    0    0    0
SMALL
NO_CHARGES


@<TRIPOS>ATOM
   1 C1            -0.0210     1.5199    -0.0869 C.2     
   2 C2            -0.0065     0.0160    -0.1175 C.3     
   3 C3             1.2686    -0.4845     0.5693 C.3     
   4 C4             2.4760     0.1388    -0.1346 C.3     
   5 C5             2.3753     1.6430    -0.0763 C.2     
   6 C6             1.1743     2.2594    -0.0614 C.2     
   7 C7             1.0814     3.7640    -0.0204 C.3     
   8 N8             3.5319     2.3742    -0.0360 N.pl3   
   9 C9             3.5228     3.6699     0.4021 C.2     
  10 C10            2.3775     4.3710     0.4305 C.2     
  11 C11            0.7473     4.2769    -1.3974 C.2     
  12 C12           -0.3420     4.9941    -1.7268 C.2     
  13 C13           -0.2535     5.2602    -3.1126 C.2     
  14 C14            0.8845     4.6897    -3.5471 C.2     
  15 O15            1.4895     4.1005    -2.5027 O.3     
  16 O16           -1.0852     2.1063    -0.0892 O.2     
  17 C17            4.8066     4.3152     0.8565 C.3     
  18 C18            2.3936     5.7093     0.8946 C.2     
  19 O19            3.4389     6.2134     1.2632 O.2     
  20 N20            1.2518     6.4246     0.9282 N.am    
  21 C21            1.2516     7.7170     1.4637 C.ar    
  22 C22            2.4159     9.7443     2.0006 C.ar    
  23 C23            2.4194     8.4673     1.4705 C.ar    
  24 C24            0.0804     8.2547     1.9852 C.ar    
  25 C25            0.0834     9.5315     2.5135 C.ar    
  26 C26            1.2498    10.2744     2.5240 C.ar    
  27 Cl27          -1.3845     7.3233     1.9720 Cl      
  28 Cl28           3.8759    10.6835     2.0095 Cl      
  29 H29           -0.8796    -0.3681     0.4099 H       
  30 H30           -0.0227    -0.3280    -1.1517 H       
  31 H31            1.2613    -0.1857     1.6175 H       
  32 H32            1.3221    -1.5706     0.4955 H       
  33 H33            3.3915    -0.1831     0.3617 H       
  34 H34            2.4955    -0.1835    -1.1757 H       
  35 H35            0.2904     4.0550     0.6707 H       
  36 H36            4.3661     1.9693    -0.3206 H       
  37 H37           -1.1327     5.3062    -1.0607 H       
  38 H38           -0.9636     5.8147    -3.7081 H       
  39 H39            1.2515     4.7061    -4.5627 H       
  40 H40            5.6248     3.6010     0.7641 H       
  41 H41            5.0140     5.1875     0.2367 H       
  42 H42            4.7096     4.6239     1.8974 H       
  43 H43            0.4302     6.0434     0.5809 H       
  44 H44            3.3299     8.0539     1.0624 H       
  45 H45           -0.8262     9.9499     2.9184 H       
  46 H46            1.2496    11.2721     2.9375 H       
@<TRIPOS>BOND
   1    1    2 1
   2    1    6 1
   3    1   16 2
   4    2    3 1
   5    2   29 1
   6    2   30 1
   7    3    4 1
   8    3   31 1
   9    3   32 1
  10    4    5 1
  11    4   33 1
  12    4   34 1
  13    5    8 1
  14    5    6 2
  15    6    7 1
  16    7   10 1
  17    7   11 1
  18    7   35 1
  19    8    9 1
  20    8   36 1
  21    9   10 2
  22    9   17 1
  23   10   18 1
  24   11   12 2
  25   11   15 1
  26   12   13 1
  27   12   37 1
  28   13   14 2
  29   13   38 1
  30   14   15 1
  31   14   39 1
  32   17   40 1
  33   17   41 1
  34   17   42 1
  35   18   19 2
  36   18   20 am
  37   20   21 1
  38   20   43 1
  39   21   24 ar
  40   21   23 ar
  41   22   23 ar
  42   22   26 ar
  43   22   28 1
  44   23   44 1
  45   24   25 ar
  46   24   27 1
  47   25   26 ar
  48   25   45 1
  49   26   46 1

#	End of record

