#	Name: ASD10160500
#	Creating user name:	WinNT
#	Creation time:	15. 06. 2019 21:26

#	Modifying user name:	WinNT
#	Modification time:	15. 06. 2019 21:26

#	Program:	/corina/corina34_cracker 3.40 0067  02.08.2006

@<TRIPOS>MOLECULE
ASD10160500
  21   21    0    0    0
SMALL
NO_CHARGES


@<TRIPOS>ATOM
   1 C1            -0.0179     1.4714     0.0101 C.2     
   2 C2             0.0021    -0.0041     0.0020 C.ar    
   3 C3             1.2211    -0.6906    -0.0133 C.ar    
   4 C4             1.2310    -2.0732    -0.0203 C.ar    
   5 C5             0.0405    -2.7759    -0.0123 C.ar    
   6 C6            -1.1697    -2.1019     0.0024 C.ar    
   7 C7            -1.1958    -0.7223     0.0154 C.ar    
   8 O8             1.0258     2.0931     0.0035 O.2     
   9 O9            -1.1937     2.1292     0.0193 O.3     
  10 C10            0.0594    -4.2827    -0.0200 C.3     
  11 F11            2.3849    -0.0046    -0.0217 F       
  12 Cl12          -2.6579    -2.9957     0.0119 Cl      
  13 C13           -1.1374     3.5801     0.0269 C.3     
  14 H14            2.1707    -2.6053    -0.0325 H       
  15 H15           -2.1404    -0.1990     0.0318 H       
  16 H16            0.0740    -4.6512     1.0057 H       
  17 H17           -0.8309    -4.6546    -0.5271 H       
  18 H18            0.9488    -4.6323    -0.5443 H       
  19 H19           -0.6057     3.9184     0.9162 H       
  20 H20           -0.6141     3.9280    -0.8637 H       
  21 H21           -2.1502     3.9829     0.0339 H       
@<TRIPOS>BOND
   1    1    2 1
   2    1    8 2
   3    1    9 1
   4    2    3 ar
   5    2    7 ar
   6    3    4 ar
   7    3   11 1
   8    4    5 ar
   9    4   14 1
  10    5    6 ar
  11    5   10 1
  12    6    7 ar
  13    6   12 1
  14    7   15 1
  15    9   13 1
  16   10   16 1
  17   10   17 1
  18   10   18 1
  19   13   19 1
  20   13   20 1
  21   13   21 1

#	End of record

