#	Name: ASD10160048
#	Creating user name:	WinNT
#	Creation time:	15. 06. 2019 21:25

#	Modifying user name:	WinNT
#	Modification time:	15. 06. 2019 21:25

#	Program:	/corina/corina34_cracker 3.40 0067  02.08.2006

@<TRIPOS>MOLECULE
ASD10160048
  42   43    0    0    0
SMALL
NO_CHARGES


@<TRIPOS>ATOM
   1 C1            -0.8863     1.3871     0.1311 C.2     
   2 C2            -0.6381    -0.0643     0.0912 C.ar    
   3 C3            -1.6987    -0.9638     0.2580 C.ar    
   4 C4            -1.4600    -2.3220     0.2196 C.ar    
   5 C5            -0.1704    -2.7982     0.0160 C.ar    
   6 C6             0.8859    -1.9106    -0.1496 C.ar    
   7 C7             0.6586    -0.5502    -0.1195 C.ar    
   8 O8            -0.8247     1.9857     1.1880 O.2     
   9 N9            -1.1763     2.0527    -1.0044 N.am    
  10 S10           -1.4554     3.6844    -0.9596 S.o2    
  11 O11           -1.7476     4.0271    -2.3073 O.2     
  12 O12           -2.4271     3.8456     0.0646 O.2     
  13 C13            0.1313     4.4011    -0.4501 C.3     
  14 F14            1.6855     0.3115    -0.2872 F       
  15 F15           -2.9528    -0.5023     0.4564 F       
  16 O16            0.0582    -4.1352    -0.0207 O.3     
  17 C17            0.0675    -6.1471    -1.2969 C.ar    
  18 C18           -0.0491    -4.7685    -1.2192 C.ar    
  19 C19           -0.2779    -4.0399    -2.3831 C.ar    
  20 C20           -0.3807    -4.7266    -3.5812 C.ar    
  21 C21           -0.2529    -6.1104    -3.5814 C.ar    
  22 N22           -0.0363    -6.7692    -2.4559 N.ar    
  23 O23           -0.3521    -6.7934    -4.7506 O.3     
  24 C24           -0.2118    -8.2141    -4.6859 C.3     
  25 C25           -1.0380    -8.8594    -5.8003 C.3     
  26 C26            1.2611    -8.5896    -4.8603 C.3     
  27 Cl27          -0.6662    -3.8699    -5.0638 Cl      
  28 H28           -2.2769    -3.0166     0.3485 H       
  29 H29            1.8861    -2.2865    -0.3072 H       
  30 H30           -1.2215     1.5759    -1.8480 H       
  31 H31            0.8987     4.1395    -1.1785 H       
  32 H32            0.0386     5.4857    -0.3937 H       
  33 H33            0.4098     4.0089     0.5280 H       
  34 H34            0.2495    -6.7187    -0.3988 H       
  35 H35           -0.3734    -2.9645    -2.3524 H       
  36 H36           -0.5656    -8.5704    -3.7184 H       
  37 H37           -0.6843    -8.5031    -6.7678 H       
  38 H38           -0.9311    -9.9430    -5.7509 H       
  39 H39           -2.0874    -8.5919    -5.6761 H       
  40 H40            1.6148    -8.2333    -5.8277 H       
  41 H41            1.8497    -8.1299    -4.0664 H       
  42 H42            1.3681    -9.6732    -4.8109 H       
@<TRIPOS>BOND
   1    1    2 1
   2    1    8 2
   3    1    9 am
   4    2    3 ar
   5    2    7 ar
   6    3    4 ar
   7    3   15 1
   8    4    5 ar
   9    4   28 1
  10    5    6 ar
  11    5   16 1
  12    6    7 ar
  13    6   29 1
  14    7   14 1
  15    9   10 am
  16    9   30 1
  17   10   11 2
  18   10   12 2
  19   10   13 1
  20   13   31 1
  21   13   32 1
  22   13   33 1
  23   16   18 1
  24   17   18 ar
  25   17   22 ar
  26   17   34 1
  27   18   19 ar
  28   19   20 ar
  29   19   35 1
  30   20   21 ar
  31   20   27 1
  32   21   22 ar
  33   21   23 1
  34   23   24 1
  35   24   25 1
  36   24   26 1
  37   24   36 1
  38   25   37 1
  39   25   38 1
  40   25   39 1
  41   26   40 1
  42   26   41 1
  43   26   42 1

#	End of record

