#	Name: ASD10410198
#	Creating user name:	WinNT
#	Creation time:	15. 06. 2019 21:27

#	Modifying user name:	WinNT
#	Modification time:	15. 06. 2019 21:27

#	Program:	/corina/corina34_cracker 3.40 0067  02.08.2006

@<TRIPOS>MOLECULE
ASD10410198
  54   57    0    0    0
SMALL
NO_CHARGES


@<TRIPOS>ATOM
   1 C1            -0.0183     1.3924    -0.0814 C.ar    
   2 C2            -0.0057     0.0095     0.0247 C.ar    
   3 C3             1.2007    -0.6690     0.1161 C.ar    
   4 C4             2.3904     0.0319     0.1011 C.ar    
   5 C5             2.3788     1.4166    -0.0056 C.ar    
   6 C6             1.1705     2.0951    -0.0965 C.ar    
   7 O7            -1.1769    -0.6816     0.0396 O.3     
   8 N8             3.5843     2.1280    -0.0204 N.pl3   
   9 C9             3.6713     3.3385    -0.7080 C.2     
  10 N10            4.7094     4.1400    -0.7102 N.2     
  11 N11            2.7112     3.8664    -1.4764 N.2     
  12 C12            3.1221     5.0132    -1.9736 C.2     
  13 N13            4.3787     5.2367    -1.5224 N.pl3   
  14 C14            5.1860     6.3397    -1.8078 C.ar    
  15 N15            2.3997     5.8416    -2.8112 N.pl3   
  16 C16            6.1888     6.7052    -0.9198 C.ar    
  17 C17           -1.0897    -2.1036     0.1511 C.3     
  18 C18           -2.4976    -2.7025     0.1512 C.3     
  19 N19           -3.1360    -2.4529    -1.1481 N.3     
  20 C20           -4.3927    -3.2137    -1.2741 C.3     
  21 C21            5.7334     8.0734    -3.2335 C.ar    
  22 C22            6.7498     8.4960    -2.3871 C.ar    
  23 C23            6.9851     7.8011    -1.2121 C.ar    
  24 N24            4.9908     7.0231    -2.9254 N.ar    
  25 C25           -5.5158    -2.1963    -1.5653 C.3     
  26 C26           -4.7456    -0.9834    -2.1505 C.3     
  27 C27           -3.4360    -1.0159    -1.3238 C.3     
  28 O28            5.4958     8.7484    -4.3861 O.3     
  29 C29            4.4367     8.2647    -5.2147 C.3     
  30 H30           -0.9579     1.9196    -0.1567 H       
  31 H31            1.2095    -1.7458     0.1994 H       
  32 H32            3.3296    -0.4964     0.1726 H       
  33 H33            1.1605     3.1718    -0.1799 H       
  34 H34            4.3591     1.7791     0.4475 H       
  35 H35            1.5022     5.5935    -3.0827 H       
  36 H36            2.7902     6.6713    -3.1276 H       
  37 H37            6.3461     6.1422    -0.0117 H       
  38 H38           -0.5262    -2.5004    -0.6934 H       
  39 H39           -0.5836    -2.3648     1.0805 H       
  40 H40           -2.4355    -3.7767     0.3252 H       
  41 H41           -3.0891    -2.2400     0.9414 H       
  42 H42           -4.3146    -3.9252    -2.0962 H       
  43 H43           -4.6020    -3.7408    -0.3433 H       
  44 H44            7.3503     9.3567    -2.6422 H       
  45 H45            7.7718     8.1069    -0.5383 H       
  46 H46           -6.2180    -2.5962    -2.2968 H       
  47 H47           -6.0317    -1.9182    -0.6463 H       
  48 H48           -4.5410    -1.1258    -3.2117 H       
  49 H49           -5.2915    -0.0554    -1.9808 H       
  50 H50           -3.5865    -0.5386    -0.3555 H       
  51 H51           -2.6306    -0.5241    -1.8692 H       
  52 H52            3.4990     8.2936    -4.6596 H       
  53 H53            4.3534     8.8928    -6.1016 H       
  54 H54            4.6498     7.2387    -5.5147 H       
@<TRIPOS>BOND
   1    1    2 ar
   2    1    6 ar
   3    1   30 1
   4    2    3 ar
   5    2    7 1
   6    3    4 ar
   7    3   31 1
   8    4    5 ar
   9    4   32 1
  10    5    6 ar
  11    5    8 1
  12    6   33 1
  13    7   17 1
  14    8    9 1
  15    8   34 1
  16    9   10 2
  17    9   11 1
  18   10   13 1
  19   11   12 2
  20   12   13 1
  21   12   15 1
  22   13   14 1
  23   14   16 ar
  24   14   24 ar
  25   15   35 1
  26   15   36 1
  27   16   23 ar
  28   16   37 1
  29   17   18 1
  30   17   38 1
  31   17   39 1
  32   18   19 1
  33   18   40 1
  34   18   41 1
  35   19   20 1
  36   19   27 1
  37   20   25 1
  38   20   42 1
  39   20   43 1
  40   21   22 ar
  41   21   28 1
  42   21   24 ar
  43   22   23 ar
  44   22   44 1
  45   23   45 1
  46   25   26 1
  47   25   46 1
  48   25   47 1
  49   26   27 1
  50   26   48 1
  51   26   49 1
  52   27   50 1
  53   27   51 1
  54   28   29 1
  55   29   52 1
  56   29   53 1
  57   29   54 1

#	End of record

