#	Name: ASD10410123
#	Creating user name:	WinNT
#	Creation time:	15. 06. 2019 21:26

#	Modifying user name:	WinNT
#	Modification time:	15. 06. 2019 21:26

#	Program:	/corina/corina34_cracker 3.40 0067  02.08.2006

@<TRIPOS>MOLECULE
ASD10410123
  75   81    0    0    0
SMALL
NO_CHARGES


@<TRIPOS>ATOM
   1 C1             0.1799     0.9666     0.6534 C.ar    
   2 C2             0.3471    -0.4102     0.5833 C.ar    
   3 C3             1.6171    -0.9481     0.4206 C.ar    
   4 C4             2.7135    -0.1139     0.3281 C.ar    
   5 C5             2.5462     1.2630     0.3977 C.ar    
   6 C6             1.2762     1.8008     0.5609 C.ar    
   7 N7             3.6582     2.1090     0.3043 N.pl3   
   8 C8             3.5251     3.3754    -0.2644 C.2     
   9 N9             4.4654     4.2877    -0.3166 N.2     
  10 N10            2.4190     3.8508    -0.8489 N.2     
  11 C11            2.6352     5.0757    -1.2778 C.2     
  12 N12            3.9175     5.4053    -0.9669 N.pl3   
  13 C13            4.5592     6.6105    -1.2393 C.ar    
  14 N14            1.7233     5.8818    -1.9311 N.pl3   
  15 N15           -0.7643    -1.2559     0.6772 N.3     
  16 C16           -0.3628    -2.6661     0.5794 C.3     
  17 C17           -1.5925    -3.5580     0.7657 C.3     
  18 N18           -2.5943    -3.2265    -0.2571 N.3     
  19 C19           -2.9959    -1.8163    -0.1593 C.3     
  20 C20           -1.7661    -0.9244    -0.3456 C.3     
  21 N21            3.8813     7.5665    -1.8685 N.ar    
  22 C22            4.4321     8.7287    -2.1548 C.ar    
  23 C23            5.7687     8.9477    -1.7796 C.ar    
  24 C24            6.4605     7.9043    -1.1095 C.ar    
  25 N25            5.8119     6.7599    -0.8586 N.ar    
  26 C26           -3.7608    -4.1141    -0.1586 C.3     
  27 C27            6.4269    10.1578    -2.0488 C.ar    
  28 C28            7.7260    10.3174    -1.6627 C.ar    
  29 C29            8.4106     9.2864    -1.0007 C.ar    
  30 C30            7.7943     8.0984    -0.7255 C.ar    
  31 C31           -3.3415    -5.5935    -0.4170 C.3     
  32 C32           -4.7771    -3.7946    -1.2787 C.3     
  33 C33           -4.8761    -5.1111    -2.1084 C.3     
  34 C34           -4.6070    -6.4275    -0.0507 C.3     
  35 C35           -5.6233    -6.1081    -1.1708 C.3     
  36 C36           -3.4048    -5.6435    -1.9844 C.3     
  37 O37            9.7034     9.4723    -0.6281 O.3     
  38 C38           10.3479     8.3872     0.0422 C.3     
  39 O39            8.3650    11.4890    -1.9227 O.3     
  40 C40            7.6157    12.5003    -2.5996 C.3     
  41 H41           -0.8082     1.3850     0.7758 H       
  42 H42            1.7472    -2.0189     0.3668 H       
  43 H43            3.7011    -0.5322     0.2019 H       
  44 H44            1.1461     2.8716     0.6151 H       
  45 H45            4.5210     1.8142     0.6352 H       
  46 H46            0.8281     5.5546    -2.1110 H       
  47 H47            1.9783     6.7752    -2.2101 H       
  48 H48            0.0762    -2.8521    -0.4008 H       
  49 H49            0.3698    -2.8902     1.3548 H       
  50 H50           -1.3020    -4.6037     0.6648 H       
  51 H51           -2.0156    -3.3918     1.7564 H       
  52 H52           -3.7284    -1.5922    -0.9347 H       
  53 H53           -3.4348    -1.6303     0.8209 H       
  54 H54           -2.0566     0.1213    -0.2447 H       
  55 H55           -1.3431    -1.0906    -1.3364 H       
  56 H56            3.8694     9.4954    -2.6664 H       
  57 H57           -4.2292    -4.0174     0.8208 H       
  58 H58            5.9090    10.9569    -2.5583 H       
  59 H59            8.3323     7.3130    -0.2155 H       
  60 H60           -2.4091    -5.9128     0.0487 H       
  61 H61           -5.7470    -3.5412    -0.8508 H       
  62 H62           -4.4112    -2.9790    -1.9025 H       
  63 H63           -5.2802    -5.0103    -3.1156 H       
  64 H64           -4.3716    -7.4918    -0.0433 H       
  65 H65           -4.9991    -6.1175     0.9179 H       
  66 H66           -6.5150    -5.6410    -0.7528 H       
  67 H67           -5.8875    -7.0153    -1.7141 H       
  68 H68           -2.6850    -4.9664    -2.4444 H       
  69 H69           -3.3044    -6.6598    -2.3654 H       
  70 H70            9.8087     8.1559     0.9608 H       
  71 H71           10.3531     7.5112    -0.6064 H       
  72 H72           11.3734     8.6668     0.2834 H       
  73 H73            6.7445    12.7682    -2.0019 H       
  74 H74            8.2418    13.3807    -2.7443 H       
  75 H75            7.2894    12.1232    -3.5688 H       
@<TRIPOS>BOND
   1    1    2 ar
   2    1    6 ar
   3    1   41 1
   4    2    3 ar
   5    2   15 1
   6    3    4 ar
   7    3   42 1
   8    4    5 ar
   9    4   43 1
  10    5    6 ar
  11    5    7 1
  12    6   44 1
  13    7    8 1
  14    7   45 1
  15    8    9 2
  16    8   10 1
  17    9   12 1
  18   10   11 2
  19   11   12 1
  20   11   14 1
  21   12   13 1
  22   13   21 ar
  23   13   25 ar
  24   14   46 1
  25   14   47 1
  26   15   16 1
  27   15   20 1
  28   16   17 1
  29   16   48 1
  30   16   49 1
  31   17   18 1
  32   17   50 1
  33   17   51 1
  34   18   19 1
  35   18   26 1
  36   19   20 1
  37   19   52 1
  38   19   53 1
  39   20   54 1
  40   20   55 1
  41   21   22 ar
  42   22   23 ar
  43   22   56 1
  44   23   24 ar
  45   23   27 ar
  46   24   25 ar
  47   24   30 ar
  48   26   31 1
  49   26   32 1
  50   26   57 1
  51   27   28 ar
  52   27   58 1
  53   28   29 ar
  54   28   39 1
  55   29   30 ar
  56   29   37 1
  57   30   59 1
  58   31   34 1
  59   31   36 1
  60   31   60 1
  61   32   33 1
  62   32   61 1
  63   32   62 1
  64   33   35 1
  65   33   36 1
  66   33   63 1
  67   34   35 1
  68   34   64 1
  69   34   65 1
  70   35   66 1
  71   35   67 1
  72   36   68 1
  73   36   69 1
  74   37   38 1
  75   38   70 1
  76   38   71 1
  77   38   72 1
  78   39   40 1
  79   40   73 1
  80   40   74 1
  81   40   75 1

#	End of record

