#	Name: ASD10160508
#	Creating user name:	WinNT
#	Creation time:	15. 06. 2019 21:26

#	Modifying user name:	WinNT
#	Modification time:	15. 06. 2019 21:26

#	Program:	/corina/corina34_cracker 3.40 0067  02.08.2006

@<TRIPOS>MOLECULE
ASD10160508
  22   23    0    0    0
SMALL
NO_CHARGES


@<TRIPOS>ATOM
   1 C1            -0.0167     1.3833     0.0096 C.ar    
   2 C2             0.0021    -0.0041     0.0020 C.ar    
   3 C3             1.2270    -0.6629    -0.0132 C.ar    
   4 C4             2.3845     0.0990    -0.0201 C.ar    
   5 C5             2.2850     1.4775    -0.0118 C.ar    
   6 N6             1.1076     2.0712     0.0026 N.ar    
   7 O7            -1.1598    -0.7092     0.0097 O.3     
   8 C8            -1.0538    -2.1343     0.0011 C.3     
   9 F9            -0.3503    -2.5565     1.1342 F       
  10 F10           -2.3346    -2.6972     0.0107 F       
  11 F11           -0.3729    -2.5443    -1.1502 F       
  12 C12           -1.3363     2.1111     0.0198 C.3     
  13 C13           -1.6216     3.0401     1.2016 C.3     
  14 C14           -1.3077     3.6283    -0.1755 C.3     
  15 H15            1.2749    -1.7418    -0.0191 H       
  16 H16            3.3530    -0.3787    -0.0316 H       
  17 H17            3.1837     2.0766    -0.0168 H       
  18 H18           -2.1780     1.5644    -0.4052 H       
  19 H19           -2.6511     3.1048     1.5537 H       
  20 H20           -0.8549     3.1248     1.9717 H       
  21 H21           -0.3345     4.1001    -0.3114 H       
  22 H22           -2.1308     4.0801    -0.7293 H       
@<TRIPOS>BOND
   1    1    2 ar
   2    1    6 ar
   3    1   12 1
   4    2    3 ar
   5    2    7 1
   6    3    4 ar
   7    3   15 1
   8    4    5 ar
   9    4   16 1
  10    5    6 ar
  11    5   17 1
  12    7    8 1
  13    8    9 1
  14    8   10 1
  15    8   11 1
  16   12   13 1
  17   12   14 1
  18   12   18 1
  19   13   14 1
  20   13   19 1
  21   13   20 1
  22   14   21 1
  23   14   22 1

#	End of record

