#	Name: ASD10420069
#	Creating user name:	WinNT
#	Creation time:	15. 06. 2019 21:27

#	Modifying user name:	WinNT
#	Modification time:	15. 06. 2019 21:27

#	Program:	/corina/corina34_cracker 3.40 0067  02.08.2006

@<TRIPOS>MOLECULE
ASD10420069
  53   56    0    0    0
SMALL
NO_CHARGES


@<TRIPOS>ATOM
   1 C1             1.2528     2.7111     0.7331 C.2     
   2 C2             1.8625     1.4527     0.6365 C.2     
   3 C3             3.1605     1.2964     1.1136 C.2     
   4 C4             3.8296     2.4033     1.6809 C.2     
   5 N5             3.2460     3.5661     1.7620 N.2     
   6 N6             1.9404     3.7574     1.2913 N.pl3   
   7 C7            -0.0201     3.1762     0.3559 C.2     
   8 C8            -0.0795     4.5269     0.6941 C.2     
   9 C9             1.1359     4.8684     1.2701 C.2     
  10 C10            1.4982     6.1928     1.7739 C.2     
  11 O11            0.6718     7.0855     1.7874 O.2     
  12 O12            2.7490     6.4245     2.2239 O.3     
  13 C13           -1.0946     2.3805    -0.2811 C.ar    
  14 C14           -1.8502     1.4884     0.4798 C.ar    
  15 C15           -2.8502     0.7502    -0.1193 C.ar    
  16 C16           -3.1042     0.8936    -1.4717 C.ar    
  17 C17           -2.3582     1.7768    -2.2317 C.ar    
  18 C18           -1.3590     2.5245    -1.6431 C.ar    
  19 C19           -1.2525     5.4480     0.4783 C.3     
  20 C20           -1.2024     6.0061    -0.9206 C.ar    
  21 C21           -2.2347     5.7510    -1.8036 C.ar    
  22 C22           -2.1886     6.2642    -3.0885 C.ar    
  23 C23           -1.1079     7.0327    -3.4876 C.ar    
  24 C24           -0.0770     7.2863    -2.6032 C.ar    
  25 C25           -0.1267     6.7776    -1.3185 C.ar    
  26 C26           -3.4098     4.9142    -1.3679 C.3     
  27 F27           -3.1968     6.0152    -3.9526 F       
  28 C28            3.8312    -0.0136     1.0281 C.2     
  29 O29            3.2507    -0.9627     0.5394 O.2     
  30 O30            5.0884    -0.1586     1.4918 O.3     
  31 C31            5.6862    -1.4766     1.3749 C.3     
  32 C32            7.1036    -1.4466     1.9501 C.3     
  33 Cl33           1.0128     0.1116    -0.0657 Cl      
  34 H34            4.8368     2.2848     2.0522 H       
  35 H35            2.8935     7.3282     2.5364 H       
  36 H36           -1.6527     1.3753     1.5356 H       
  37 H37           -3.4357     0.0589     0.4686 H       
  38 H38           -3.8878     0.3134    -1.9362 H       
  39 H39           -2.5609     1.8841    -3.2871 H       
  40 H40           -0.7801     3.2166    -2.2365 H       
  41 H41           -2.1805     4.8927     0.6149 H       
  42 H42           -1.2094     6.2659     1.1976 H       
  43 H43           -1.0706     7.4333    -4.4899 H       
  44 H44            0.7659     7.8856    -2.9142 H       
  45 H45            0.6773     6.9801    -0.6264 H       
  46 H46           -4.1571     5.5537    -0.8981 H       
  47 H47           -3.8472     4.4219    -2.2365 H       
  48 H48           -3.0751     4.1616    -0.6540 H       
  49 H49            5.0850    -2.1986     1.9276 H       
  50 H50            5.7263    -1.7655     0.3247 H       
  51 H51            7.0635    -1.1577     3.0004 H       
  52 H52            7.5524    -2.4360     1.8624 H       
  53 H53            7.7048    -0.7246     1.3974 H       
@<TRIPOS>BOND
   1    1    2 1
   2    1    6 1
   3    1    7 2
   4    2    3 2
   5    2   33 1
   6    3    4 1
   7    3   28 1
   8    4    5 2
   9    4   34 1
  10    5    6 1
  11    6    9 1
  12    7    8 1
  13    7   13 1
  14    8    9 2
  15    8   19 1
  16    9   10 1
  17   10   11 2
  18   10   12 1
  19   12   35 1
  20   13   14 ar
  21   13   18 ar
  22   14   15 ar
  23   14   36 1
  24   15   16 ar
  25   15   37 1
  26   16   17 ar
  27   16   38 1
  28   17   18 ar
  29   17   39 1
  30   18   40 1
  31   19   20 1
  32   19   41 1
  33   19   42 1
  34   20   21 ar
  35   20   25 ar
  36   21   22 ar
  37   21   26 1
  38   22   23 ar
  39   22   27 1
  40   23   24 ar
  41   23   43 1
  42   24   25 ar
  43   24   44 1
  44   25   45 1
  45   26   46 1
  46   26   47 1
  47   26   48 1
  48   28   29 2
  49   28   30 1
  50   30   31 1
  51   31   32 1
  52   31   49 1
  53   31   50 1
  54   32   51 1
  55   32   52 1
  56   32   53 1

#	End of record

