#	Name: ASD15280014
#	Creating user name:	WinNT
#	Creation time:	15. 06. 2019 21:31

#	Modifying user name:	WinNT
#	Modification time:	15. 06. 2019 21:31

#	Program:	/corina/corina34_cracker 3.40 0067  02.08.2006

@<TRIPOS>MOLECULE
ASD15280014
  61   65    0    0    0
SMALL
NO_CHARGES


@<TRIPOS>ATOM
   1 C1            -0.0173     1.4248     0.0099 C.3     
   2 O2             0.0021    -0.0041     0.0020 O.3     
   3 C3             0.6258    -0.6184     1.0415 C.ar    
   4 C4             1.2022     0.1384     2.0513 C.ar    
   5 C5             1.8353    -0.4884     3.1070 C.ar    
   6 C6             1.8951    -1.8688     3.1577 C.ar    
   7 C7             2.5867    -2.5500     4.3104 C.3     
   8 C8             1.5923    -2.8038     5.4139 C.ar    
   9 C9             1.3889    -1.8503     6.3935 C.ar    
  10 C10            0.4765    -2.0830     7.4059 C.ar    
  11 C11           -0.2325    -3.2691     7.4381 C.ar    
  12 C12           -0.0297    -4.2225     6.4576 C.ar    
  13 C13           -0.8023    -5.5158     6.4929 C.3     
  14 N14           -2.0492    -5.3605     5.7397 N.am    
  15 C15           -2.9063    -6.3953     5.6344 C.2     
  16 O16           -2.6447    -7.4574     6.1644 O.2     
  17 C17           -4.1647    -6.2385     4.8741 C.ar    
  18 C18           -4.4632    -5.0209     4.2603 C.ar    
  19 C19           -5.6370    -4.8859     3.5475 C.ar    
  20 C20           -6.5174    -5.9459     3.4446 C.ar    
  21 C21           -6.2414    -7.1613     4.0567 C.ar    
  22 N22           -7.1145    -8.2316     3.9923 N.am    
  23 C23           -7.7788    -8.7450     2.9923 C.2     
  24 O24           -8.4527    -9.7194     3.2645 O.2     
  25 C25           -7.8329    -8.3211     1.5920 C.ar    
  26 C26           -7.7718    -9.2811     0.5744 C.ar    
  27 C27           -7.8284    -8.8934    -0.7467 C.ar    
  28 C28           -7.9468    -7.5557    -1.0786 C.ar    
  29 C29           -8.0062    -6.5976    -0.0808 C.ar    
  30 C30           -7.9467    -6.9744     1.2421 C.ar    
  31 S31           -8.0057    -5.7545     2.5148 S.o2    
  32 O32           -9.0727    -6.1220     3.3784 O.2     
  33 O33           -7.9203    -4.4915     1.8694 O.2     
  34 C34           -5.0507    -7.3069     4.7648 C.ar    
  35 C35            0.8793    -3.9880     5.4431 C.ar    
  36 C36            1.3210    -2.6254     2.1528 C.ar    
  37 C37            0.6822    -2.0034     1.0976 C.ar    
  38 H38            1.0053     1.8021     0.0021 H       
  39 H39           -0.5445     1.7859    -0.8732 H       
  40 H40           -0.5275     1.7763     0.9067 H       
  41 H41            1.1564     1.2167     2.0118 H       
  42 H42            2.2842     0.1003     3.8934 H       
  43 H43            3.0056    -3.4983     3.9736 H       
  44 H44            3.3874    -1.9109     4.6827 H       
  45 H45            1.9428    -0.9235     6.3684 H       
  46 H46            0.3181    -1.3383     8.1718 H       
  47 H47           -0.9446    -3.4512     8.2293 H       
  48 H48           -0.2037    -6.3090     6.0451 H       
  49 H49           -1.0321    -5.7737     7.5268 H       
  50 H50           -2.2579    -4.5129     5.3167 H       
  51 H51           -3.7794    -4.1891     4.3431 H       
  52 H52           -5.8690    -3.9466     3.0677 H       
  53 H53           -7.2588    -8.6807     4.8400 H       
  54 H54           -7.6798   -10.3275     0.8255 H       
  55 H55           -7.7796    -9.6381    -1.5275 H       
  56 H56           -7.9927    -7.2586    -2.1159 H       
  57 H57           -8.0985    -5.5534    -0.3406 H       
  58 H58           -4.8160    -8.2507     5.2346 H       
  59 H59            1.0350    -4.7311     4.6751 H       
  60 H60            1.3687    -3.7035     2.1948 H       
  61 H61            0.2307    -2.5948     0.3148 H       
@<TRIPOS>BOND
   1    1    2 1
   2    1   38 1
   3    1   39 1
   4    1   40 1
   5    2    3 1
   6    3   37 ar
   7    3    4 ar
   8    4    5 ar
   9    4   41 1
  10    5    6 ar
  11    5   42 1
  12    6    7 1
  13    6   36 ar
  14    7    8 1
  15    7   43 1
  16    7   44 1
  17    8   35 ar
  18    8    9 ar
  19    9   10 ar
  20    9   45 1
  21   10   11 ar
  22   10   46 1
  23   11   12 ar
  24   11   47 1
  25   12   13 1
  26   12   35 ar
  27   13   14 1
  28   13   48 1
  29   13   49 1
  30   14   15 am
  31   14   50 1
  32   15   16 2
  33   15   17 1
  34   17   34 ar
  35   17   18 ar
  36   18   19 ar
  37   18   51 1
  38   19   20 ar
  39   19   52 1
  40   20   31 1
  41   20   21 ar
  42   21   22 1
  43   21   34 ar
  44   22   23 am
  45   22   53 1
  46   23   24 2
  47   23   25 1
  48   25   30 ar
  49   25   26 ar
  50   26   27 ar
  51   26   54 1
  52   27   28 ar
  53   27   55 1
  54   28   29 ar
  55   28   56 1
  56   29   30 ar
  57   29   57 1
  58   30   31 1
  59   31   32 2
  60   31   33 2
  61   34   58 1
  62   35   59 1
  63   36   37 ar
  64   36   60 1
  65   37   61 1

#	End of record

