#	Name: ASD10610171
#	Creating user name:	WinNT
#	Creation time:	15. 06. 2019 21:28

#	Modifying user name:	WinNT
#	Modification time:	15. 06. 2019 21:28

#	Program:	/corina/corina34_cracker 3.40 0067  02.08.2006

@<TRIPOS>MOLECULE
ASD10610171
  36   37    0    0    0
SMALL
NO_CHARGES


@<TRIPOS>ATOM
   1 N1            -0.8241     0.3691    -0.0434 N.3     
   2 C2             0.4860    -0.1947    -0.3949 C.3     
   3 C3             0.2910    -1.4099    -1.3040 C.3     
   4 C4             1.2045    -0.6169     0.8607 C.ar    
   5 C5             2.5426    -0.2954     1.0220 C.ar    
   6 C6             3.1979    -0.6860     2.1793 C.ar    
   7 C7             2.4748    -1.3940     3.1431 C.ar    
   8 C8             1.1317    -1.6778     2.9048 C.ar    
   9 N9             0.5489    -1.2819     1.7917 N.ar    
  10 F10            3.2010     0.3905     0.0622 F       
  11 C11            3.1270    -1.8366     4.3998 C.ar    
  12 C12            3.7566    -0.9046     5.2297 C.ar    
  13 C13            4.3639    -1.3264     6.4025 C.ar    
  14 C14            4.3461    -2.6653     6.7490 C.ar    
  15 C15            3.7236    -3.5905     5.9285 C.ar    
  16 C16            3.1096    -3.1818     4.7604 C.ar    
  17 O17            3.7738     0.4105     4.8880 O.3     
  18 C18            2.6969     1.2192     5.3661 C.3     
  19 C19            2.9415     2.6778     4.9742 C.3     
  20 F20            4.1425     3.1179     5.5409 F       
  21 F21            3.0184     2.7797     3.5810 F       
  22 Cl22           3.7078    -5.2685     6.3729 Cl      
  23 Cl23           5.1477    -0.1732     7.4366 Cl      
  24 H24           -0.7259     1.1333     0.6080 H       
  25 H25           -1.3260     0.6599    -0.8690 H       
  26 H26            1.0774     0.5579    -0.9164 H       
  27 H27           -0.3003    -2.1625    -0.7825 H       
  28 H28           -0.2287    -1.1045    -2.2121 H       
  29 H29            1.2631    -1.8282    -1.5648 H       
  30 H30            4.2406    -0.4497     2.3321 H       
  31 H31            0.5617    -2.2242     3.6417 H       
  32 H32            4.8202    -2.9904     7.6633 H       
  33 H33            2.6207    -3.9055     4.1251 H       
  34 H34            1.7612     0.8763     4.9245 H       
  35 H35            2.6371     1.1398     6.4515 H       
  36 H36            2.1201     3.2946     5.3389 H       
@<TRIPOS>BOND
   1    1    2 1
   2    1   24 1
   3    1   25 1
   4    2    3 1
   5    2    4 1
   6    2   26 1
   7    3   27 1
   8    3   28 1
   9    3   29 1
  10    4    5 ar
  11    4    9 ar
  12    5    6 ar
  13    5   10 1
  14    6    7 ar
  15    6   30 1
  16    7    8 ar
  17    7   11 1
  18    8    9 ar
  19    8   31 1
  20   11   12 ar
  21   11   16 ar
  22   12   13 ar
  23   12   17 1
  24   13   14 ar
  25   13   23 1
  26   14   15 ar
  27   14   32 1
  28   15   16 ar
  29   15   22 1
  30   16   33 1
  31   17   18 1
  32   18   19 1
  33   18   34 1
  34   18   35 1
  35   19   20 1
  36   19   21 1
  37   19   36 1

#	End of record

