#	Name: ASD10950022
#	Creating user name:	WinNT
#	Creation time:	15. 06. 2019 21:28

#	Modifying user name:	WinNT
#	Modification time:	15. 06. 2019 21:28

#	Program:	/corina/corina34_cracker 3.40 0067  02.08.2006

@<TRIPOS>MOLECULE
ASD10950022
  59   62    0    0    0
SMALL
NO_CHARGES


@<TRIPOS>ATOM
   1 C1            -0.0187     1.5258     0.0104 C.3     
   2 C2             0.0021    -0.0041     0.0020 C.3     
   3 O3             0.7043    -0.4851     1.1784 O.3     
   4 C4             2.0337    -0.6703     1.0639 C.2     
   5 O5             2.5910    -0.4364     0.0102 O.2     
   6 C6             2.8138    -1.1579     2.2197 C.ar    
   7 C7             4.1919    -1.3509     2.1045 C.ar    
   8 C8             4.9142    -1.8065     3.1878 C.ar    
   9 C9             4.2762    -2.0720     4.3866 C.ar    
  10 C10            2.9109    -1.8829     4.5077 C.ar    
  11 C11            2.1773    -1.4223     3.4341 C.ar    
  12 C12            5.0719    -2.5699     5.5656 C.3     
  13 N13            4.5962    -1.9343     6.7998 N.am    
  14 C14            4.6023    -0.4977     7.0866 C.3     
  15 C15            3.2848     0.1219     6.6162 C.3     
  16 C16            3.2911     1.5997     6.9113 C.2     
  17 C17            2.7747     2.1998     7.9954 C.2     
  18 N18            2.9689     3.5520     7.9170 N.pl3   
  19 C19            3.6318     3.8628     6.7509 C.ar    
  20 C20            3.8676     2.6533     6.0725 C.ar    
  21 C21            4.5321     2.6614     4.8445 C.ar    
  22 C22            4.9504     3.8461     4.3075 C.ar    
  23 C23            4.7205     5.0424     4.9733 C.ar    
  24 C24            4.0699     5.0570     6.1874 C.ar    
  25 C25            4.1530    -2.9031     7.6213 C.2     
  26 O26            3.6899    -2.7200     8.7293 O.2     
  27 C27            4.3122    -4.2247     6.9751 C.2     
  28 C28            4.8590    -4.0548     5.7459 C.2     
  29 C29            5.1700    -5.0717     4.8125 C.2     
  30 O30            4.9475    -6.2336     5.0841 O.2     
  31 C31            5.7777    -4.7122     3.4811 C.3     
  32 O32            3.9672    -5.4115     7.5224 O.3     
  33 C33           -1.4333    -0.5336     0.0129 C.3     
  34 H34            1.0039     1.9031     0.0027 H       
  35 H35           -0.5459     1.8868    -0.8726 H       
  36 H36           -0.5289     1.8773     0.9072 H       
  37 H37            0.5123    -0.3556    -0.8948 H       
  38 H38            4.6910    -1.1444     1.1693 H       
  39 H39            5.9801    -1.9566     3.1000 H       
  40 H40            2.4191    -2.0923     5.4461 H       
  41 H41            1.1117    -1.2750     3.5299 H       
  42 H42            6.1309    -2.3575     5.4190 H       
  43 H43            4.7145    -0.3419     8.1595 H       
  44 H44            5.4333    -0.0260     6.5621 H       
  45 H45            3.1727    -0.0339     5.5433 H       
  46 H46            2.4538    -0.3498     7.1407 H       
  47 H47            2.2789     1.6907     8.8086 H       
  48 H48            2.6820     4.1957     8.5835 H       
  49 H49            4.7150     1.7346     4.3211 H       
  50 H50            5.4643     3.8518     3.3576 H       
  51 H51            5.0576     5.9707     4.5363 H       
  52 H52            3.8958     5.9928     6.6976 H       
  53 H53            5.9025    -3.6312     3.4187 H       
  54 H54            6.7492    -5.1965     3.3824 H       
  55 H55            5.1208    -5.0490     2.6791 H       
  56 H56            3.5894    -5.3404     8.4097 H       
  57 H57           -1.9605    -0.1726    -0.8702 H       
  58 H58           -1.4185    -1.6235     0.0069 H       
  59 H59           -1.9435    -0.1821     0.9097 H       
@<TRIPOS>BOND
   1    1    2 1
   2    1   34 1
   3    1   35 1
   4    1   36 1
   5    2    3 1
   6    2   33 1
   7    2   37 1
   8    3    4 1
   9    4    5 2
  10    4    6 1
  11    6    7 ar
  12    6   11 ar
  13    7    8 ar
  14    7   38 1
  15    8    9 ar
  16    8   39 1
  17    9   10 ar
  18    9   12 1
  19   10   11 ar
  20   10   40 1
  21   11   41 1
  22   12   13 1
  23   12   28 1
  24   12   42 1
  25   13   14 1
  26   13   25 am
  27   14   15 1
  28   14   43 1
  29   14   44 1
  30   15   16 1
  31   15   45 1
  32   15   46 1
  33   16   17 2
  34   16   20 1
  35   17   18 1
  36   17   47 1
  37   18   19 1
  38   18   48 1
  39   19   20 ar
  40   19   24 ar
  41   20   21 ar
  42   21   22 ar
  43   21   49 1
  44   22   23 ar
  45   22   50 1
  46   23   24 ar
  47   23   51 1
  48   24   52 1
  49   25   26 2
  50   25   27 1
  51   27   28 2
  52   27   32 1
  53   28   29 1
  54   29   30 2
  55   29   31 1
  56   31   53 1
  57   31   54 1
  58   31   55 1
  59   32   56 1
  60   33   57 1
  61   33   58 1
  62   33   59 1

#	End of record

