#	Name: ASD11030021
#	Creating user name:	WinNT
#	Creation time:	15. 06. 2019 21:29

#	Modifying user name:	WinNT
#	Modification time:	15. 06. 2019 21:29

#	Program:	/corina/corina34_cracker 3.40 0067  02.08.2006

@<TRIPOS>MOLECULE
ASD11030021
  37   40    0    0    0
SMALL
NO_CHARGES


@<TRIPOS>ATOM
   1 Cl1            0.0021    -0.0041     0.0020 Cl      
   2 C2            -0.0215     1.7317     0.0116 C.ar    
   3 C3             1.1700     2.4376     0.0040 C.ar    
   4 C4             1.1578     3.8167     0.0115 C.ar    
   5 C5            -0.0590     4.5012     0.0268 C.ar    
   6 C6            -1.2569     3.7839     0.0344 C.ar    
   7 C7            -1.2316     2.4049     0.0210 C.ar    
   8 C8            -0.0791     5.9785     0.0354 C.2     
   9 N9             0.9648     6.7595     0.0296 N.2     
  10 N10            0.7666     8.0049     0.0382 N.2     
  11 C11           -0.4766     8.4199     0.0524 C.2     
  12 S12           -1.5201     6.9968     0.0476 S.3     
  13 N13           -0.8879     9.7132     0.0637 N.2     
  14 C14           -0.0003    10.6868     0.0604 C.2     
  15 S15           -0.3384    12.4263     0.0740 S.3     
  16 C16            1.3690    12.9078     0.0595 C.2     
  17 C17            1.8776    14.1664     0.0621 C.2     
  18 C18            0.9736    15.3235     0.0781 C.ar    
  19 C19            1.1622    16.3530     1.0105 C.ar    
  20 F20            2.1777    16.2852     1.8990 F       
  21 C21            0.3063    17.4375     1.0174 C.ar    
  22 C22           -0.7340    17.5084     0.1084 C.ar    
  23 C23           -0.9277    16.4958    -0.8156 C.ar    
  24 C24           -0.0793    15.4082    -0.8423 C.ar    
  25 Cl25          -0.3254    14.1404    -2.0024 Cl      
  26 C26            2.1077    11.6410     0.0445 C.2     
  27 O27            3.3240    11.5961     0.0323 O.2     
  28 N28            1.3590    10.5509     0.0517 N.am    
  29 H29            2.1106     1.9070    -0.0075 H       
  30 H30            2.0876     4.3661     0.0059 H       
  31 H31           -2.2012     4.3077     0.0462 H       
  32 H32           -2.1575     1.8489     0.0265 H       
  33 H33            2.9470    14.3167     0.0524 H       
  34 H34            0.4495    18.2319     1.7349 H       
  35 H35           -1.3995    18.3589     0.1197 H       
  36 H36           -1.7430    16.5596    -1.5209 H       
  37 H37            1.7674     9.6711     0.0431 H       
@<TRIPOS>BOND
   1    1    2 1
   2    2    3 ar
   3    2    7 ar
   4    3    4 ar
   5    3   29 1
   6    4    5 ar
   7    4   30 1
   8    5    6 ar
   9    5    8 1
  10    6    7 ar
  11    6   31 1
  12    7   32 1
  13    8    9 2
  14    8   12 1
  15    9   10 1
  16   10   11 2
  17   11   12 1
  18   11   13 1
  19   13   14 2
  20   14   15 1
  21   14   28 1
  22   15   16 1
  23   16   17 2
  24   16   26 1
  25   17   18 1
  26   17   33 1
  27   18   19 ar
  28   18   24 ar
  29   19   20 1
  30   19   21 ar
  31   21   22 ar
  32   21   34 1
  33   22   23 ar
  34   22   35 1
  35   23   24 ar
  36   23   36 1
  37   24   25 1
  38   26   27 2
  39   26   28 am
  40   28   37 1

#	End of record

