#	Name: ASD10410227
#	Creating user name:	WinNT
#	Creation time:	15. 06. 2019 21:27

#	Modifying user name:	WinNT
#	Modification time:	15. 06. 2019 21:27

#	Program:	/corina/corina34_cracker 3.40 0067  02.08.2006

@<TRIPOS>MOLECULE
ASD10410227
  50   53    0    0    0
SMALL
NO_CHARGES


@<TRIPOS>ATOM
   1 C1            -0.0183     1.3914    -0.0807 C.ar    
   2 C2            -0.0057     0.0094     0.0245 C.ar    
   3 C3             1.2029    -0.6699     0.1150 C.ar    
   4 C4             2.3931     0.0329     0.1000 C.ar    
   5 C5             2.3796     1.4178    -0.0054 C.ar    
   6 C6             1.1709     2.0949    -0.0957 C.ar    
   7 O7            -1.1773    -0.6821     0.0396 O.3     
   8 F8             1.2147    -2.0169     0.2179 F       
   9 N9             3.5841     2.1307    -0.0202 N.pl3   
  10 C10            3.6696     3.3415    -0.7074 C.2     
  11 N11            4.7067     4.1443    -0.7095 N.2     
  12 N12            2.7087     3.8685    -1.4754 N.2     
  13 C13            3.1182     5.0160    -1.9723 C.2     
  14 N14            4.3746     5.2408    -1.5212 N.pl3   
  15 C15            5.1808     6.3448    -1.8067 C.ar    
  16 N16            2.3949     5.8437    -2.8098 N.pl3   
  17 C17            6.1843     6.7124    -0.9185 C.ar    
  18 C18           -2.3820     0.0805    -0.0566 C.3     
  19 C19           -3.5864    -0.8625    -0.0234 C.3     
  20 N20           -3.6512    -1.5282     1.2844 N.3     
  21 C21           -4.9219    -2.2591     1.4429 C.3     
  22 C22           -4.5683    -3.7310     1.7428 C.3     
  23 C23           -3.1232    -3.6369     2.2991 C.3     
  24 C24           -2.5350    -2.4836     1.4486 C.3     
  25 N25            4.9854     7.0281    -2.9235 N.ar    
  26 C26            5.7239     8.0765    -3.2312 C.ar    
  27 C27            6.7354     8.5015    -2.3918 C.ar    
  28 C28            6.9762     7.8087    -1.2136 C.ar    
  29 H29           -0.9581     1.9183    -0.1555 H       
  30 H30            3.3330    -0.4945     0.1707 H       
  31 H31            1.1601     3.1717    -0.1781 H       
  32 H32            4.3594     1.7826     0.4475 H       
  33 H33            1.4977     5.5944    -3.0816 H       
  34 H34            2.7843     6.6739    -3.1260 H       
  35 H35            6.3439     6.1505    -0.0101 H       
  36 H36           -2.4406     0.7744     0.7819 H       
  37 H37           -2.3841     0.6399    -0.9921 H       
  38 H38           -4.5001    -0.2906    -0.1858 H       
  39 H39           -3.4827    -1.6120    -0.8079 H       
  40 H40           -5.4910    -1.8382     2.2718 H       
  41 H41           -5.5025    -2.1974     0.5224 H       
  42 H42           -5.2435    -4.1446     2.4919 H       
  43 H43           -4.5920    -4.3267     0.8303 H       
  44 H44           -3.1284    -3.3779     3.3579 H       
  45 H45           -2.5779    -4.5652     2.1285 H       
  46 H46           -2.2086    -2.8563     0.4777 H       
  47 H47           -1.7047    -2.0106     1.9730 H       
  48 H48            5.5357     8.6095    -4.1515 H       
  49 H49            7.3355     9.3609    -2.6519 H       
  50 H50            7.7607     8.1206    -0.5400 H       
@<TRIPOS>BOND
   1    1    2 ar
   2    1    6 ar
   3    1   29 1
   4    2    3 ar
   5    2    7 1
   6    3    4 ar
   7    3    8 1
   8    4    5 ar
   9    4   30 1
  10    5    6 ar
  11    5    9 1
  12    6   31 1
  13    7   18 1
  14    9   10 1
  15    9   32 1
  16   10   11 2
  17   10   12 1
  18   11   14 1
  19   12   13 2
  20   13   14 1
  21   13   16 1
  22   14   15 1
  23   15   17 ar
  24   15   25 ar
  25   16   33 1
  26   16   34 1
  27   17   28 ar
  28   17   35 1
  29   18   19 1
  30   18   36 1
  31   18   37 1
  32   19   20 1
  33   19   38 1
  34   19   39 1
  35   20   21 1
  36   20   24 1
  37   21   22 1
  38   21   40 1
  39   21   41 1
  40   22   23 1
  41   22   42 1
  42   22   43 1
  43   23   24 1
  44   23   44 1
  45   23   45 1
  46   24   46 1
  47   24   47 1
  48   25   26 ar
  49   26   27 ar
  50   26   48 1
  51   27   28 ar
  52   27   49 1
  53   28   50 1

#	End of record

