#	Name: ASD11630002
#	Creating user name:	WinNT
#	Creation time:	15. 06. 2019 21:29

#	Modifying user name:	WinNT
#	Modification time:	15. 06. 2019 21:29

#	Program:	/corina/corina34_cracker 3.40 0067  02.08.2006

@<TRIPOS>MOLECULE
ASD11630002
  60   64    0    0    0
SMALL
NO_CHARGES


@<TRIPOS>ATOM
   1 C1             5.4873     1.3840     4.1471 C.3     
   2 C2             5.1740    -0.1087     4.2730 C.3     
   3 C3             5.1533    -0.7415     2.8781 C.3     
   4 N4             4.2094     0.0042     2.0345 N.am    
   5 C5             4.3654     1.4604     1.9166 C.3     
   6 C6             4.3949     2.0685     3.3223 C.3     
   7 C7             3.2194    -0.6355     1.3808 C.2     
   8 C8             3.1471    -2.1103     1.4110 C.ar    
   9 O9             2.3859     0.0015     0.7664 O.2     
  10 N10            4.6798     3.5065     3.2285 N.3     
  11 C11            4.3102    -2.8632     1.2947 C.ar    
  12 C12            4.2390    -4.2579     1.3240 C.ar    
  13 C13            2.9897    -4.8873     1.4711 C.ar    
  14 C14            1.8294    -4.1221     1.5866 C.ar    
  15 C15            1.9070    -2.7455     1.5626 C.ar    
  16 N16            5.1735    -5.2360     1.2367 N.2     
  17 C17            4.5912    -6.4093     1.3191 C.2     
  18 N18            3.2382    -6.2447     1.4652 N.pl3   
  19 C19            2.2417    -7.3112     1.5914 C.3     
  20 C20            5.2861    -7.7063     1.2628 C.2     
  21 C21            5.2176    -8.6752     2.2130 C.2     
  22 C22            6.0538    -9.7786     1.7511 C.ar    
  23 C23            6.5883    -9.3833     0.5080 C.ar    
  24 N24            6.1024    -8.1283     0.2347 N.pl3   
  25 C25            6.3842   -11.0343     2.2733 C.ar    
  26 C26            7.2304   -11.8413     1.5379 C.ar    
  27 C27            7.7190   -11.3872     0.3218 C.ar    
  28 N28            7.3970   -10.2025    -0.1521 N.ar    
  29 C29            6.4136    -7.3490    -0.9662 C.3     
  30 C30            5.3226    -7.5719    -2.0155 C.3     
  31 O31            0.6230    -4.7330     1.7287 O.3     
  32 C32           -0.5232    -3.8872     1.8413 C.3     
  33 H33            5.5269     1.8318     5.1401 H       
  34 H34            6.4500     1.5125     3.6524 H       
  35 H35            5.9399    -0.5912     4.8801 H       
  36 H36            4.2001    -0.2374     4.7454 H       
  37 H37            6.1505    -0.6941     2.4405 H       
  38 H38            4.8340    -1.7809     2.9531 H       
  39 H39            5.2983     1.6873     1.4006 H       
  40 H40            3.5261     1.8737     1.3572 H       
  41 H41            3.4283     1.9193     3.8036 H       
  42 H42            3.9733     3.9805     2.6860 H       
  43 H43            4.7682     3.9182     4.1455 H       
  44 H44            5.2652    -2.3715     1.1817 H       
  45 H45            1.0075    -2.1545     1.6525 H       
  46 H46            2.0397    -7.4966     2.6463 H       
  47 H47            1.3209    -7.0088     1.0927 H       
  48 H48            2.6233    -8.2215     1.1290 H       
  49 H49            4.6533    -8.6362     3.1330 H       
  50 H50            5.9895   -11.3626     3.2234 H       
  51 H51            7.5094   -12.8172     1.9069 H       
  52 H52            8.3806   -12.0211    -0.2499 H       
  53 H53            6.4608    -6.2906    -0.7104 H       
  54 H54            7.3750    -7.6690    -1.3680 H       
  55 H55            5.3340    -8.6137    -2.3359 H       
  56 H56            4.3500    -7.3349    -1.5844 H       
  57 H57            5.5067    -6.9258    -2.8739 H       
  58 H58           -0.4158    -3.2441     2.7149 H       
  59 H59           -0.6102    -3.2719     0.9458 H       
  60 H60           -1.4180    -4.5003     1.9492 H       
@<TRIPOS>BOND
   1    1    2 1
   2    1    6 1
   3    1   33 1
   4    1   34 1
   5    2    3 1
   6    2   35 1
   7    2   36 1
   8    3    4 1
   9    3   37 1
  10    3   38 1
  11    4    5 1
  12    4    7 am
  13    5    6 1
  14    5   39 1
  15    5   40 1
  16    6   10 1
  17    6   41 1
  18    7    8 1
  19    7    9 2
  20    8   11 ar
  21    8   15 ar
  22   10   42 1
  23   10   43 1
  24   11   12 ar
  25   11   44 1
  26   12   13 ar
  27   12   16 1
  28   13   14 ar
  29   13   18 1
  30   14   15 ar
  31   14   31 1
  32   15   45 1
  33   16   17 2
  34   17   18 1
  35   17   20 1
  36   18   19 1
  37   19   46 1
  38   19   47 1
  39   19   48 1
  40   20   21 2
  41   20   24 1
  42   21   22 1
  43   21   49 1
  44   22   23 ar
  45   22   25 ar
  46   23   24 1
  47   23   28 ar
  48   24   29 1
  49   25   26 ar
  50   25   50 1
  51   26   27 ar
  52   26   51 1
  53   27   28 ar
  54   27   52 1
  55   29   30 1
  56   29   53 1
  57   29   54 1
  58   30   55 1
  59   30   56 1
  60   30   57 1
  61   31   32 1
  62   32   58 1
  63   32   59 1
  64   32   60 1

#	End of record

