#	Name: ASD17020001
#	Creating user name:	WinNT
#	Creation time:	15. 06. 2019 21:31

#	Modifying user name:	WinNT
#	Modification time:	15. 06. 2019 21:31

#	Program:	/corina/corina34_cracker 3.40 0067  02.08.2006

@<TRIPOS>MOLECULE
ASD17020001
  71   75    0    0    0
SMALL
NO_CHARGES


@<TRIPOS>ATOM
   1 P1            -0.0198     1.6058     0.0109 P.3     
   2 O2             0.0021    -0.0041     0.0020 O.3     
   3 O3            -0.7125     2.0831     1.2285 O.2     
   4 O4            -0.7984     2.1391    -1.2935 O.3     
   5 C5            -2.1895     1.9034    -1.5201 C.3     
   6 C6            -2.6060     2.5435    -2.8458 C.3     
   7 O7            -1.9583     1.8704    -3.9384 O.3     
   8 C8            -4.1257     2.3881    -3.0483 C.3     
   9 O9            -4.7499     3.6692    -3.1533 O.3     
  10 C10           -4.2534     1.6120    -4.3817 C.3     
  11 O11           -5.3200     2.1351    -5.1760 O.3     
  12 C12           -2.8811     1.8844    -5.0487 C.3     
  13 N13           -2.5531     0.8247    -6.0055 N.pl3   
  14 C14           -1.7920    -0.2787    -5.7575 C.2     
  15 N15           -1.7054    -1.0094    -6.8310 N.2     
  16 C16           -2.4034    -0.4230    -7.8330 C.ar    
  17 C17           -2.6607    -0.7430    -9.1772 C.ar    
  18 N18           -2.1440    -1.8958    -9.7420 N.pl3   
  19 N19           -3.4122     0.0870    -9.8929 N.ar    
  20 C20           -3.9099     1.1892    -9.3621 C.ar    
  21 N21           -3.6954     1.5290    -8.1087 N.ar    
  22 C22           -2.9605     0.7576    -7.3139 C.ar    
  23 O23            1.4907     2.1630    -0.0006 O.3     
  24 P24            2.6543     2.2629     1.1076 P.3     
  25 O25            2.3311     3.4091     2.0919 O.co2   
  26 O26            2.7439     0.9290     1.8820 O.co2   
  27 O27            4.0614     2.5584     0.3831 O.3     
  28 C28            5.3051     2.5997     1.0858 C.3     
  29 C29            6.4369     2.9030     0.1020 C.3     
  30 O30            6.2882     4.2303    -0.4155 O.3     
  31 C31            7.7962     2.8359     0.8306 C.3     
  32 O32            8.4544     1.5954     0.5662 O.3     
  33 C33            8.5716     4.0202     0.1915 C.3     
  34 O34            9.1781     3.6323    -1.0428 O.3     
  35 C35            7.4215     5.0313    -0.0448 C.3     
  36 N36            7.7695     5.9528    -1.1292 N.ar    
  37 C37            8.2541     7.1400    -0.8290 C.ar    
  38 C38            8.5956     8.0425    -1.8368 C.ar    
  39 C39            9.1396     9.3751    -1.4996 C.2     
  40 O40            9.2929     9.6925    -0.3363 O.2     
  41 N41            9.4657    10.2381    -2.4821 N.am    
  42 C42            8.4147     7.6646    -3.1729 C.ar    
  43 C43            7.9027     6.4062    -3.4348 C.ar    
  44 C44            7.5934     5.5677    -2.3787 C.ar    
  45 H45            0.4417    -0.3872    -0.7693 H       
  46 H46           -2.3742     0.8299    -1.5611 H       
  47 H47           -2.7693     2.3409    -0.7074 H       
  48 H48           -2.3355     3.5995    -2.8484 H       
  49 H49           -4.5629     1.8155    -2.2303 H       
  50 H50           -5.7076     3.6308    -3.2819 H       
  51 H51           -4.3928     0.5464    -4.1998 H       
  52 H52           -6.1900     2.0687    -4.7591 H       
  53 H53           -2.8786     2.8586    -5.5376 H       
  54 H54           -1.3289    -0.5120    -4.8101 H       
  55 H55           -1.5971    -2.4939    -9.2091 H       
  56 H56           -2.3287    -2.1057   -10.6709 H       
  57 H57           -4.5115     1.8384    -9.9809 H       
  58 H58            5.2667     3.3790     1.8469 H       
  59 H59            5.4858     1.6357     1.5615 H       
  60 H60            6.4184     2.1830    -0.7161 H       
  61 H61            7.6693     2.9849     1.9029 H       
  62 H62            9.3129     1.5049     1.0018 H       
  63 H63            9.3133     4.4222     0.8817 H       
  64 H64            9.8292     2.9228    -0.9553 H       
  65 H65            7.2105     5.5849     0.8701 H       
  66 H66            8.3881     7.4174     0.2061 H       
  67 H67            9.3435     9.9849    -3.4105 H       
  68 H68            9.8227    11.1125    -2.2609 H       
  69 H69            8.6680     8.3381    -3.9782 H       
  70 H70            7.7493     6.0806    -4.4531 H       
  71 H71            7.1975     4.5833    -2.5803 H       
@<TRIPOS>BOND
   1    1    2 1
   2    1   23 1
   3    1    3 2
   4    1    4 1
   5    2   45 1
   6    4    5 1
   7    5   46 1
   8    5   47 1
   9    5    6 1
  10    6    7 1
  11    6   48 1
  12    6    8 1
  13    7   12 1
  14    8   10 1
  15    8   49 1
  16    8    9 1
  17    9   50 1
  18   10   51 1
  19   10   12 1
  20   10   11 1
  21   11   52 1
  22   12   13 1
  23   12   53 1
  24   13   14 1
  25   13   22 1
  26   14   15 2
  27   14   54 1
  28   15   16 1
  29   16   17 ar
  30   16   22 ar
  31   17   18 1
  32   17   19 ar
  33   18   55 1
  34   18   56 1
  35   19   20 ar
  36   20   21 ar
  37   20   57 1
  38   21   22 ar
  39   23   24 1
  40   24   25 ar
  41   24   27 1
  42   24   26 ar
  43   27   28 1
  44   28   29 1
  45   28   58 1
  46   28   59 1
  47   29   30 1
  48   29   31 1
  49   29   60 1
  50   30   35 1
  51   31   32 1
  52   31   33 1
  53   31   61 1
  54   32   62 1
  55   33   34 1
  56   33   63 1
  57   33   35 1
  58   34   64 1
  59   35   36 1
  60   35   65 1
  61   36   37 ar
  62   36   44 ar
  63   37   38 ar
  64   37   66 1
  65   38   39 1
  66   38   42 ar
  67   39   40 2
  68   39   41 am
  69   41   67 1
  70   41   68 1
  71   42   69 1
  72   42   43 ar
  73   43   70 1
  74   43   44 ar
  75   44   71 1

#	End of record

