#	Name: ASD10410128
#	Creating user name:	WinNT
#	Creation time:	15. 06. 2019 21:26

#	Modifying user name:	WinNT
#	Modification time:	15. 06. 2019 21:26

#	Program:	/corina/corina34_cracker 3.40 0067  02.08.2006

@<TRIPOS>MOLECULE
ASD10410128
  76   82    0    0    0
SMALL
NO_CHARGES


@<TRIPOS>ATOM
   1 C1            -0.0184     1.3942    -0.0801 C.ar    
   2 C2            -0.0057     0.0095     0.0248 C.ar    
   3 C3             1.2025    -0.6691     0.1149 C.ar    
   4 C4             2.3914     0.0330     0.0998 C.ar    
   5 C5             2.3788     1.4177    -0.0055 C.ar    
   6 C6             1.1705     2.0963    -0.0951 C.ar    
   7 N7             3.5845     2.1298    -0.0204 N.pl3   
   8 C8             3.6712     3.3400    -0.7078 C.2     
   9 N9             4.7096     4.1408    -0.7091 N.2     
  10 N10            2.7100     3.8663    -1.4759 N.2     
  11 C11            3.1187     5.0131    -1.9748 C.2     
  12 N12            4.3809     5.2380    -1.5216 N.pl3   
  13 C13            5.1874     6.3373    -1.8069 C.ar    
  14 N14            2.3954     5.8401    -2.8124 N.pl3   
  15 N15           -1.2109    -0.7022     0.0401 N.3     
  16 C16           -0.9680    -2.1468     0.1568 C.3     
  17 C17           -2.3077    -2.8809     0.2501 C.3     
  18 N18           -3.1124    -2.5797    -0.9422 N.3     
  19 C19           -3.3553    -1.1350    -1.0588 C.3     
  20 C20           -2.0156    -0.4010    -1.1521 C.3     
  21 N21            4.7483     7.3093    -2.5962 N.ar    
  22 C22            5.5089     8.3538    -2.8699 C.ar    
  23 N23            6.7188     8.4906    -2.3882 N.ar    
  24 C24            7.2564     7.5546    -1.5746 C.ar    
  25 C25            6.4749     6.4382    -1.2600 C.ar    
  26 C26           -4.3772    -3.3266    -0.9261 C.3     
  27 C27           -5.2739    -2.9031    -2.1293 C.3     
  28 C28           -4.1156    -4.8343    -1.1453 C.3     
  29 C29           -4.8788    -5.1797    -2.4604 C.3     
  30 C30           -6.6479    -3.5861    -1.8517 C.3     
  31 C31           -6.3862    -5.0938    -2.0709 C.3     
  32 C32           -4.7078    -3.8377    -3.2561 C.3     
  33 C33            8.5193     7.5150    -0.9630 C.2     
  34 C34            8.7622     6.4528    -0.2116 C.2     
  35 S35            7.3803     5.3699    -0.1982 S.3     
  36 C36           10.0490     6.2076     0.5335 C.3     
  37 C37           10.2865     7.3449     1.5290 C.3     
  38 C38            9.9562     4.8801     1.2884 C.3     
  39 C39           11.2107     6.1490    -0.4605 C.3     
  40 H40           -0.9579     1.9216    -0.1543 H       
  41 H41            1.2123    -1.7459     0.1971 H       
  42 H42            3.3311    -0.4947     0.1702 H       
  43 H43            1.1606     3.1731    -0.1770 H       
  44 H44            4.3595     1.7812     0.4474 H       
  45 H45            1.4979     5.5911    -3.0832 H       
  46 H46            2.7851     6.6698    -3.1297 H       
  47 H47           -0.4224    -2.4958    -0.7199 H       
  48 H48           -0.3812    -2.3457     1.0536 H       
  49 H49           -2.1307    -3.9549     0.3076 H       
  50 H50           -2.8414    -2.5517     1.1417 H       
  51 H51           -3.9421    -0.9362    -1.9557 H       
  52 H52           -3.9009    -0.7860    -0.1821 H       
  53 H53           -2.1926     0.6730    -1.2096 H       
  54 H54           -1.4819    -0.7302    -2.0437 H       
  55 H55            5.1177     9.1252    -3.5167 H       
  56 H56           -4.9022    -3.1632     0.0151 H       
  57 H57           -5.3077    -1.8354    -2.3458 H       
  58 H58           -3.0484    -5.0212    -1.2650 H       
  59 H59           -4.5127    -5.4139    -0.3120 H       
  60 H60           -4.5685    -6.0946    -2.9651 H       
  61 H61           -6.9639    -3.4006    -0.8251 H       
  62 H62           -7.4003    -3.2251    -2.5529 H       
  63 H63           -7.0100    -5.4740    -2.8799 H       
  64 H64           -6.5736    -5.6495    -1.1521 H       
  65 H65           -5.3241    -3.8139    -4.1548 H       
  66 H66           -3.6621    -3.6240    -3.4773 H       
  67 H67            9.2471     8.3015    -1.0974 H       
  68 H68            9.4588     7.3867     2.2371 H       
  69 H69           11.2172     7.1676     2.0680 H       
  70 H70           10.3526     8.2907     0.9912 H       
  71 H71            9.7870     4.0699     0.5792 H       
  72 H72           10.8869     4.7028     1.8273 H       
  73 H73            9.1286     4.9218     1.9965 H       
  74 H74           11.2768     7.0948    -0.9983 H       
  75 H75           12.1414     5.9717     0.0785 H       
  76 H76           11.0415     5.3388    -1.1697 H       
@<TRIPOS>BOND
   1    1    2 ar
   2    1    6 ar
   3    1   40 1
   4    2    3 ar
   5    2   15 1
   6    3    4 ar
   7    3   41 1
   8    4    5 ar
   9    4   42 1
  10    5    6 ar
  11    5    7 1
  12    6   43 1
  13    7    8 1
  14    7   44 1
  15    8    9 2
  16    8   10 1
  17    9   12 1
  18   10   11 2
  19   11   12 1
  20   11   14 1
  21   12   13 1
  22   13   21 ar
  23   13   25 ar
  24   14   45 1
  25   14   46 1
  26   15   16 1
  27   15   20 1
  28   16   17 1
  29   16   47 1
  30   16   48 1
  31   17   18 1
  32   17   49 1
  33   17   50 1
  34   18   19 1
  35   18   26 1
  36   19   20 1
  37   19   51 1
  38   19   52 1
  39   20   53 1
  40   20   54 1
  41   21   22 ar
  42   22   23 ar
  43   22   55 1
  44   23   24 ar
  45   24   25 ar
  46   24   33 1
  47   25   35 1
  48   26   27 1
  49   26   28 1
  50   26   56 1
  51   27   30 1
  52   27   32 1
  53   27   57 1
  54   28   29 1
  55   28   58 1
  56   28   59 1
  57   29   31 1
  58   29   32 1
  59   29   60 1
  60   30   31 1
  61   30   61 1
  62   30   62 1
  63   31   63 1
  64   31   64 1
  65   32   65 1
  66   32   66 1
  67   33   34 2
  68   33   67 1
  69   34   35 1
  70   34   36 1
  71   36   37 1
  72   36   39 1
  73   36   38 1
  74   37   68 1
  75   37   69 1
  76   37   70 1
  77   38   71 1
  78   38   72 1
  79   38   73 1
  80   39   74 1
  81   39   75 1
  82   39   76 1

#	End of record

