#	Name: ASD13110083
#	Creating user name:	WinNT
#	Creation time:	15. 06. 2019 21:30

#	Modifying user name:	WinNT
#	Modification time:	15. 06. 2019 21:30

#	Program:	/corina/corina34_cracker 3.40 0067  02.08.2006

@<TRIPOS>MOLECULE
ASD13110083
  45   47    0    0    0
SMALL
NO_CHARGES


@<TRIPOS>ATOM
   1 C1            -0.0169     1.3931     0.0097 C.ar    
   2 C2             0.0021    -0.0041     0.0020 C.ar    
   3 C3             1.2337    -0.6800    -0.0134 C.ar    
   4 C4             2.4200     0.0403    -0.0202 C.ar    
   5 C5             2.3853     1.4203    -0.0117 C.ar    
   6 C6             1.1687     2.0934     0.0021 C.ar    
   7 N7             0.9287    -2.0271    -0.0177 N.pl3   
   8 C8            -0.4277    -2.1350    -0.0053 C.2     
   9 N9            -0.9702    -0.9527     0.0062 N.2     
  10 C10           -1.1904    -3.4348    -0.0046 C.3     
  11 N11           -1.5283    -3.8019     1.3729 N.am    
  12 C12           -2.7883    -3.3453     1.9646 C.3     
  13 C13           -0.6799    -4.5597     2.0957 C.2     
  14 O14            0.3632    -4.9377     1.6058 O.2     
  15 C15           -1.0275    -4.9374     3.5126 C.3     
  16 N16            0.0477    -5.7567     4.0773 N.am    
  17 Cl17           1.1442     3.8292     0.0117 Cl      
  18 C18            1.1038    -5.1663     4.7423 C.ar    
  19 C19            2.1311    -5.9648     5.2806 C.ar    
  20 N20            2.0944    -7.3047     5.1531 N.2     
  21 C21            1.1133    -7.8940     4.5316 C.2     
  22 C22            0.0188    -7.1024     3.9604 C.2     
  23 C23            3.1983    -5.3512     5.9546 C.ar    
  24 C24            3.2333    -3.9938     6.0830 C.ar    
  25 C25            2.2193    -3.2052     5.5517 C.ar    
  26 C26            1.1596    -3.7839     4.8849 C.ar    
  27 O27           -0.9027    -7.6511     3.3835 O.2     
  28 Cl28           2.2873    -1.4796     5.7287 Cl      
  29 F29            3.5404     2.1210    -0.0179 F       
  30 H30           -0.9584     1.9220     0.0170 H       
  31 H31            3.3677    -0.4774    -0.0316 H       
  32 H32            1.5637    -2.7603    -0.0282 H       
  33 H33           -2.1059    -3.3192    -0.5848 H       
  34 H34           -0.5752    -4.2173    -0.4487 H       
  35 H35           -3.5686    -4.0812     1.7703 H       
  36 H36           -2.6619    -3.2253     3.0405 H       
  37 H37           -3.0718    -2.3899     1.5232 H       
  38 H38           -1.1480    -4.0339     4.1103 H       
  39 H39           -1.9583    -5.5045     3.5195 H       
  40 H40            1.1035    -8.9701     4.4403 H       
  41 H41            3.9916    -5.9538     6.3717 H       
  42 H42            4.0568    -3.5270     6.6029 H       
  43 H43            0.3754    -3.1651     4.4743 H       
  44 Cl44           9.0568     8.8292    11.6029 Cl      
  45 H45            9.0568    10.1992    11.6029 H       
@<TRIPOS>BOND
   1    1    2 ar
   2    1    6 ar
   3    1   30 1
   4    2    9 1
   5    2    3 ar
   6    3    4 ar
   7    3    7 1
   8    4    5 ar
   9    4   31 1
  10    5    6 ar
  11    5   29 1
  12    6   17 1
  13    7    8 1
  14    7   32 1
  15    8   10 1
  16    8    9 2
  17   10   11 1
  18   10   33 1
  19   10   34 1
  20   11   12 1
  21   11   13 am
  22   12   35 1
  23   12   36 1
  24   12   37 1
  25   13   14 2
  26   13   15 1
  27   15   16 1
  28   15   38 1
  29   15   39 1
  30   16   18 1
  31   16   22 am
  32   18   26 ar
  33   18   19 ar
  34   19   20 1
  35   19   23 ar
  36   20   21 2
  37   21   22 1
  38   21   40 1
  39   22   27 2
  40   23   24 ar
  41   23   41 1
  42   24   25 ar
  43   24   42 1
  44   25   26 ar
  45   25   28 1
  46   26   43 1
  47   44   45 1

#	End of record

