#	Name: ASD10610079
#	Creating user name:	WinNT
#	Creation time:	15. 06. 2019 21:27

#	Modifying user name:	WinNT
#	Modification time:	15. 06. 2019 21:27

#	Program:	/corina/corina34_cracker 3.40 0067  02.08.2006

@<TRIPOS>MOLECULE
ASD10610079
  58   63    0    0    0
SMALL
NO_CHARGES


@<TRIPOS>ATOM
   1 C1             2.0157     3.5151    -2.7479 C.ar    
   2 N2             3.1280     3.5002    -3.4562 N.ar    
   3 C3             4.1410     2.7233    -3.1150 C.ar    
   4 C4             4.0185     1.9092    -1.9832 C.ar    
   5 C5             2.8200     1.9579    -1.2623 C.ar    
   6 N6             1.8581     2.7645    -1.6752 N.ar    
   7 C7             5.1236     1.0225    -1.5615 C.2     
   8 O8             6.1572     0.9935    -2.2006 O.2     
   9 N9             4.9852     0.2464    -0.4683 N.am    
  10 C10            6.0348    -0.7118    -0.1126 C.3     
  11 C11            7.4424    -0.1616     0.1258 C.3     
  12 C12            6.5999    -0.6457     1.3076 C.3     
  13 C13            5.9181    -2.0710    -0.7530 C.2     
  14 N14            4.7036    -2.6204    -0.9515 N.am    
  15 O15            6.9172    -2.6704    -1.0897 O.2     
  16 C16            2.6309    -5.3555    -1.9989 C.ar    
  17 C17            3.2739    -4.5776    -1.0425 C.ar    
  18 C18            4.5933    -3.9849    -1.4732 C.3     
  19 C19            4.6954    -3.9515    -3.0106 C.3     
  20 S20            3.6291    -5.3711    -3.4660 S.3     
  21 C21            2.6547    -4.4214     0.1999 C.ar    
  22 C22            1.4480    -5.0197     0.4756 C.ar    
  23 C23            0.8115    -5.8013    -0.4878 C.ar    
  24 C24            1.4133    -5.9616    -1.7331 C.ar    
  25 C25           -0.4887    -6.4493    -0.1917 C.ar    
  26 C26           -0.6501    -7.2030     0.9813 C.ar    
  27 C27           -1.8772    -7.8076     1.2487 C.ar    
  28 C28           -2.9268    -7.6626     0.3600 C.ar    
  29 C29           -2.7659    -6.9187    -0.7969 C.ar    
  30 C30           -1.5568    -6.3086    -1.0727 C.ar    
  31 N31            0.4695    -8.0303     3.0637 N.2     
  32 N32            1.6380    -7.9222     3.5963 N.pl3   
  33 N33            2.3872    -7.2009     2.8376 N.2     
  34 N34            1.7080    -6.8348     1.8040 N.2     
  35 C35            0.4787    -7.3556     1.9306 C.2     
  36 C36            2.0492    -8.5249     4.8667 C.3     
  37 F37           -2.0410    -8.5351     2.3753 F       
  38 Cl38          -4.0924    -6.7455    -1.9032 Cl      
  39 H39            1.2100     4.1660    -3.0536 H       
  40 H40            5.0487     2.7163    -3.7003 H       
  41 H41            2.6833     1.3459    -0.3830 H       
  42 H42            4.1907     0.3223     0.0829 H       
  43 H43            8.2841    -0.7829    -0.1802 H       
  44 H44            7.5875     0.9133     0.0180 H       
  45 H45            6.1908     0.1108     1.9774 H       
  46 H46            6.8873    -1.5854     1.7792 H       
  47 H47            3.9025    -2.1123    -0.7491 H       
  48 H48            5.4070    -4.5897    -1.0729 H       
  49 H49            4.2980    -3.0184    -3.4099 H       
  50 H50            5.7224    -4.1110    -3.3391 H       
  51 H51            3.1332    -3.8195     0.9584 H       
  52 H52            0.9905    -4.8838     1.4445 H       
  53 H53            0.9336    -6.5635    -2.4907 H       
  54 H54           -3.8766    -8.1322     0.5691 H       
  55 H55           -1.4396    -5.7259    -1.9744 H       
  56 H56            2.4570    -9.5188     4.6822 H       
  57 H57            2.8103    -7.9011     5.3353 H       
  58 H58            1.1861    -8.6033     5.5278 H       
@<TRIPOS>BOND
   1    1    2 ar
   2    1    6 ar
   3    1   39 1
   4    2    3 ar
   5    3    4 ar
   6    3   40 1
   7    4    5 ar
   8    4    7 1
   9    5    6 ar
  10    5   41 1
  11    7    8 2
  12    7    9 am
  13    9   10 1
  14    9   42 1
  15   10   11 1
  16   10   12 1
  17   10   13 1
  18   11   12 1
  19   11   43 1
  20   11   44 1
  21   12   45 1
  22   12   46 1
  23   13   14 am
  24   13   15 2
  25   14   18 1
  26   14   47 1
  27   16   17 ar
  28   16   20 1
  29   16   24 ar
  30   17   18 1
  31   17   21 ar
  32   18   19 1
  33   18   48 1
  34   19   20 1
  35   19   49 1
  36   19   50 1
  37   21   22 ar
  38   21   51 1
  39   22   23 ar
  40   22   52 1
  41   23   24 ar
  42   23   25 1
  43   24   53 1
  44   25   26 ar
  45   25   30 ar
  46   26   27 ar
  47   26   35 1
  48   27   28 ar
  49   27   37 1
  50   28   29 ar
  51   28   54 1
  52   29   30 ar
  53   29   38 1
  54   30   55 1
  55   31   32 1
  56   31   35 2
  57   32   33 1
  58   32   36 1
  59   33   34 2
  60   34   35 1
  61   36   56 1
  62   36   57 1
  63   36   58 1

#	End of record

