#	Name: ASD10160502
#	Creating user name:	WinNT
#	Creation time:	15. 06. 2019 21:26

#	Modifying user name:	WinNT
#	Modification time:	15. 06. 2019 21:26

#	Program:	/corina/corina34_cracker 3.40 0067  02.08.2006

@<TRIPOS>MOLECULE
ASD10160502
  25   25    0    0    0
SMALL
NO_CHARGES


@<TRIPOS>ATOM
   1 C1            -0.0180     1.4727     0.0101 C.2     
   2 C2             0.0021    -0.0041     0.0020 C.ar    
   3 C3             1.2207    -0.6902    -0.0133 C.ar    
   4 C4             1.2309    -2.0729    -0.0209 C.ar    
   5 C5             0.0405    -2.7757    -0.0138 C.ar    
   6 C6            -1.1695    -2.1017     0.0009 C.ar    
   7 C7            -1.1953    -0.7219     0.0154 C.ar    
   8 O8             1.0265     2.0948     0.0035 O.2     
   9 N9            -1.1942     2.1307     0.0193 N.am    
  10 S10           -1.2166     3.7865     0.0284 S.o2    
  11 O11           -2.5980     4.1180     0.0625 O.2     
  12 O12           -0.3511     4.1428     1.0976 O.2     
  13 C13           -0.4880     4.2578    -1.5646 C.3     
  14 C14            0.0594    -4.2825    -0.0226 C.3     
  15 F15            2.3844    -0.0040    -0.0211 F       
  16 Cl16          -2.6579    -2.9953     0.0085 Cl      
  17 H17            2.1707    -2.6048    -0.0327 H       
  18 H18           -2.1399    -0.1985     0.0317 H       
  19 H19           -2.0276     1.6343     0.0205 H       
  20 H20           -1.0900     3.8472    -2.3752 H       
  21 H21           -0.4628     5.3445    -1.6453 H       
  22 H22            0.5266     3.8650    -1.6305 H       
  23 H23            0.0736    -4.6517     1.0029 H       
  24 H24           -0.8307    -4.6541    -0.5303 H       
  25 H25            0.9491    -4.6317    -0.5468 H       
@<TRIPOS>BOND
   1    1    2 1
   2    1    8 2
   3    1    9 am
   4    2    3 ar
   5    2    7 ar
   6    3    4 ar
   7    3   15 1
   8    4    5 ar
   9    4   17 1
  10    5    6 ar
  11    5   14 1
  12    6    7 ar
  13    6   16 1
  14    7   18 1
  15    9   10 am
  16    9   19 1
  17   10   11 2
  18   10   12 2
  19   10   13 1
  20   13   20 1
  21   13   21 1
  22   13   22 1
  23   14   23 1
  24   14   24 1
  25   14   25 1

#	End of record

