#	Name: ASD10610093
#	Creating user name:	WinNT
#	Creation time:	15. 06. 2019 21:28

#	Modifying user name:	WinNT
#	Modification time:	15. 06. 2019 21:28

#	Program:	/corina/corina34_cracker 3.40 0067  02.08.2006

@<TRIPOS>MOLECULE
ASD10610093
  63   67    0    0    0
SMALL
NO_CHARGES


@<TRIPOS>ATOM
   1 C1             0.9732     2.9677    -1.4599 C.ar    
   2 N2             1.7877     2.9741    -2.5046 N.ar    
   3 C3             2.9257     2.3055    -2.4814 C.ar    
   4 C4             3.2654     1.5832    -1.3305 C.ar    
   5 C5             2.3757     1.6034    -0.2490 C.ar    
   6 N6             1.2576     2.2975    -0.3532 N.ar    
   7 C7             4.5273     0.8204    -1.2595 C.2     
   8 O8             5.2878     0.8137    -2.2081 O.2     
   9 N9             4.8364     0.1316    -0.1431 N.am    
  10 O10            7.3339     0.2332     1.1917 O.3     
  11 C11            7.3569     0.0509    -0.2300 C.3     
  12 C12            6.0326    -0.7136    -0.1115 C.3     
  13 C13            6.5848    -0.9848     1.2934 C.3     
  14 C14            5.9318    -1.9323    -0.9922 C.2     
  15 N15            4.7522    -2.5700    -1.1278 N.am    
  16 O16            6.9122    -2.3393    -1.5789 O.2     
  17 C17            4.6771    -3.8160    -1.8946 C.3     
  18 C18            4.5054    -3.4913    -3.3799 C.3     
  19 C19            3.5004    -4.6285    -1.4188 C.ar    
  20 C20            3.6549    -5.9874    -1.1963 C.ar    
  21 C21            2.5692    -6.7294    -0.7583 C.ar    
  22 C22            1.3534    -6.0694    -0.5576 C.ar    
  23 C23            1.2808    -4.6997    -0.8043 C.ar    
  24 N24            2.3408    -4.0344    -1.2152 N.ar    
  25 F25            4.8499    -6.5823    -1.4045 F       
  26 C26            0.1600    -6.8148    -0.0902 C.ar    
  27 C27           -0.5865    -6.3393     0.9991 C.ar    
  28 C28           -1.7068    -7.0485     1.4290 C.ar    
  29 C29           -2.0765    -8.2137     0.7824 C.ar    
  30 C30           -1.3389    -8.6814    -0.2922 C.ar    
  31 C31           -0.2288    -7.9863    -0.7331 C.ar    
  32 N32           -0.7893    -4.5297     2.7191 N.2     
  33 N33           -0.1375    -3.4608     3.0248 N.pl3   
  34 N34            0.8597    -3.3254     2.2221 N.2     
  35 N35            0.8621    -4.3086     1.3872 N.2     
  36 C36           -0.1853    -5.0897     1.6892 C.2     
  37 C37           -0.4784    -2.5432     4.1148 C.3     
  38 F38           -2.4307    -6.5982     2.4770 F       
  39 Cl39          -1.8152   -10.1456    -1.0941 Cl      
  40 O40           -0.1808     3.6710    -1.5230 O.3     
  41 C41           -1.0269     3.6340    -0.3720 C.3     
  42 H42            3.5847     2.3150    -3.3371 H       
  43 H43            2.6008     1.0592     0.6563 H       
  44 H44            4.2669     0.1954     0.6395 H       
  45 H45            7.2697     0.9836    -0.7873 H       
  46 H46            8.1851    -0.5688    -0.5735 H       
  47 H47            7.2115    -1.8750     1.3476 H       
  48 H48            5.8212    -0.9596     2.0708 H       
  49 H49            3.9530    -2.2040    -0.7177 H       
  50 H50            5.5945    -4.3868    -1.7512 H       
  51 H51            5.3564    -2.9036    -3.7240 H       
  52 H52            4.4494    -4.4184    -3.9504 H       
  53 H53            3.5879    -2.9205    -3.5233 H       
  54 H54            2.6602    -7.7902    -0.5770 H       
  55 H55            0.3473    -4.1779    -0.6535 H       
  56 H56           -2.9447    -8.7618     1.1174 H       
  57 H57            0.3395    -8.3544    -1.5744 H       
  58 H58            0.0273    -2.8592     5.0272 H       
  59 H59           -0.1595    -1.5342     3.8535 H       
  60 H60           -1.5565    -2.5535     4.2747 H       
  61 H61           -1.3222     2.6041    -0.1711 H       
  62 H62           -0.4882     4.0319     0.4879 H       
  63 H63           -1.9159     4.2377    -0.5550 H       
@<TRIPOS>BOND
   1    1    2 ar
   2    1    6 ar
   3    1   40 1
   4    2    3 ar
   5    3    4 ar
   6    3   42 1
   7    4    5 ar
   8    4    7 1
   9    5    6 ar
  10    5   43 1
  11    7    8 2
  12    7    9 am
  13    9   12 1
  14    9   44 1
  15   10   11 1
  16   10   13 1
  17   11   12 1
  18   11   45 1
  19   11   46 1
  20   12   13 1
  21   12   14 1
  22   13   47 1
  23   13   48 1
  24   14   15 am
  25   14   16 2
  26   15   17 1
  27   15   49 1
  28   17   18 1
  29   17   19 1
  30   17   50 1
  31   18   51 1
  32   18   52 1
  33   18   53 1
  34   19   20 ar
  35   19   24 ar
  36   20   21 ar
  37   20   25 1
  38   21   22 ar
  39   21   54 1
  40   22   23 ar
  41   22   26 1
  42   23   24 ar
  43   23   55 1
  44   26   27 ar
  45   26   31 ar
  46   27   28 ar
  47   27   36 1
  48   28   29 ar
  49   28   38 1
  50   29   30 ar
  51   29   56 1
  52   30   31 ar
  53   30   39 1
  54   31   57 1
  55   32   33 1
  56   32   36 2
  57   33   34 1
  58   33   37 1
  59   34   35 2
  60   35   36 1
  61   37   58 1
  62   37   59 1
  63   37   60 1
  64   40   41 1
  65   41   61 1
  66   41   62 1
  67   41   63 1

#	End of record

