#	Name: ASD13490007
#	Creating user name:	WinNT
#	Creation time:	15. 06. 2019 21:30

#	Modifying user name:	WinNT
#	Modification time:	15. 06. 2019 21:30

#	Program:	/corina/corina34_cracker 3.40 0067  02.08.2006

@<TRIPOS>MOLECULE
ASD13490007
  31   32    0    0    0
SMALL
NO_CHARGES


@<TRIPOS>ATOM
   1 C1            -0.0166     1.3762     0.0096 C.ar    
   2 C2             0.0021    -0.0041     0.0020 C.ar    
   3 C3             1.2189    -0.6820    -0.0133 C.ar    
   4 C4             2.4134     0.0399    -0.0209 C.ar    
   5 C5             2.3816     1.4219    -0.0131 C.ar    
   6 C6             1.1695     2.0876     0.0021 C.ar    
   7 C7             1.2450    -2.1653    -0.0210 C.ar    
   8 C8             1.1409     3.5943     0.0105 C.3     
   9 C9             1.8643     4.1112     1.2557 C.3     
  10 C10            1.8299     4.1167    -1.2238 C.2     
  11 O11            1.9254     5.4396    -1.4300 O.3     
  12 O12            2.2962     3.3447    -2.0278 O.2     
  13 C13            2.0232    -2.8459    -0.9558 C.ar    
  14 C14            2.0445    -4.2256    -0.9595 C.ar    
  15 C15            1.2943    -4.9345    -0.0370 C.ar    
  16 C16            0.5191    -4.2633     0.8943 C.ar    
  17 C17            0.4962    -2.8823     0.9098 C.ar    
  18 F18            3.5976    -0.6102    -0.0353 F       
  19 Cl19          -0.4192    -5.1588     2.0482 Cl      
  20 Cl20           1.3247    -6.6702    -0.0477 Cl      
  21 H21           -0.9600     1.9020     0.0169 H       
  22 H22           -0.9253    -0.5575     0.0083 H       
  23 H23            3.3047     1.9825    -0.0186 H       
  24 H24            0.1066     3.9380     0.0223 H       
  25 H25            2.8986     3.7675     1.2440 H       
  26 H26            1.8436     5.2010     1.2618 H       
  27 H27            1.3660     3.7333     2.1485 H       
  28 H28            2.3761     5.7269    -2.2359 H       
  29 H29            2.6084    -2.2941    -1.6765 H       
  30 H30            2.6474    -4.7534    -1.6837 H       
  31 H31           -0.1049    -2.3592     1.6388 H       
@<TRIPOS>BOND
   1    1    2 ar
   2    1    6 ar
   3    1   21 1
   4    2    3 ar
   5    2   22 1
   6    3    4 ar
   7    3    7 1
   8    4    5 ar
   9    4   18 1
  10    5    6 ar
  11    5   23 1
  12    6    8 1
  13    7   13 ar
  14    7   17 ar
  15    8    9 1
  16    8   10 1
  17    8   24 1
  18    9   25 1
  19    9   26 1
  20    9   27 1
  21   10   11 1
  22   10   12 2
  23   11   28 1
  24   13   14 ar
  25   13   29 1
  26   14   15 ar
  27   14   30 1
  28   15   16 ar
  29   15   20 1
  30   16   17 ar
  31   16   19 1
  32   17   31 1

#	End of record

