#	Name: ASD10200001
#	Creating user name:	WinNT
#	Creation time:	15. 06. 2019 21:26

#	Modifying user name:	WinNT
#	Modification time:	15. 06. 2019 21:26

#	Program:	/corina/corina34_cracker 3.40 0067  02.08.2006

@<TRIPOS>MOLECULE
ASD10200001
  15   15    0    0    0
SMALL
NO_CHARGES


@<TRIPOS>ATOM
   1 C1            -0.0167     1.3776     0.0096 C.ar    
   2 C2             0.0021    -0.0041     0.0020 C.ar    
   3 C3             1.2391    -0.6519    -0.0133 C.ar    
   4 C4             2.4087     0.1225    -0.0203 C.ar    
   5 N5             2.3358     1.4496    -0.0125 N.ar    
   6 C6             1.1825     2.0777     0.0019 C.ar    
   7 S7             1.3293    -2.4116    -0.0230 S.3     
   8 C8             3.7270    -0.5397    -0.0359 C.2     
   9 O9             4.8529     0.2007    -0.0427 O.3     
  10 O10            3.7975    -1.7527    -0.0427 O.2     
  11 H11           -0.9569     1.9089     0.0170 H       
  12 H12           -0.9181    -0.5695     0.0081 H       
  13 H13            1.1664     3.1576     0.0079 H       
  14 H14            1.3283    -2.6491    -1.4129 H       
  15 H15            5.6931    -0.2780    -0.0530 H       
@<TRIPOS>BOND
   1    1    2 ar
   2    1    6 ar
   3    1   11 1
   4    2    3 ar
   5    2   12 1
   6    3    4 ar
   7    3    7 1
   8    4    5 ar
   9    4    8 1
  10    5    6 ar
  11    6   13 1
  12    7   14 1
  13    8    9 1
  14    8   10 2
  15    9   15 1

#	End of record

