#	Name: ASD10420147
#	Creating user name:	WinNT
#	Creation time:	15. 06. 2019 21:27

#	Modifying user name:	WinNT
#	Modification time:	15. 06. 2019 21:27

#	Program:	/corina/corina34_cracker 3.40 0067  02.08.2006

@<TRIPOS>MOLECULE
ASD10420147
  33   34    0    0    0
SMALL
NO_CHARGES


@<TRIPOS>ATOM
   1 C1             0.2178     1.4261    -0.0632 C.3     
   2 C2            -0.1999    -2.9281    -2.5468 C.3     
   3 C3             0.0714    -2.1508     1.1385 C.ar    
   4 C4             0.1559    -0.7698     1.1336 C.ar    
   5 C5            -0.0434    -2.8473    -0.0515 C.ar    
   6 C6            -2.2499     1.0051    -5.1395 C.ar    
   7 C7            -0.2246     2.0946    -4.4360 C.ar    
   8 C8            -0.0226    -0.0401    -2.5461 C.2     
   9 C9             0.1262    -0.0781    -0.0597 C.ar    
  10 C10           -0.0743    -2.1679    -1.2517 C.ar    
  11 C11           -2.2738     1.7865    -6.2789 C.ar    
  12 C12           -0.2494     2.8755    -5.5756 C.ar    
  13 C13           -1.2250     1.1572    -4.2150 C.ar    
  14 C14           -1.2736     2.7229    -6.4995 C.ar    
  15 C15            0.0105    -0.7746    -1.2638 C.ar    
  16 N16           -1.2005     0.3659    -3.0601 N.am    
  17 O17            1.0128     0.1980    -3.1371 O.2     
  18 O18           -1.2974     3.4915    -7.6213 O.3     
  19 Br19          -3.6695     1.5796    -7.5380 Br      
  20 Br20           1.1128     4.1521    -5.8767 Br      
  21 H21            1.2638     1.7262    -0.1258 H       
  22 H22           -0.3256     1.8212    -0.9215 H       
  23 H23           -0.2185     1.8188     0.8553 H       
  24 H24           -1.2540    -3.0482    -2.7969 H       
  25 H25            0.3016    -2.3765    -3.3420 H       
  26 H26            0.2618    -3.9095    -2.4383 H       
  27 H27            0.0997    -2.6878     2.0751 H       
  28 H28            0.2451    -0.2321     2.0659 H       
  29 H29           -0.1086    -3.9253    -0.0407 H       
  30 H30           -3.0305     0.2793    -4.9659 H       
  31 H31            0.5729     2.2129    -3.7174 H       
  32 H32           -2.0313     0.1098    -2.6299 H       
  33 H33           -1.7803     4.3229    -7.5182 H       
@<TRIPOS>BOND
   1    1    9 1
   2    1   21 1
   3    1   22 1
   4    1   23 1
   5    2   10 1
   6    2   24 1
   7    2   25 1
   8    2   26 1
   9    3    4 ar
  10    3    5 ar
  11    3   27 1
  12    4    9 ar
  13    4   28 1
  14    5   10 ar
  15    5   29 1
  16    6   11 ar
  17    6   13 ar
  18    6   30 1
  19    7   12 ar
  20    7   13 ar
  21    7   31 1
  22    8   15 1
  23    8   16 am
  24    8   17 2
  25    9   15 ar
  26   10   15 ar
  27   11   14 ar
  28   11   19 1
  29   12   14 ar
  30   12   20 1
  31   13   16 1
  32   14   18 1
  33   16   32 1
  34   18   33 1

#	End of record

