#	Name: ASD10420108
#	Creating user name:	WinNT
#	Creation time:	15. 06. 2019 21:27

#	Modifying user name:	WinNT
#	Modification time:	15. 06. 2019 21:27

#	Program:	/corina/corina34_cracker 3.40 0067  02.08.2006

@<TRIPOS>MOLECULE
ASD10420108
  80   84    0    0    0
SMALL
NO_CHARGES


@<TRIPOS>ATOM
   1 N1             0.4430     0.1710     0.9119 N.pl3   
   2 C2             0.1662    -1.1519     0.6770 C.2     
   3 C3            -1.1799    -1.2522     0.2805 C.2     
   4 C4            -1.7046     0.0392     0.2828 C.2     
   5 C5            -0.6936     0.9019     0.6791 C.2     
   6 N6             1.7259     0.5552     1.3237 N.2     
   7 C7             2.6723    -0.3259     1.4903 C.2     
   8 C8             2.4315    -1.6980     1.2599 C.2     
   9 C9             1.1702    -2.1116     0.8508 C.2     
  10 C10           -0.8172     2.3544     0.8178 C.2     
  11 O11           -1.1664     2.8370     1.8794 O.2     
  12 C12           -3.1163     0.4270    -0.0748 C.3     
  13 C13           -3.9526     0.4895     1.1773 C.ar    
  14 C14           -4.3251     1.7141     1.6988 C.ar    
  15 C15           -4.3516    -0.6779     1.8005 C.ar    
  16 C16           -5.1189    -0.6221     2.9494 C.ar    
  17 C17           -5.4882     0.6010     3.4755 C.ar    
  18 C18           -1.9030    -2.4953    -0.0730 C.ar    
  19 C19           -2.1211    -3.4775     0.8932 C.ar    
  20 C20           -2.7954    -4.6335     0.5576 C.ar    
  21 C21           -3.2544    -4.8199    -0.7342 C.ar    
  22 C22           -3.0411    -3.8494    -1.6969 C.ar    
  23 C23           -2.3736    -2.6864    -1.3722 C.ar    
  24 C24           -3.8955     2.9866     1.0153 C.3     
  25 C25           -5.0934     1.7712     2.8490 C.ar    
  26 F26           -5.4534     2.9678     3.3627 F       
  27 N27           -0.5442     3.1570    -0.2300 N.am    
  28 C28           -0.5553     4.6204    -0.0830 C.3     
  29 C29            0.7589     5.1757    -0.6421 C.3     
  30 N30            0.9466     4.6909    -2.0160 N.3     
  31 C31            1.0739     3.2278    -2.0521 C.3     
  32 C32           -0.2214     2.5926    -1.5493 C.3     
  33 C33            0.7078     6.7049    -0.6429 C.3     
  34 C34            2.0433     7.2520    -1.0765 C.2     
  35 N35            2.2334     8.5841    -1.1523 N.am    
  36 O36            2.9471     6.4935    -1.3573 O.2     
  37 C37            3.5317     9.1159    -1.5738 C.3     
  38 C38            3.4806    10.6451    -1.5745 C.3     
  39 C39            3.5122    -2.6855     1.4518 C.2     
  40 N40            4.1303    -3.2245     0.3823 N.am    
  41 O41            3.8446    -3.0124     2.5747 O.2     
  42 C42            5.1264    -4.2826     0.5681 C.3     
  43 C43            3.8061    -2.7523    -0.9661 C.3     
  44 H44            3.6525    -0.0023     1.8081 H       
  45 H45            0.9673    -3.1568     0.6700 H       
  46 H46           -3.1133     1.4036    -0.5589 H       
  47 H47           -3.5355    -0.3144    -0.7551 H       
  48 H48           -4.0641    -1.6344     1.3896 H       
  49 H49           -5.4301    -1.5349     3.4355 H       
  50 H50           -6.0881     0.6444     4.3725 H       
  51 H51           -1.7627    -3.3335     1.9018 H       
  52 H52           -2.9650    -5.3947     1.3048 H       
  53 H53           -3.7810    -5.7268    -0.9922 H       
  54 H54           -3.4018    -4.0006    -2.7036 H       
  55 H55           -2.2078    -1.9295    -2.1246 H       
  56 H56           -4.6598     3.2909     0.3002 H       
  57 H57           -3.7614     3.7715     1.7597 H       
  58 H58           -2.9545     2.8180     0.4916 H       
  59 H59           -1.3950     5.0378    -0.6386 H       
  60 H60           -0.6441     4.8818     0.9715 H       
  61 H61            1.5893     4.8395    -0.0212 H       
  62 H62            0.1974     5.0035    -2.6153 H       
  63 H63            1.2659     2.9046    -3.0752 H       
  64 H64            1.8999     2.9187    -1.4115 H       
  65 H65           -0.0896     1.5140    -1.4638 H       
  66 H66           -1.0284     2.8114    -2.2485 H       
  67 H67           -0.0648     7.0422    -1.3339 H       
  68 H68            0.4779     7.0612     0.3613 H       
  69 H69            1.5106     9.1907    -0.9277 H       
  70 H70            4.3043     8.7786    -0.8828 H       
  71 H71            3.7617     8.7596    -2.5779 H       
  72 H72            3.2507    11.0014    -0.5704 H       
  73 H73            4.4466    11.0408    -1.8882 H       
  74 H74            2.7080    10.9824    -2.2656 H       
  75 H75            4.6331    -5.2543     0.5438 H       
  76 H76            5.8655    -4.2303    -0.2313 H       
  77 H77            5.6216    -4.1505     1.5300 H       
  78 H78            3.1198    -1.9081    -0.9002 H       
  79 H79            4.7200    -2.4390    -1.4709 H       
  80 H80            3.3374    -3.5584    -1.5305 H       
@<TRIPOS>BOND
   1    1    2 1
   2    1    6 1
   3    1    5 1
   4    2    3 2
   5    2    9 1
   6    3    4 1
   7    3   18 1
   8    4    5 2
   9    4   12 1
  10    5   10 1
  11    6    7 2
  12    7    8 1
  13    7   44 1
  14    8    9 2
  15    8   39 1
  16    9   45 1
  17   10   11 2
  18   10   27 am
  19   12   13 1
  20   12   46 1
  21   12   47 1
  22   13   14 ar
  23   13   15 ar
  24   14   24 1
  25   14   25 ar
  26   15   16 ar
  27   15   48 1
  28   16   17 ar
  29   16   49 1
  30   17   25 ar
  31   17   50 1
  32   18   19 ar
  33   18   23 ar
  34   19   20 ar
  35   19   51 1
  36   20   21 ar
  37   20   52 1
  38   21   22 ar
  39   21   53 1
  40   22   23 ar
  41   22   54 1
  42   23   55 1
  43   24   56 1
  44   24   57 1
  45   24   58 1
  46   25   26 1
  47   27   28 1
  48   27   32 1
  49   28   29 1
  50   28   59 1
  51   28   60 1
  52   29   30 1
  53   29   33 1
  54   29   61 1
  55   30   31 1
  56   30   62 1
  57   31   32 1
  58   31   63 1
  59   31   64 1
  60   32   65 1
  61   32   66 1
  62   33   34 1
  63   33   67 1
  64   33   68 1
  65   34   35 am
  66   34   36 2
  67   35   37 1
  68   35   69 1
  69   37   38 1
  70   37   70 1
  71   37   71 1
  72   38   72 1
  73   38   73 1
  74   38   74 1
  75   39   40 am
  76   39   41 2
  77   40   42 1
  78   40   43 1
  79   42   75 1
  80   42   76 1
  81   42   77 1
  82   43   78 1
  83   43   79 1
  84   43   80 1

#	End of record

