#	Name: ASD10610024
#	Creating user name:	WinNT
#	Creation time:	15. 06. 2019 21:27

#	Modifying user name:	WinNT
#	Modification time:	15. 06. 2019 21:27

#	Program:	/corina/corina34_cracker 3.40 0067  02.08.2006

@<TRIPOS>MOLECULE
ASD10610024
  53   57    0    0    0
SMALL
NO_CHARGES


@<TRIPOS>ATOM
   1 C1            -0.0009     1.5111     0.0243 C.3     
   2 C2             0.1758    -0.0071    -0.0437 C.3     
   3 C3             1.4030     0.9030     0.0365 C.3     
   4 C4            -0.4425     2.2171    -1.2318 C.2     
   5 O5            -0.2312     1.7155    -2.3156 O.2     
   6 N6            -1.0722     3.4060    -1.1506 N.am    
   7 O7            -3.3262     4.9086    -3.4516 O.3     
   8 C8            -2.7673     3.6864    -2.9416 C.3     
   9 C9            -1.4038     4.1441    -2.3719 C.3     
  10 C10           -1.6667     5.6066    -2.0670 C.ar    
  11 C11           -2.8280     5.9604    -2.7448 C.ar    
  12 C12           -0.9870     6.5251    -1.2961 C.ar    
  13 C13           -1.4593     7.8180    -1.1798 C.ar    
  14 C14           -2.6262     8.1884    -1.8465 C.ar    
  15 C15           -3.3078     7.2600    -2.6273 C.ar    
  16 C16           -3.1415     9.5730    -1.7236 C.ar    
  17 C17           -3.2922    10.1600    -0.4569 C.ar    
  18 C18           -3.7774    11.4632    -0.3544 C.ar    
  19 C19           -4.1068    12.1692    -1.4970 C.ar    
  20 C20           -3.9575    11.5887    -2.7452 C.ar    
  21 C21           -3.4728    10.2995    -2.8631 C.ar    
  22 O22           -2.2863     7.8447     1.9617 O.3     
  23 N23           -2.4748     8.1756     0.8101 N.2     
  24 C24           -2.9380     9.3985     0.7641 C.2     
  25 N25           -3.0325     9.8375     2.0402 N.2     
  26 C26           -2.6169     8.8441     2.7855 C.2     
  27 C27           -2.5282     8.8303     4.2899 C.3     
  28 F28           -3.9259    12.0356     0.8603 F       
  29 Cl29          -4.3752    12.4873    -4.1706 Cl      
  30 N30           -0.5033     2.0782     1.2781 N.am    
  31 C31           -1.7516     1.7890     1.6961 C.2     
  32 O32           -2.4262     0.9890     1.0831 O.2     
  33 C33           -2.3091     2.4597     2.9251 C.3     
  34 F34           -3.6105     2.0015     3.1566 F       
  35 F35           -1.5043     2.1552     4.0281 F       
  36 F36           -2.3300     3.8451     2.7313 F       
  37 H37           -0.0818    -0.5840     0.8446 H       
  38 H38           -0.0273    -0.4953    -0.9968 H       
  39 H39            2.0073     1.0137    -0.8640 H       
  40 H40            1.9528     0.9249     0.9774 H       
  41 H41           -1.3059     3.7729    -0.2837 H       
  42 H42           -3.3963     3.2738    -2.1528 H       
  43 H43           -2.6270     2.9618    -3.7437 H       
  44 H44           -0.6147     4.0365    -3.1162 H       
  45 H45           -0.0834     6.2332    -0.7816 H       
  46 H46           -0.9275     8.5379    -0.5754 H       
  47 H47           -4.2116     7.5495    -3.1428 H       
  48 H48           -4.4828    13.1784    -1.4153 H       
  49 H49           -3.3546     9.8546    -3.8401 H       
  50 H50           -2.1458     7.8653     4.6224 H       
  51 H51           -1.8557     9.6214     4.6214 H       
  52 H52           -3.5189     8.9941     4.7138 H       
  53 H53            0.0624     2.6618     1.8075 H       
@<TRIPOS>BOND
   1    1    2 1
   2    1    3 1
   3    1    4 1
   4    1   30 1
   5    2    3 1
   6    2   37 1
   7    2   38 1
   8    3   39 1
   9    3   40 1
  10    4    5 2
  11    4    6 am
  12    6    9 1
  13    6   41 1
  14    7    8 1
  15    7   11 1
  16    8    9 1
  17    8   42 1
  18    8   43 1
  19    9   10 1
  20    9   44 1
  21   10   11 ar
  22   10   12 ar
  23   11   15 ar
  24   12   13 ar
  25   12   45 1
  26   13   14 ar
  27   13   46 1
  28   14   15 ar
  29   14   16 1
  30   15   47 1
  31   16   17 ar
  32   16   21 ar
  33   17   18 ar
  34   17   24 1
  35   18   19 ar
  36   18   28 1
  37   19   20 ar
  38   19   48 1
  39   20   21 ar
  40   20   29 1
  41   21   49 1
  42   22   23 1
  43   22   26 1
  44   23   24 2
  45   24   25 1
  46   25   26 2
  47   26   27 1
  48   27   50 1
  49   27   51 1
  50   27   52 1
  51   30   31 am
  52   30   53 1
  53   31   32 2
  54   31   33 1
  55   33   34 1
  56   33   35 1
  57   33   36 1

#	End of record

