#	Name: ASD10410122
#	Creating user name:	WinNT
#	Creation time:	15. 06. 2019 21:26

#	Modifying user name:	WinNT
#	Modification time:	15. 06. 2019 21:26

#	Program:	/corina/corina34_cracker 3.40 0067  02.08.2006

@<TRIPOS>MOLECULE
ASD10410122
  74   79    0    0    0
SMALL
NO_CHARGES


@<TRIPOS>ATOM
   1 C1            -0.0184     1.3930    -0.0793 C.ar    
   2 C2            -0.0058     0.0095     0.0246 C.ar    
   3 C3             1.2046    -0.6700     0.1136 C.ar    
   4 C4             2.3940     0.0337     0.0986 C.ar    
   5 C5             2.3796     1.4189    -0.0054 C.ar    
   6 C6             1.1710     2.0961    -0.0942 C.ar    
   7 F7             1.2176    -2.0171     0.2152 F       
   8 N8             3.5845     2.1323    -0.0202 N.pl3   
   9 C9             3.6696     3.3428    -0.7072 C.2     
  10 N10            4.7071     4.1447    -0.7083 N.2     
  11 N11            2.7077     3.8683    -1.4749 N.2     
  12 C12            3.1147     5.0161    -1.9729 C.2     
  13 N13            4.3768     5.2422    -1.5197 N.pl3   
  14 C14            5.1815     6.3423    -1.8042 C.ar    
  15 N15            2.3903     5.8426    -2.8099 N.pl3   
  16 N16           -1.2123    -0.7032     0.0402 N.3     
  17 C17           -2.0510    -0.2940     1.1755 C.3     
  18 C18           -3.3884    -1.0355     1.1116 C.3     
  19 N19           -3.1440    -2.4843     1.1363 N.3     
  20 C20           -2.3053    -2.8935     0.0010 C.3     
  21 C21           -0.9679    -2.1521     0.0649 C.3     
  22 N22            4.7023     7.2950    -2.5992 N.ar    
  23 C23            5.4141     8.3603    -2.9062 C.ar    
  24 C24            6.7090     8.4779    -2.3726 C.ar    
  25 C25            7.1868     7.4414    -1.5279 C.ar    
  26 N26            6.3850     6.4001    -1.2706 N.ar    
  27 C27           -4.4087    -3.2314     1.1527 C.3     
  28 C28            7.5301     9.5815    -2.6522 C.ar    
  29 C29            8.7798     9.6451    -2.1079 C.ar    
  30 C30            9.2529     8.6208    -1.2731 C.ar    
  31 C31            8.4748     7.5357    -0.9835 C.ar    
  32 C32           -4.1172    -4.7300     1.0524 C.3     
  33 C33           -5.4345    -5.5081     1.0695 C.3     
  34 C34           -6.1803    -5.2197     2.3739 C.3     
  35 C35           -6.4718    -3.7211     2.4742 C.3     
  36 C36           -5.1545    -2.9430     2.4571 C.3     
  37 O37           10.5014     8.7096    -0.7456 O.3     
  38 C38           10.9277     7.6367     0.0965 C.3     
  39 O39            9.5764    10.7135    -2.3777 O.3     
  40 C40            9.0392    11.7233    -3.2342 C.3     
  41 H41           -0.9581     1.9203    -0.1529 H       
  42 H42            3.3342    -0.4931     0.1681 H       
  43 H43            1.1604     3.1730    -0.1754 H       
  44 H44            4.3599     1.7844     0.4474 H       
  45 H45            1.4931     5.5925    -3.0809 H       
  46 H46            2.7788     6.6731    -3.1265 H       
  47 H47           -1.5439    -0.5384     2.1089 H       
  48 H48           -2.2282     0.7804     1.1280 H       
  49 H49           -4.0008    -0.7553     1.9687 H       
  50 H50           -3.9078    -0.7699     0.1908 H       
  51 H51           -2.1281    -3.9679     0.0485 H       
  52 H52           -2.8124    -2.6491    -0.9324 H       
  53 H53           -0.3555    -2.4322    -0.7922 H       
  54 H54           -0.4485    -2.4176     0.9857 H       
  55 H55            5.0119     9.1257    -3.5534 H       
  56 H56           -5.0235    -2.9235     0.3069 H       
  57 H57            7.1755    10.3744    -3.2939 H       
  58 H58            8.8506     6.7544    -0.3395 H       
  59 H59           -3.5859    -4.9354     0.1231 H       
  60 H60           -3.5024    -5.0379     1.8982 H       
  61 H61           -6.0493    -5.2001     0.2237 H       
  62 H62           -5.2268    -6.5757     0.9980 H       
  63 H63           -7.1187    -5.7740     2.3860 H       
  64 H64           -5.5654    -5.5276     3.2196 H       
  65 H65           -7.0866    -3.4132     1.6284 H       
  66 H66           -7.0031    -3.5157     3.4035 H       
  67 H67           -4.5397    -3.2510     3.3029 H       
  68 H68           -5.3622    -1.8754     2.5286 H       
  69 H69           11.9401     7.8325     0.4500 H       
  70 H70           10.2544     7.5549     0.9497 H       
  71 H71           10.9140     6.7043    -0.4679 H       
  72 H72            8.7966    11.2867    -4.2030 H       
  73 H73            8.1360    12.1373    -2.7859 H       
  74 H74            9.7752    12.5163    -3.3671 H       
@<TRIPOS>BOND
   1    1    2 ar
   2    1    6 ar
   3    1   41 1
   4    2    3 ar
   5    2   16 1
   6    3    4 ar
   7    3    7 1
   8    4    5 ar
   9    4   42 1
  10    5    6 ar
  11    5    8 1
  12    6   43 1
  13    8    9 1
  14    8   44 1
  15    9   10 2
  16    9   11 1
  17   10   13 1
  18   11   12 2
  19   12   13 1
  20   12   15 1
  21   13   14 1
  22   14   22 ar
  23   14   26 ar
  24   15   45 1
  25   15   46 1
  26   16   17 1
  27   16   21 1
  28   17   18 1
  29   17   47 1
  30   17   48 1
  31   18   19 1
  32   18   49 1
  33   18   50 1
  34   19   20 1
  35   19   27 1
  36   20   21 1
  37   20   51 1
  38   20   52 1
  39   21   53 1
  40   21   54 1
  41   22   23 ar
  42   23   24 ar
  43   23   55 1
  44   24   25 ar
  45   24   28 ar
  46   25   26 ar
  47   25   31 ar
  48   27   32 1
  49   27   36 1
  50   27   56 1
  51   28   29 ar
  52   28   57 1
  53   29   30 ar
  54   29   39 1
  55   30   31 ar
  56   30   37 1
  57   31   58 1
  58   32   33 1
  59   32   59 1
  60   32   60 1
  61   33   34 1
  62   33   61 1
  63   33   62 1
  64   34   35 1
  65   34   63 1
  66   34   64 1
  67   35   36 1
  68   35   65 1
  69   35   66 1
  70   36   67 1
  71   36   68 1
  72   37   38 1
  73   38   69 1
  74   38   70 1
  75   38   71 1
  76   39   40 1
  77   40   72 1
  78   40   73 1
  79   40   74 1

#	End of record

