#	Name: ASD10420017
#	Creating user name:	WinNT
#	Creation time:	15. 06. 2019 21:27

#	Modifying user name:	WinNT
#	Modification time:	15. 06. 2019 21:27

#	Program:	/corina/corina34_cracker 3.40 0067  02.08.2006

@<TRIPOS>MOLECULE
ASD10420017
  61   65    0    0    0
SMALL
NO_CHARGES


@<TRIPOS>ATOM
   1 C1            -0.0522     2.2505     0.0232 C.2     
   2 N2             0.3429     0.9399     0.0415 N.pl3   
   3 C3            -0.7796     0.1411     0.0486 C.2     
   4 C4            -1.8887     0.9276     0.0350 C.2     
   5 C5            -1.4609     2.2732     0.0240 C.2     
   6 C6             0.9053     3.2740     0.0131 C.2     
   7 C7             2.2314     2.9495     0.0218 C.2     
   8 C8             2.6107     1.5984     0.0405 C.2     
   9 C9             1.6727     0.6272     0.0500 C.2     
  10 C10           -2.3150     3.4609     0.0077 C.2     
  11 N11           -2.5666     4.0942    -1.1551 N.am    
  12 C12           -1.9927     3.6081    -2.4190 C.3     
  13 C13           -1.3045     4.7816    -3.1243 C.3     
  14 N14           -2.2558     5.8926    -3.2608 N.3     
  15 C15           -2.6779     6.3971    -1.9473 C.3     
  16 C16           -3.4273     5.2862    -1.1946 C.3     
  17 O17           -2.7986     3.8773     1.0448 O.2     
  18 C18           -3.3177     0.4492     0.0365 C.3     
  19 C19           -3.8350     0.4075    -1.3783 C.ar    
  20 C20           -3.8665    -0.7903    -2.0673 C.ar    
  21 C21           -4.2830     1.5661    -1.9846 C.ar    
  22 C22           -4.7579     1.5293    -3.2826 C.ar    
  23 C23           -4.7855     0.3339    -3.9751 C.ar    
  24 C24           -4.3417    -0.8284    -3.3670 C.ar    
  25 C25           -0.7784    -1.3362     0.0671 C.ar    
  26 C26           -0.1088    -2.0495    -0.9292 C.ar    
  27 C27           -0.1114    -3.4287    -0.9056 C.ar    
  28 C28           -0.7754    -4.1054     0.1023 C.ar    
  29 C29           -1.4413    -3.4048     1.0924 C.ar    
  30 C30           -1.4420    -2.0254     1.0841 C.ar    
  31 C31           -3.6058     7.5989    -2.1361 C.3     
  32 C32           -3.3832    -2.0543    -1.4041 C.3     
  33 F33           -4.3678    -1.9977    -4.0433 F       
  34 Br34           3.5459     4.3089     0.0079 Br      
  35 H35            0.5971     4.3090    -0.0017 H       
  36 H36            3.6579     1.3343     0.0471 H       
  37 H37            1.9772    -0.4089     0.0643 H       
  38 H38           -1.2623     2.8257    -2.2125 H       
  39 H39           -2.7862     3.2138    -3.0538 H       
  40 H40           -0.4468     5.1073    -2.5358 H       
  41 H41           -0.9694     4.4662    -4.1124 H       
  42 H42           -1.8677     6.6336    -3.8250 H       
  43 H43           -1.8011     6.7003    -1.3751 H       
  44 H44           -4.3580     5.0560    -1.7133 H       
  45 H45           -3.6430     5.6140    -0.1777 H       
  46 H46           -3.3661    -0.5494     0.4707 H       
  47 H47           -3.9288     1.1320     0.6268 H       
  48 H48           -4.2625     2.5007    -1.4438 H       
  49 H49           -5.1077     2.4351    -3.7553 H       
  50 H50           -5.1571     0.3053    -4.9888 H       
  51 H51            0.4096    -1.5226    -1.7166 H       
  52 H52            0.4058    -3.9817    -1.6758 H       
  53 H53           -0.7742    -5.1853     0.1160 H       
  54 H54           -1.9582    -3.9391     1.8758 H       
  55 H55           -1.9621    -1.4797     1.8575 H       
  56 H56           -4.4828     7.2946    -2.7073 H       
  57 H57           -3.9188     7.9729    -1.1613 H       
  58 H58           -3.0766     8.3854    -2.6742 H       
  59 H59           -4.2319    -2.5867    -0.9748 H       
  60 H60           -2.8930    -2.6879    -2.1432 H       
  61 H61           -2.6751    -1.8025    -0.6146 H       
@<TRIPOS>BOND
   1    1    2 1
   2    1    6 1
   3    1    5 2
   4    2    3 1
   5    2    9 1
   6    3    4 2
   7    3   25 1
   8    4    5 1
   9    4   18 1
  10    5   10 1
  11    6    7 2
  12    6   35 1
  13    7    8 1
  14    7   34 1
  15    8    9 2
  16    8   36 1
  17    9   37 1
  18   10   11 am
  19   10   17 2
  20   11   12 1
  21   11   16 1
  22   12   13 1
  23   12   38 1
  24   12   39 1
  25   13   14 1
  26   13   40 1
  27   13   41 1
  28   14   15 1
  29   14   42 1
  30   15   16 1
  31   15   31 1
  32   15   43 1
  33   16   44 1
  34   16   45 1
  35   18   19 1
  36   18   46 1
  37   18   47 1
  38   19   20 ar
  39   19   21 ar
  40   20   32 1
  41   20   24 ar
  42   21   22 ar
  43   21   48 1
  44   22   23 ar
  45   22   49 1
  46   23   24 ar
  47   23   50 1
  48   24   33 1
  49   25   26 ar
  50   25   30 ar
  51   26   27 ar
  52   26   51 1
  53   27   28 ar
  54   27   52 1
  55   28   29 ar
  56   28   53 1
  57   29   30 ar
  58   29   54 1
  59   30   55 1
  60   31   56 1
  61   31   57 1
  62   31   58 1
  63   32   59 1
  64   32   60 1
  65   32   61 1

#	End of record

