#	Name: ASD10950040
#	Creating user name:	WinNT
#	Creation time:	15. 06. 2019 21:28

#	Modifying user name:	WinNT
#	Modification time:	15. 06. 2019 21:28

#	Program:	/corina/corina34_cracker 3.40 0067  02.08.2006

@<TRIPOS>MOLECULE
ASD10950040
  53   56    0    0    0
SMALL
NO_CHARGES


@<TRIPOS>ATOM
   1 C1            -0.4192     1.4218     0.8933 C.3     
   2 O2            -0.3994    -0.0206     0.7276 O.3     
   3 C3             0.4646    -0.5204    -0.1771 C.2     
   4 O4             1.1817     0.2282    -0.8102 O.2     
   5 C5             0.5399    -1.9790    -0.3993 C.ar    
   6 C6             1.4342    -2.5001    -1.3361 C.ar    
   7 C7             1.5008    -3.8632    -1.5393 C.ar    
   8 C8             0.6837    -4.7144    -0.8178 C.ar    
   9 C9            -0.2072    -4.2050     0.1138 C.ar    
  10 C10           -0.2790    -2.8425     0.3310 C.ar    
  11 F11           -1.0026    -5.0426     0.8146 F       
  12 C12            0.7620    -6.2020    -1.0459 C.3     
  13 N13            0.7730    -6.4918    -2.4844 N.am    
  14 C14           -0.2837    -6.1507    -3.4400 C.3     
  15 C15           -0.0302    -4.7505    -4.0023 C.3     
  16 C16           -1.0298    -4.4580    -5.0915 C.2     
  17 C17           -0.8482    -4.6331    -6.4100 C.2     
  18 N18           -1.9756    -4.2600    -7.0897 N.pl3   
  19 C19           -2.9345    -3.8247    -6.2026 C.ar    
  20 C20           -2.3862    -3.9347    -4.9118 C.ar    
  21 C21           -3.1424    -3.5602    -3.7994 C.ar    
  22 C22           -4.4130    -3.0881    -3.9708 C.ar    
  23 C23           -4.9588    -2.9780    -5.2426 C.ar    
  24 C24           -4.2316    -3.3449    -6.3534 C.ar    
  25 C25            1.9246    -7.1255    -2.7712 C.2     
  26 O26            2.2534    -7.5080    -3.8763 O.2     
  27 C27            2.7316    -7.2869    -1.5416 C.2     
  28 C28            2.0606    -6.7440    -0.4958 C.2     
  29 C29            2.4931    -6.6946     0.8506 C.2     
  30 O30            3.6202    -7.0404     1.1391 O.2     
  31 C31            1.5542    -6.2127     1.9264 C.3     
  32 O32            3.9441    -7.8802    -1.4721 O.3     
  33 H33            0.5661     1.7649     1.2087 H       
  34 H34           -0.6820     1.8928    -0.0539 H       
  35 H35           -1.1567     1.6905     1.6496 H       
  36 H36            2.0727    -1.8372    -1.9012 H       
  37 H37            2.1925    -4.2665    -2.2640 H       
  38 H38           -0.9732    -2.4457     1.0569 H       
  39 H39           -0.0837    -6.6986    -0.5701 H       
  40 H40           -0.2844    -6.8748    -4.2547 H       
  41 H41           -1.2498    -6.1703    -2.9357 H       
  42 H42           -0.1354    -4.0144    -3.2054 H       
  43 H43            0.9786    -4.7007    -4.4121 H       
  44 H44            0.0542    -5.0118    -6.8667 H       
  45 H45           -2.0832    -4.2965    -8.0530 H       
  46 H46           -2.7247    -3.6438    -2.8070 H       
  47 H47           -4.9976    -2.7985    -3.1101 H       
  48 H48           -5.9647    -2.6033    -5.3620 H       
  49 H49           -4.6651    -3.2555    -7.3386 H       
  50 H50            0.5648    -6.0498     1.4990 H       
  51 H51            1.4902    -6.9622     2.7153 H       
  52 H52            1.9285    -5.2776     2.3431 H       
  53 H53            4.2697    -8.2103    -2.3206 H       
@<TRIPOS>BOND
   1    1    2 1
   2    1   33 1
   3    1   34 1
   4    1   35 1
   5    2    3 1
   6    3    4 2
   7    3    5 1
   8    5    6 ar
   9    5   10 ar
  10    6    7 ar
  11    6   36 1
  12    7    8 ar
  13    7   37 1
  14    8    9 ar
  15    8   12 1
  16    9   10 ar
  17    9   11 1
  18   10   38 1
  19   12   13 1
  20   12   28 1
  21   12   39 1
  22   13   14 1
  23   13   25 am
  24   14   15 1
  25   14   40 1
  26   14   41 1
  27   15   16 1
  28   15   42 1
  29   15   43 1
  30   16   17 2
  31   16   20 1
  32   17   18 1
  33   17   44 1
  34   18   19 1
  35   18   45 1
  36   19   20 ar
  37   19   24 ar
  38   20   21 ar
  39   21   22 ar
  40   21   46 1
  41   22   23 ar
  42   22   47 1
  43   23   24 ar
  44   23   48 1
  45   24   49 1
  46   25   26 2
  47   25   27 1
  48   27   28 2
  49   27   32 1
  50   28   29 1
  51   29   30 2
  52   29   31 1
  53   31   50 1
  54   31   51 1
  55   31   52 1
  56   32   53 1

#	End of record

