#	Name: ASD11030002
#	Creating user name:	WinNT
#	Creation time:	15. 06. 2019 21:29

#	Modifying user name:	WinNT
#	Modification time:	15. 06. 2019 21:29

#	Program:	/corina/corina34_cracker 3.40 0067  02.08.2006

@<TRIPOS>MOLECULE
ASD11030002
  22   22    0    0    0
SMALL
NO_CHARGES


@<TRIPOS>ATOM
   1 O1             0.0021    -0.0041     0.0020 O.2     
   2 C2            -0.0144     1.2114     0.0087 C.2     
   3 C3             1.2553     1.9677     0.0006 C.ar    
   4 C4             2.4752     1.2889    -0.0147 C.ar    
   5 C5             3.6566     2.0000    -0.0226 C.ar    
   6 C6             3.6346     3.3850    -0.0154 C.ar    
   7 C7             2.4274     4.0639     0.0002 C.ar    
   8 C8             1.2394     3.3637     0.0024 C.ar    
   9 Cl9            5.1261     4.2733    -0.0255 Cl      
  10 N10           -1.1906     1.8694     0.0179 N.am    
  11 N11           -2.3943     1.1524     0.0197 N.am    
  12 C12           -3.5705     1.8104     0.0288 C.2     
  13 S13           -5.0414     0.9343     0.0310 S.2     
  14 N14           -3.5888     3.1580     0.0362 N.am    
  15 H15            2.4936     0.2091    -0.0199 H       
  16 H16            4.6009     1.4761    -0.0341 H       
  17 H17            2.4165     5.1438     0.0061 H       
  18 H18            0.2988     3.8942     0.0147 H       
  19 H19           -1.2038     2.8392     0.0232 H       
  20 H20           -2.3811     0.1825     0.0143 H       
  21 H21           -2.7554     3.6544     0.0350 H       
  22 H22           -4.4353     3.6315     0.0428 H       
@<TRIPOS>BOND
   1    1    2 2
   2    2    3 1
   3    2   10 am
   4    3    4 ar
   5    3    8 ar
   6    4    5 ar
   7    4   15 1
   8    5    6 ar
   9    5   16 1
  10    6    7 ar
  11    6    9 1
  12    7    8 ar
  13    7   17 1
  14    8   18 1
  15   10   11 1
  16   10   19 1
  17   11   12 am
  18   11   20 1
  19   12   13 2
  20   12   14 am
  21   14   21 1
  22   14   22 1

#	End of record

