#	Name: ASD17160003
#	Creating user name:	WinNT
#	Creation time:	15. 06. 2019 21:31

#	Modifying user name:	WinNT
#	Modification time:	15. 06. 2019 21:31

#	Program:	/corina/corina34_cracker 3.40 0067  02.08.2006

@<TRIPOS>MOLECULE
ASD17160003
  65   69    0    0    0
SMALL
NO_CHARGES


@<TRIPOS>ATOM
   1 C1            -0.0831     1.4189     0.0005 C.3     
   2 N2            -0.8610     3.3704     1.2589 N.3     
   3 C3            -1.5502     3.8717     2.4554 C.3     
   4 C4             2.4159    -4.1415    -4.0891 C.ar    
   5 C5             3.6379    -1.9731    -7.6116 C.3     
   6 C6             3.6540    -2.8985    -8.8299 C.3     
   7 C7             2.2460    -4.2947   -10.3499 C.3     
   8 C8             4.2237    -3.0663   -11.2568 C.3     
   9 C9             5.1105    -4.2784   -10.9648 C.3     
  10 C10            1.8386    -4.8095    -3.0145 C.ar    
  11 C11            1.2433    -4.1259    -1.9979 C.ar    
  12 C12            1.2044    -2.7216    -2.0219 C.ar    
  13 C13            1.7893    -2.0320    -3.1114 C.ar    
  14 C14            1.7498    -0.6253    -3.1345 C.ar    
  15 C15            1.1449     0.0216    -2.0980 C.ar    
  16 C16            0.5835    -0.7164    -1.0472 C.ar    
  17 N17            0.6196    -2.0335    -1.0342 N.ar    
  18 N18           -0.0287    -0.0451     0.0007 N.pl3   
  19 C19           -0.8064     1.9025     1.2591 C.3     
  20 C20           -1.5871     5.4009     2.4197 C.3     
  21 O21           -2.3847     5.8324     1.3153 O.3     
  22 C22            2.4040    -2.7633    -4.1480 C.ar    
  23 N23            2.9851    -2.0998    -5.2291 N.am    
  24 C24            3.0927    -2.7192    -6.4212 C.2     
  25 O25            2.7507    -3.8772    -6.5360 O.2     
  26 C26            2.2299    -3.3693    -9.1316 C.3     
  27 C27            2.7995    -3.5371   -11.5585 C.3     
  28 C28            4.2075    -2.1409   -10.0385 C.3     
  29 C29            4.5570    -5.0360    -9.7562 C.3     
  30 C30            3.1328    -5.5068   -10.0580 C.3     
  31 C31            4.5408    -4.1106    -8.5379 C.3     
  32 H32            0.9303     1.8201    -0.0130 H       
  33 H33           -0.6217     1.7624    -0.8827 H       
  34 H34           -1.2988     3.7159     0.4181 H       
  35 H35           -2.5687     3.4841     2.4772 H       
  36 H36           -1.0168     3.5419     3.3469 H       
  37 H37            2.8817    -4.7069    -4.8826 H       
  38 H38            4.6525    -1.6376    -7.3967 H       
  39 H39            3.0061    -1.1095    -7.8196 H       
  40 H40            1.2314    -4.6301   -10.5649 H       
  41 H41            4.6180    -2.5266   -12.1178 H       
  42 H42            5.1220    -4.9377   -11.8328 H       
  43 H43            6.1251    -3.9430   -10.7499 H       
  44 H44            1.8626    -5.8888    -2.9856 H       
  45 H45            0.8005    -4.6638    -1.1727 H       
  46 H46            2.1879    -0.0724    -3.9523 H       
  47 H47            1.0987     1.1006    -2.0865 H       
  48 H48           -0.4209    -0.5450     0.7336 H       
  49 H49           -1.8198     1.5012     1.2725 H       
  50 H50           -0.2678     1.5590     2.1423 H       
  51 H51           -2.0184     5.7757     3.3479 H       
  52 H52           -0.5735     5.7863     2.3084 H       
  53 H53           -2.4525     6.7933     1.2308 H       
  54 H54            3.3117    -1.1926    -5.1227 H       
  55 H55            1.8356    -3.9090    -8.2706 H       
  56 H56            1.5981    -2.5057    -9.3397 H       
  57 H57            2.8110    -4.1964   -12.4265 H       
  58 H58            2.1678    -2.6736   -11.7665 H       
  59 H59            3.5758    -1.2774   -10.2465 H       
  60 H60            5.2221    -1.8055    -9.8235 H       
  61 H61            5.1887    -5.8995    -9.5482 H       
  62 H62            2.7385    -6.0465    -9.1970 H       
  63 H63            3.1443    -6.1661   -10.9259 H       
  64 H64            5.5554    -3.7752    -8.3230 H       
  65 H65            4.1465    -4.6503    -7.6769 H       
@<TRIPOS>BOND
   1    1   18 1
   2    1   32 1
   3    1   33 1
   4    1   19 1
   5    2   19 1
   6    2   34 1
   7    2    3 1
   8    3   35 1
   9    3   36 1
  10    3   20 1
  11    4   37 1
  12    4   10 ar
  13    4   22 ar
  14    5   38 1
  15    5   39 1
  16    5    6 1
  17    5   24 1
  18    6   28 1
  19    6   26 1
  20    6   31 1
  21    7   27 1
  22    7   30 1
  23    7   40 1
  24    7   26 1
  25    8   27 1
  26    8    9 1
  27    8   41 1
  28    8   28 1
  29    9   29 1
  30    9   42 1
  31    9   43 1
  32   10   44 1
  33   10   11 ar
  34   11   45 1
  35   11   12 ar
  36   12   13 ar
  37   12   17 ar
  38   13   22 ar
  39   13   14 ar
  40   14   46 1
  41   14   15 ar
  42   15   47 1
  43   15   16 ar
  44   16   17 ar
  45   16   18 1
  46   18   48 1
  47   19   49 1
  48   19   50 1
  49   20   51 1
  50   20   52 1
  51   20   21 1
  52   21   53 1
  53   22   23 1
  54   23   24 am
  55   23   54 1
  56   24   25 2
  57   26   55 1
  58   26   56 1
  59   27   57 1
  60   27   58 1
  61   28   59 1
  62   28   60 1
  63   29   30 1
  64   29   61 1
  65   29   31 1
  66   30   62 1
  67   30   63 1
  68   31   64 1
  69   31   65 1

#	End of record

