#	Name: ASD10438013
#	Creating user name:	WinNT
#	Creation time:	15. 06. 2019 21:27

#	Modifying user name:	WinNT
#	Modification time:	15. 06. 2019 21:27

#	Program:	/corina/corina34_cracker 3.40 0067  02.08.2006

@<TRIPOS>MOLECULE
ASD10438013
  43   45    0    0    0
SMALL
NO_CHARGES


@<TRIPOS>ATOM
   1 N1            -0.0169     1.3952     0.0097 N.pl3   
   2 C2             0.0021    -0.0041     0.0020 C.ar    
   3 C3            -1.1907    -0.7151     0.0096 C.ar    
   4 C4            -1.1710    -2.0960     0.0020 C.ar    
   5 C5             0.0396    -2.7727    -0.0127 C.ar    
   6 C6             1.2315    -2.0633    -0.0198 C.ar    
   7 C7             1.2136    -0.6823    -0.0189 C.ar    
   8 O8             0.0581    -4.1326    -0.0196 O.3     
   9 C9             1.3400    -4.7639    -0.0348 C.3     
  10 N10            0.5630    -6.7227     1.2338 N.3     
  11 C11            1.1601    -6.2833    -0.0407 C.3     
  12 C12            2.5345    -6.9742    -0.1639 C.3     
  13 C13            2.3926    -8.2038     0.7714 C.3     
  14 C14            1.5134    -7.6306     1.9107 C.3     
  15 C15            1.2417     2.1448     0.0017 C.3     
  16 C16            0.9463     3.6226     0.0125 C.ar    
  17 C17            0.8222     4.2939     1.2145 C.ar    
  18 C18            0.5512     5.6494     1.2244 C.ar    
  19 C19            0.4047     6.3336     0.0322 C.ar    
  20 C20            0.5296     5.6625    -1.1698 C.ar    
  21 C21            0.8050     4.3079    -1.1797 C.ar    
  22 H22           -0.8634     1.8687     0.0163 H       
  23 H23           -2.1334    -0.1883     0.0217 H       
  24 H24           -2.0986    -2.6491     0.0079 H       
  25 H25            2.1737    -2.5910    -0.0308 H       
  26 H26            2.1417    -0.1301    -0.0297 H       
  27 H27            1.8846    -4.4590    -0.9283 H       
  28 H28            1.9012    -4.4679     0.8515 H       
  29 H29            0.3385    -5.9323     1.8194 H       
  30 H30            0.5202    -6.5799    -0.8717 H       
  31 H31            2.7163    -7.2902    -1.1911 H       
  32 H32            3.3297    -6.3150     0.1842 H       
  33 H33            1.8867    -9.0247     0.2630 H       
  34 H34            3.3644    -8.5207     1.1499 H       
  35 H35            2.1268    -7.0767     2.6213 H       
  36 H36            0.9767    -8.4334     2.4163 H       
  37 H37            1.8253     1.8846     0.8848 H       
  38 H38            1.8083     1.8941    -0.8951 H       
  39 H39            0.9367     3.7593     2.1459 H       
  40 H40            0.4536     6.1737     2.1635 H       
  41 H41            0.1922     7.3925     0.0399 H       
  42 H42            0.4148     6.1970    -2.1012 H       
  43 H43            0.9062     3.7842    -2.1188 H       
@<TRIPOS>BOND
   1    1    2 1
   2    1   15 1
   3    1   22 1
   4    2    3 ar
   5    2    7 ar
   6    3    4 ar
   7    3   23 1
   8    4    5 ar
   9    4   24 1
  10    5    6 ar
  11    5    8 1
  12    6    7 ar
  13    6   25 1
  14    7   26 1
  15    8    9 1
  16    9   11 1
  17    9   27 1
  18    9   28 1
  19   10   11 1
  20   10   14 1
  21   10   29 1
  22   11   12 1
  23   11   30 1
  24   12   13 1
  25   12   31 1
  26   12   32 1
  27   13   14 1
  28   13   33 1
  29   13   34 1
  30   14   35 1
  31   14   36 1
  32   15   16 1
  33   15   37 1
  34   15   38 1
  35   16   17 ar
  36   16   21 ar
  37   17   18 ar
  38   17   39 1
  39   18   19 ar
  40   18   40 1
  41   19   20 ar
  42   19   41 1
  43   20   21 ar
  44   20   42 1
  45   21   43 1

#	End of record

