#	Name: ASD10160516
#	Creating user name:	WinNT
#	Creation time:	15. 06. 2019 21:26

#	Modifying user name:	WinNT
#	Modification time:	15. 06. 2019 21:26

#	Program:	/corina/corina34_cracker 3.40 0067  02.08.2006

@<TRIPOS>MOLECULE
ASD10160516
  27   27    0    0    0
SMALL
NO_CHARGES


@<TRIPOS>ATOM
   1 C1            -0.0180     1.4726     0.0101 C.2     
   2 C2             0.0021    -0.0041     0.0020 C.ar    
   3 C3             1.2192    -0.6888    -0.0133 C.ar    
   4 C4             1.2311    -2.0676    -0.0203 C.ar    
   5 C5             0.0396    -2.7734    -0.0127 C.ar    
   6 C6            -1.1706    -2.1003     0.0025 C.ar    
   7 C7            -1.1960    -0.7217     0.0154 C.ar    
   8 O8             1.0257     2.0942     0.0035 O.2     
   9 O9            -1.1937     2.1302     0.0193 O.3     
  10 Br10           0.0653    -4.6642    -0.0237 Br      
  11 C11           -1.1373     3.5811     0.0269 C.3     
  12 C12           -0.4028     4.0696    -1.2232 C.3     
  13 C13           -2.5590     4.1466     0.0367 C.3     
  14 C14           -0.3909     4.0560     1.2752 C.3     
  15 H15            2.1491    -0.1395    -0.0199 H       
  16 H16            2.1717    -2.5983    -0.0322 H       
  17 H17           -2.0964    -2.6564     0.0080 H       
  18 H18           -2.1403    -0.1979     0.0318 H       
  19 H19           -0.9345     3.7313    -2.1125 H       
  20 H20           -0.3605     5.1587    -1.2175 H       
  21 H21            0.6100     3.6667    -1.2302 H       
  22 H22           -3.0823     3.7987     0.9273 H       
  23 H23           -2.5167     5.2358     0.0424 H       
  24 H24           -3.0907     3.8083    -0.8526 H       
  25 H25            0.6218     3.6531     1.2682 H       
  26 H26           -0.3487     5.1451     1.2809 H       
  27 H27           -0.9143     3.7080     2.1658 H       
@<TRIPOS>BOND
   1    1    2 1
   2    1    8 2
   3    1    9 1
   4    2    3 ar
   5    2    7 ar
   6    3    4 ar
   7    3   15 1
   8    4    5 ar
   9    4   16 1
  10    5    6 ar
  11    5   10 1
  12    6    7 ar
  13    6   17 1
  14    7   18 1
  15    9   11 1
  16   11   12 1
  17   11   14 1
  18   11   13 1
  19   12   19 1
  20   12   20 1
  21   12   21 1
  22   13   22 1
  23   13   23 1
  24   13   24 1
  25   14   25 1
  26   14   26 1
  27   14   27 1

#	End of record

