#	Name: ASD10160449
#	Creating user name:	WinNT
#	Creation time:	15. 06. 2019 21:26

#	Modifying user name:	WinNT
#	Modification time:	15. 06. 2019 21:26

#	Program:	/corina/corina34_cracker 3.40 0067  02.08.2006

@<TRIPOS>MOLECULE
ASD10160449
  30   31    0    0    0
SMALL
NO_CHARGES


@<TRIPOS>ATOM
   1 C1             0.1052     1.3991     0.8798 C.2     
   2 C2             0.0925    -0.0575     0.6424 C.ar    
   3 C3             0.2757    -0.9426     1.7082 C.ar    
   4 C4             0.2633    -2.3009     1.4827 C.ar    
   5 C5             0.0692    -2.7921     0.1966 C.ar    
   6 C6            -0.1129    -1.9147    -0.8664 C.ar    
   7 C7            -0.1085    -0.5553    -0.6478 C.ar    
   8 O8             0.2752     1.8304     2.0038 O.2     
   9 N9            -0.0662     2.2513    -0.1502 N.am    
  10 O10            0.0580    -4.1312    -0.0217 O.3     
  11 C11           -1.1795    -6.1671    -0.0157 C.ar    
  12 C12           -1.1281    -4.7864     0.0902 C.ar    
  13 C13           -2.3059    -4.0783     0.3132 C.ar    
  14 C14           -3.4907    -4.7869     0.4210 C.ar    
  15 C15           -3.4645    -6.1714     0.3039 C.ar    
  16 N16           -2.3265    -6.8103     0.0926 N.ar    
  17 O17           -4.6205    -6.8759     0.4080 O.3     
  18 C18           -4.5287    -8.2960     0.2788 C.3     
  19 Cl19          -4.9895    -3.9565     0.6995 Cl      
  20 H20            0.4272    -0.5618     2.7074 H       
  21 H21            0.4048    -2.9856     2.3058 H       
  22 H22           -0.2630    -2.3001    -1.8641 H       
  23 H23           -0.2549     0.1256    -1.4733 H       
  24 H24           -0.1978     1.9073    -1.0475 H       
  25 H25           -0.0578     3.2086     0.0058 H       
  26 H26           -0.2707    -6.7229    -0.1931 H       
  27 H27           -2.2957    -3.0019     0.4003 H       
  28 H28           -5.5210    -8.7352     0.3818 H       
  29 H29           -4.1205    -8.5461    -0.7005 H       
  30 H30           -3.8745    -8.6901     1.0565 H       
@<TRIPOS>BOND
   1    1    2 1
   2    1    8 2
   3    1    9 am
   4    2    3 ar
   5    2    7 ar
   6    3    4 ar
   7    3   20 1
   8    4    5 ar
   9    4   21 1
  10    5    6 ar
  11    5   10 1
  12    6    7 ar
  13    6   22 1
  14    7   23 1
  15    9   24 1
  16    9   25 1
  17   10   12 1
  18   11   12 ar
  19   11   16 ar
  20   11   26 1
  21   12   13 ar
  22   13   14 ar
  23   13   27 1
  24   14   15 ar
  25   14   19 1
  26   15   16 ar
  27   15   17 1
  28   17   18 1
  29   18   28 1
  30   18   29 1
  31   18   30 1

#	End of record

