#	Name: ASD10410304
#	Creating user name:	WinNT
#	Creation time:	15. 06. 2019 21:27

#	Modifying user name:	WinNT
#	Modification time:	15. 06. 2019 21:27

#	Program:	/corina/corina34_cracker 3.40 0067  02.08.2006

@<TRIPOS>MOLECULE
ASD10410304
  96  102    0    0    0
SMALL
NO_CHARGES


@<TRIPOS>ATOM
   1 C1             0.2723     1.4114     0.1098 C.ar    
   2 C2            -0.1042     0.1420     0.4657 C.ar    
   3 C3            -1.4269    -0.1403     0.7627 C.ar    
   4 C4            -2.3726     0.8647     0.6997 C.ar    
   5 C5            -1.9943     2.1523     0.3397 C.ar    
   6 C6            -0.6653     2.4251     0.0383 C.ar    
   7 N7            -2.9496     3.1701     0.2755 N.pl3   
   8 C8            -2.5938     4.4818     0.5917 C.2     
   9 N9            -3.3719     5.5311     0.4750 N.2     
  10 N10           -1.4057     4.8711     1.0683 N.2     
  11 C11           -1.4091     6.1735     1.2566 C.2     
  12 N12           -2.6264     6.6432     0.8980 N.pl3   
  13 N13           -0.3561     6.9282     1.7386 N.pl3   
  14 C14           -3.0568     7.9732     0.9403 C.ar    
  15 C15           -4.0777     8.3840     0.0950 C.ar    
  16 N16           -2.4825     8.8167     1.7940 N.ar    
  17 C17           -2.8616    10.0603     1.8569 C.ar    
  18 C18           -3.8785    10.5594     1.0373 C.ar    
  19 C19           -4.5106     9.7161     0.1354 C.ar    
  20 C20           -2.2860    11.1135     2.7859 C.3     
  21 C21           -1.7989    12.2636     1.8808 C.3     
  22 C22           -2.9419    12.7090     0.9660 C.3     
  23 N23           -4.1578    11.9162     1.2343 N.3     
  24 C24           -4.5733    12.1306     2.6344 C.3     
  25 C25           -3.4762    11.6679     3.5956 C.3     
  26 C26           -5.5937    10.2047    -0.7521 C.ar    
  27 C27           -5.5468     9.9458    -2.1208 C.ar    
  28 C28           -6.5577    10.4026    -2.9418 C.ar    
  29 C29           -7.6159    11.1164    -2.4087 C.ar    
  30 C30           -7.6674    11.3767    -1.0511 C.ar    
  31 C31           -6.6652    10.9196    -0.2197 C.ar    
  32 C32            1.7208     1.7126    -0.2148 C.3     
  33 C33            2.5310     1.6522     1.0824 C.3     
  34 C34            2.9654     0.2315     1.3841 C.3     
  35 C35            1.8313    -0.7072     1.7457 C.3     
  36 C36            0.9276    -0.9648     0.5374 C.3     
  37 N37            3.9184     0.2630     2.5015 N.3     
  38 C38            4.5323    -1.0556     2.7072 C.3     
  39 C39            4.9006    -1.2222     4.1828 C.3     
  40 C40            5.4057    -2.6460     4.4249 C.3     
  41 C41            5.9986    -0.2222     4.5505 C.3     
  42 C42            4.9436     1.2938     2.2902 C.3     
  43 C43            5.6101     1.0788     0.9299 C.3     
  44 C44            6.7554     2.0789     0.7595 C.3     
  45 C45            7.8444     1.7885     1.7942 C.3     
  46 C46            7.3413     1.9482    -0.6479 C.3     
  47 H47           -1.7180    -1.1421     1.0420 H       
  48 H48           -3.4056     0.6497     0.9299 H       
  49 H49           -0.3655     3.4240    -0.2421 H       
  50 H50           -3.8600     2.9649     0.0111 H       
  51 H51            0.4817     6.4985     1.9718 H       
  52 H52           -0.4549     7.8874     1.8437 H       
  53 H53           -4.5343     7.6832    -0.5882 H       
  54 H54           -1.4904    10.7184     3.4175 H       
  55 H55           -1.4799    13.1028     2.4990 H       
  56 H56           -0.9611    11.9193     1.2745 H       
  57 H57           -3.1538    13.7636     1.1425 H       
  58 H58           -2.6449    12.5715    -0.0738 H       
  59 H59           -4.7683    13.1911     2.7940 H       
  60 H60           -5.4851    11.5664     2.8300 H       
  61 H61           -3.8687    10.8865     4.2463 H       
  62 H62           -3.1430    12.5115     4.2003 H       
  63 H63           -4.7207     9.3892    -2.5382 H       
  64 H64           -6.5224    10.2025    -4.0025 H       
  65 H65           -8.4046    11.4722    -3.0550 H       
  66 H66           -8.4957    11.9349    -0.6404 H       
  67 H67           -6.7064    11.1234     0.8401 H       
  68 H68            2.1003     0.9717    -0.9185 H       
  69 H69            1.7993     2.7090    -0.6497 H       
  70 H70            3.4142     2.2833     0.9829 H       
  71 H71            1.9185     2.0218     1.9048 H       
  72 H72            3.4779    -0.1667     0.5084 H       
  73 H73            2.2465    -1.6542     2.0908 H       
  74 H74            1.2404    -0.2632     2.5468 H       
  75 H75            0.4266    -1.9259     0.6530 H       
  76 H76            1.5260    -0.9674    -0.3736 H       
  77 H77            3.8260    -1.8342     2.4189 H       
  78 H78            5.4318    -1.1369     2.0969 H       
  79 H79            4.0209    -1.0390     4.7998 H       
  80 H80            6.2854    -2.8292     3.8079 H       
  81 H81            5.6680    -2.7647     5.4761 H       
  82 H82            4.6234    -3.3585     4.1630 H       
  83 H83            6.7628    -0.2195     3.7732 H       
  84 H84            5.5671     0.7749     4.6392 H       
  85 H85            6.4482    -0.5094     5.5010 H       
  86 H86            4.4785     2.2792     2.3152 H       
  87 H87            5.6944     1.2262     3.0775 H       
  88 H88            6.0030     0.0636     0.8742 H       
  89 H89            4.8763     1.2283     0.1380 H       
  90 H90            6.3781     3.0913     0.9034 H       
  91 H91            8.2217     0.7761     1.6503 H       
  92 H92            8.6603     2.5010     1.6728 H       
  93 H93            7.4269     1.8815     2.7968 H       
  94 H94            6.5655     2.1551    -1.3850 H       
  95 H95            8.1572     2.6607    -0.7693 H       
  96 H96            7.7186     0.9358    -0.7918 H       
@<TRIPOS>BOND
   1    1    2 ar
   2    1   32 1
   3    1    6 ar
   4    2    3 ar
   5    2   36 1
   6    3    4 ar
   7    3   47 1
   8    4    5 ar
   9    4   48 1
  10    5    6 ar
  11    5    7 1
  12    6   49 1
  13    7    8 1
  14    7   50 1
  15    8    9 2
  16    8   10 1
  17    9   12 1
  18   10   11 2
  19   11   12 1
  20   11   13 1
  21   12   14 1
  22   13   51 1
  23   13   52 1
  24   14   15 ar
  25   14   16 ar
  26   15   19 ar
  27   15   53 1
  28   16   17 ar
  29   17   18 ar
  30   17   20 1
  31   18   19 ar
  32   18   23 1
  33   19   26 1
  34   20   21 1
  35   20   25 1
  36   20   54 1
  37   21   22 1
  38   21   55 1
  39   21   56 1
  40   22   23 1
  41   22   57 1
  42   22   58 1
  43   23   24 1
  44   24   25 1
  45   24   59 1
  46   24   60 1
  47   25   61 1
  48   25   62 1
  49   26   27 ar
  50   26   31 ar
  51   27   28 ar
  52   27   63 1
  53   28   29 ar
  54   28   64 1
  55   29   30 ar
  56   29   65 1
  57   30   31 ar
  58   30   66 1
  59   31   67 1
  60   32   33 1
  61   32   68 1
  62   32   69 1
  63   33   34 1
  64   33   70 1
  65   33   71 1
  66   34   35 1
  67   34   37 1
  68   34   72 1
  69   35   36 1
  70   35   73 1
  71   35   74 1
  72   36   75 1
  73   36   76 1
  74   37   42 1
  75   37   38 1
  76   38   39 1
  77   38   77 1
  78   38   78 1
  79   39   40 1
  80   39   41 1
  81   39   79 1
  82   40   80 1
  83   40   81 1
  84   40   82 1
  85   41   83 1
  86   41   84 1
  87   41   85 1
  88   42   43 1
  89   42   86 1
  90   42   87 1
  91   43   44 1
  92   43   88 1
  93   43   89 1
  94   44   45 1
  95   44   46 1
  96   44   90 1
  97   45   91 1
  98   45   92 1
  99   45   93 1
 100   46   94 1
 101   46   95 1
 102   46   96 1

#	End of record

