#	Name: ASD14640020
#	Creating user name:	WinNT
#	Creation time:	15. 06. 2019 21:31

#	Modifying user name:	WinNT
#	Modification time:	15. 06. 2019 21:31

#	Program:	/corina/corina34_cracker 3.40 0067  02.08.2006

@<TRIPOS>MOLECULE
ASD14640020
  46   49    0    0    0
SMALL
NO_CHARGES


@<TRIPOS>ATOM
   1 N1            -0.0178     1.4601     0.0101 N.pl3   
   2 C2             0.0021    -0.0041     0.0020 C.3     
   3 C3             1.3919    -0.4730    -0.4435 C.3     
   4 C4             2.4668     0.2342     0.3863 C.3     
   5 C5             2.5200     1.7169    -0.0071 C.3     
   6 C6             0.7009     3.5243     0.0106 C.2     
   7 N7            -0.6460     3.5291     0.0202 N.2     
   8 C8            -1.0866     2.2902     0.0190 C.2     
   9 C9             1.1114     2.2533     0.0035 C.2     
  10 N10           -2.4160     1.9016     0.0253 N.pl3   
  11 C11            1.5072    -1.9854    -0.2430 C.3     
  12 C12            0.5368    -2.6887    -1.1566 C.ar    
  13 C13            0.8982    -2.9736    -2.4633 C.ar    
  14 C14           -0.7116    -3.0543    -0.6886 C.ar    
  15 C15           -1.6041    -3.7005    -1.5236 C.ar    
  16 C16           -1.2523    -3.9832    -2.8302 C.ar    
  17 C17            1.9952    -3.5999    -4.3047 C.3     
  18 O18            2.0478    -2.7306    -3.1580 O.3     
  19 C19           -0.0011    -3.6241    -3.3046 C.ar    
  20 O20            0.5850    -3.7884    -4.5264 O.3     
  21 C21            1.5900     4.7411     0.0082 C.3     
  22 C22            1.2992     5.5827    -1.2360 C.3     
  23 C23            1.3178     5.5740     1.2624 C.3     
  24 H24           -0.2063    -0.3782     1.0044 H       
  25 H25           -0.7500    -0.3763    -0.6937 H       
  26 H26            1.5337    -0.2360    -1.4980 H       
  27 H27            2.2241     0.1474     1.4454 H       
  28 H28            3.4356    -0.2276     0.1958 H       
  29 H29            3.1290     2.2667     0.7105 H       
  30 H30            2.9451     1.8180    -1.0057 H       
  31 H31           -3.1172     2.5718     0.0315 H       
  32 H32           -2.6458     0.9592     0.0234 H       
  33 H33            2.5227    -2.3063    -0.4753 H       
  34 H34            1.2759    -2.2332     0.7929 H       
  35 H35           -0.9900    -2.8351     0.3316 H       
  36 H36           -2.5782    -3.9852    -1.1542 H       
  37 H37           -1.9514    -4.4884    -3.4802 H       
  38 H38            2.4583    -3.1229    -5.1685 H       
  39 H39            2.4792    -4.5518    -4.0862 H       
  40 H40            2.6341     4.4282    -0.0007 H       
  41 H41            1.9422     6.4628    -1.2377 H       
  42 H42            1.4930     4.9893    -2.1295 H       
  43 H43            0.2551     5.8956    -1.2271 H       
  44 H44            1.5250     4.9744     2.1488 H       
  45 H45            1.9609     6.4541     1.2606 H       
  46 H46            0.2738     5.8869     1.2713 H       
@<TRIPOS>BOND
   1    1    2 1
   2    1    9 1
   3    1    8 1
   4    2    3 1
   5    2   24 1
   6    2   25 1
   7    3    4 1
   8    3   11 1
   9    3   26 1
  10    4    5 1
  11    4   27 1
  12    4   28 1
  13    5    9 1
  14    5   29 1
  15    5   30 1
  16    6    7 1
  17    6    9 2
  18    6   21 1
  19    7    8 2
  20    8   10 1
  21   10   31 1
  22   10   32 1
  23   11   12 1
  24   11   33 1
  25   11   34 1
  26   12   14 ar
  27   12   13 ar
  28   13   19 ar
  29   13   18 1
  30   14   15 ar
  31   14   35 1
  32   15   16 ar
  33   15   36 1
  34   16   19 ar
  35   16   37 1
  36   17   18 1
  37   17   20 1
  38   17   38 1
  39   17   39 1
  40   19   20 1
  41   21   22 1
  42   21   23 1
  43   21   40 1
  44   22   41 1
  45   22   42 1
  46   22   43 1
  47   23   44 1
  48   23   45 1
  49   23   46 1

#	End of record

