#	Name: ASD13390021
#	Creating user name:	WinNT
#	Creation time:	15. 06. 2019 21:30

#	Modifying user name:	WinNT
#	Modification time:	15. 06. 2019 21:30

#	Program:	/corina/corina34_cracker 3.40 0067  02.08.2006

@<TRIPOS>MOLECULE
ASD13390021
  34   34    0    0    0
SMALL
NO_CHARGES


@<TRIPOS>ATOM
   1 C1            -0.0165     1.3669     0.0096 C.ar    
   2 C2             0.0021    -0.0041     0.0020 C.ar    
   3 C3             1.2242    -0.6863    -0.0133 C.ar    
   4 C4             2.4249     0.0332    -0.0209 C.ar    
   5 C5             2.4015     1.4040    -0.0133 C.ar    
   6 C6             1.1818     2.0821     0.0020 C.ar    
   7 C7             1.2467    -2.1564    -0.0209 C.2     
   8 N8             2.3872    -2.7917    -0.0352 N.2     
   9 N9             2.4070    -4.0816    -0.0419 N.2     
  10 C10            3.5586    -4.7231    -0.0563 C.2     
  11 N11            4.7355    -4.0193    -0.0642 N.pl3   
  12 N12            3.5796    -6.0942    -0.0634 N.pl3   
  13 C13            1.1591     3.5643     0.0096 C.ar    
  14 C14            2.3541     4.2826     0.0021 C.ar    
  15 C15            2.3267     5.6622     0.0093 C.ar    
  16 C16            1.1167     6.3327     0.0240 C.ar    
  17 C17           -0.0722     5.6254     0.0316 C.ar    
  18 C18           -0.0573     4.2455     0.0186 C.ar    
  19 H19           -0.9593     1.8937     0.0169 H       
  20 H20           -0.9255    -0.5572     0.0082 H       
  21 H21            3.3690    -0.4912    -0.0323 H       
  22 H22            3.3276     1.9595    -0.0191 H       
  23 H23            0.3198    -2.7107    -0.0147 H       
  24 H24            4.7206    -3.0494    -0.0592 H       
  25 H25            5.5828    -4.4914    -0.0748 H       
  26 H26            2.7471    -6.5920    -0.0578 H       
  27 H27            4.4270    -6.5662    -0.0740 H       
  28 H28            3.2993     3.7602    -0.0091 H       
  29 H29            3.2517     6.2197     0.0038 H       
  30 H30            1.1002     7.4125     0.0300 H       
  31 H31           -1.0138     6.1541     0.0434 H       
  32 H32           -0.9861     3.6944     0.0200 H       
  33 Cl33          10.5828    12.4125     5.0434 Cl      
  34 H34           10.5828    13.7825     5.0434 H       
@<TRIPOS>BOND
   1    1    2 ar
   2    1    6 ar
   3    1   19 1
   4    2    3 ar
   5    2   20 1
   6    3    4 ar
   7    3    7 1
   8    4    5 ar
   9    4   21 1
  10    5    6 ar
  11    5   22 1
  12    6   13 1
  13    7    8 2
  14    7   23 1
  15    8    9 1
  16    9   10 2
  17   10   11 1
  18   10   12 1
  19   11   24 1
  20   11   25 1
  21   12   26 1
  22   12   27 1
  23   13   14 ar
  24   13   18 ar
  25   14   15 ar
  26   14   28 1
  27   15   16 ar
  28   15   29 1
  29   16   17 ar
  30   16   30 1
  31   17   18 ar
  32   17   31 1
  33   18   32 1
  34   33   34 1

#	End of record

