#	Name: ASD13520002
#	Creating user name:	WinNT
#	Creation time:	15. 06. 2019 21:30

#	Modifying user name:	WinNT
#	Modification time:	15. 06. 2019 21:30

#	Program:	/corina/corina34_cracker 3.40 0067  02.08.2006

@<TRIPOS>MOLECULE
ASD13520002
  36   38    0    0    0
SMALL
NO_CHARGES


@<TRIPOS>ATOM
   1 C1             0.2467     2.1116    -1.1653 C.ar    
   2 C2             0.3660     0.7511    -1.4554 C.ar    
   3 C3             1.6137     0.1997    -1.6604 C.ar    
   4 C4             2.7455     0.9915    -1.5786 C.ar    
   5 C5             2.6344     2.3405    -1.2914 C.ar    
   6 C6             1.3928     2.9049    -1.0847 C.ar    
   7 C7            -1.0868     2.7104    -0.9506 C.2     
   8 N8            -1.4017     3.6968    -0.0519 N.pl3   
   9 C9            -2.7460     3.9334    -0.2049 C.2     
  10 N10           -3.1734     3.1125    -1.1533 N.2     
  11 N11           -2.1951     2.4012    -1.5903 N.2     
  12 C12           -0.6817     4.4040     0.8677 C.2     
  13 C13           -1.3231     5.3442     1.6258 C.2     
  14 C14           -2.6905     5.5544     1.4395 C.2     
  15 N15           -3.3587     4.8547     0.5483 N.2     
  16 C16           -0.5622     6.1443     2.6514 C.3     
  17 C17           -0.1212     7.4739     2.0363 C.3     
  18 C18           -3.4078     6.5875     2.2696 C.3     
  19 O19            0.6416     4.1784     1.0264 O.3     
  20 C20            4.1053     0.3818    -1.8027 C.3     
  21 H21           -0.5165     0.1318    -1.5189 H       
  22 H22            1.7075    -0.8526    -1.8849 H       
  23 H23            3.5218     2.9528    -1.2287 H       
  24 H24            1.3075     3.9581    -0.8610 H       
  25 H25           -1.2040     6.3369     3.5112 H       
  26 H26            0.3156     5.5832     2.9718 H       
  27 H27           -0.9990     8.0351     1.7160 H       
  28 H28            0.4292     8.0527     2.7781 H       
  29 H29            0.5206     7.2814     1.1765 H       
  30 H30           -3.3744     7.5503     1.7598 H       
  31 H31           -4.4460     6.2855     2.4079 H       
  32 H32           -2.9220     6.6739     3.2415 H       
  33 H33            0.9075     3.2638     0.8594 H       
  34 H34            4.3606     0.4422    -2.8607 H       
  35 H35            4.8478     0.9250    -1.2182 H       
  36 H36            4.0909    -0.6627    -1.4914 H       
@<TRIPOS>BOND
   1    1    2 ar
   2    1    6 ar
   3    1    7 1
   4    2    3 ar
   5    2   21 1
   6    3    4 ar
   7    3   22 1
   8    4    5 ar
   9    4   20 1
  10    5    6 ar
  11    5   23 1
  12    6   24 1
  13    7    8 1
  14    7   11 2
  15    8   12 1
  16    8    9 1
  17    9   10 2
  18    9   15 1
  19   10   11 1
  20   12   13 2
  21   12   19 1
  22   13   14 1
  23   13   16 1
  24   14   15 2
  25   14   18 1
  26   16   17 1
  27   16   25 1
  28   16   26 1
  29   17   27 1
  30   17   28 1
  31   17   29 1
  32   18   30 1
  33   18   31 1
  34   18   32 1
  35   19   33 1
  36   20   34 1
  37   20   35 1
  38   20   36 1

#	End of record

