#	Name: ASD15500006
#	Creating user name:	WinNT
#	Creation time:	15. 06. 2019 21:31

#	Modifying user name:	WinNT
#	Modification time:	15. 06. 2019 21:31

#	Program:	/corina/corina34_cracker 3.40 0067  02.08.2006

@<TRIPOS>MOLECULE
ASD15500006
  47   50    0    0    0
SMALL
NO_CHARGES


@<TRIPOS>ATOM
   1 C1            -0.0166     1.3766     0.0096 C.ar    
   2 C2             0.0021    -0.0041     0.0020 C.ar    
   3 C3             1.2205    -0.6851    -0.0133 C.ar    
   4 C4             2.4135     0.0246    -0.0218 C.ar    
   5 C5             2.4009     1.4026    -0.0151 C.ar    
   6 C6             1.1852     2.0898     0.0020 C.ar    
   7 C7             1.1698     3.5658     0.0100 C.2     
   8 N8             2.3298     4.2519     0.0026 N.am    
   9 C9             2.3145     5.7168     0.0106 C.3     
  10 C10            3.6227     6.2390     0.6108 C.3     
  11 C11            3.6267     7.7685     0.5606 C.3     
  12 N12            3.4941     8.2142    -0.8323 N.3     
  13 C13            2.2234     7.7646    -1.4150 C.3     
  14 C14            2.1776     6.2349    -1.4238 C.3     
  15 C15            3.6328     9.6731    -0.9338 C.3     
  16 C16            3.7377    10.0681    -2.3843 C.ar    
  17 C17            2.5950    10.3585    -3.1059 C.ar    
  18 C18            2.6912    10.7208    -4.4365 C.ar    
  19 C19            3.9301    10.7930    -5.0453 C.ar    
  20 C20            5.0729    10.5034    -4.3234 C.ar    
  21 C21            4.9770    10.1454    -2.9917 C.ar    
  22 O22            0.1106     4.1626     0.0233 O.2     
  23 O23            0.9691    -2.0253    -0.0177 O.3     
  24 C24           -0.3992    -2.1624     0.4084 C.3     
  25 O25           -1.0092    -0.9214     0.0076 O.3     
  26 H26           -0.9588     1.9046     0.0170 H       
  27 H27            3.3546    -0.5050    -0.0333 H       
  28 H28            3.3312     1.9510    -0.0213 H       
  29 H29            3.1748     3.7758    -0.0080 H       
  30 H30            1.4735     6.0691     0.6079 H       
  31 H31            3.7054     5.9087     1.6463 H       
  32 H32            4.4657     5.8539     0.0370 H       
  33 H33            2.7916     8.1533     1.1460 H       
  34 H34            4.5630     8.1431     0.9742 H       
  35 H35            1.3949     8.1493    -0.8203 H       
  36 H36            2.1406     8.1363    -2.4363 H       
  37 H37            2.9978     5.8498    -2.0297 H       
  38 H38            1.2278     5.9017    -1.8420 H       
  39 H39            2.7611    10.1528    -0.4887 H       
  40 H40            4.5317     9.9902    -0.4049 H       
  41 H41            1.6270    10.3021    -2.6302 H       
  42 H42            1.7983    10.9470    -5.0004 H       
  43 H43            4.0052    11.0753    -6.0850 H       
  44 H44            6.0409    10.5595    -4.7992 H       
  45 H45            5.8702     9.9228    -2.4267 H       
  46 H46           -0.8748    -3.0034    -0.0961 H       
  47 H47           -0.4529    -2.2836     1.4903 H       
@<TRIPOS>BOND
   1    1    2 ar
   2    1    6 ar
   3    1   26 1
   4    2   25 1
   5    2    3 ar
   6    3    4 ar
   7    3   23 1
   8    4    5 ar
   9    4   27 1
  10    5    6 ar
  11    5   28 1
  12    6    7 1
  13    7    8 am
  14    7   22 2
  15    8    9 1
  16    8   29 1
  17    9   10 1
  18    9   14 1
  19    9   30 1
  20   10   11 1
  21   10   31 1
  22   10   32 1
  23   11   12 1
  24   11   33 1
  25   11   34 1
  26   12   13 1
  27   12   15 1
  28   13   14 1
  29   13   35 1
  30   13   36 1
  31   14   37 1
  32   14   38 1
  33   15   16 1
  34   15   39 1
  35   15   40 1
  36   16   17 ar
  37   16   21 ar
  38   17   18 ar
  39   17   41 1
  40   18   19 ar
  41   18   42 1
  42   19   20 ar
  43   19   43 1
  44   20   21 ar
  45   20   44 1
  46   21   45 1
  47   23   24 1
  48   24   25 1
  49   24   46 1
  50   24   47 1

#	End of record

