#	Name: ASD10160201
#	Creating user name:	WinNT
#	Creation time:	15. 06. 2019 21:25

#	Modifying user name:	WinNT
#	Modification time:	15. 06. 2019 21:25

#	Program:	/corina/corina34_cracker 3.40 0067  02.08.2006

@<TRIPOS>MOLECULE
ASD10160201
  42   44    0    0    0
SMALL
NO_CHARGES


@<TRIPOS>ATOM
   1 C1            -0.0167     1.4705    -0.0149 C.2     
   2 C2             0.0037    -0.0040    -0.0164 C.ar    
   3 C3             0.0414    -0.7068     1.1936 C.ar    
   4 C4             0.0598    -2.0872     1.1869 C.ar    
   5 C5             0.0411    -2.7777    -0.0173 C.ar    
   6 C6             0.0041    -2.0823    -1.2231 C.ar    
   7 C7            -0.0204    -0.7044    -1.2262 C.ar    
   8 O8            -0.0007     2.0777     1.0386 O.2     
   9 N9            -0.0473     2.1452    -1.1812 N.am    
  10 S10           -0.0702     3.8010    -1.1795 S.o2    
  11 O11           -0.1260     4.1521    -2.5553 O.2     
  12 O12           -1.1302     4.1359    -0.2944 O.2     
  13 C13            1.5287     4.2751    -0.4659 C.3     
  14 O14            0.0594    -4.1351    -0.0193 O.3     
  15 N15            2.3385    -4.0316    -0.3412 N.ar    
  16 C16            1.2592    -4.7555    -0.1384 C.ar    
  17 C17            1.3193    -6.1512    -0.0422 C.ar    
  18 C18            2.5179    -6.7894    -0.1598 C.ar    
  19 C19            3.6713    -6.0085    -0.3775 C.ar    
  20 C20            4.9367    -6.6000    -0.5074 C.ar    
  21 C21            6.0325    -5.8108    -0.7173 C.ar    
  22 C22            5.9062    -4.4219    -0.8036 C.ar    
  23 C23            4.6921    -3.8200    -0.6810 C.ar    
  24 C24            3.5433    -4.6005    -0.4654 C.ar    
  25 O25            7.2588    -6.3833    -0.8432 O.3     
  26 C26            8.3652    -5.5055    -1.0613 C.3     
  27 F27           -0.0136    -2.7596    -2.3919 F       
  28 F28            0.0601    -0.0355     2.3658 F       
  29 H29            0.0893    -2.6306     2.1198 H       
  30 H30           -0.0536    -0.1662    -2.1620 H       
  31 H31           -0.0560     1.6608    -2.0216 H       
  32 H32            2.3343     3.8798    -1.0848 H       
  33 H33            1.6009     5.3619    -0.4261 H       
  34 H34            1.6118     3.8682     0.5419 H       
  35 H35            0.4173    -6.7211     0.1254 H       
  36 H36            2.5825    -7.8650    -0.0878 H       
  37 H37            5.0443    -7.6726    -0.4414 H       
  38 H38            6.7855    -3.8172    -0.9696 H       
  39 H39            4.6113    -2.7452    -0.7501 H       
  40 H40            9.2817    -6.0898    -1.1437 H       
  41 H41            8.2079    -4.9446    -1.9825 H       
  42 H42            8.4499    -4.8128    -0.2240 H       
@<TRIPOS>BOND
   1    1    2 1
   2    1    8 2
   3    1    9 am
   4    2    3 ar
   5    2    7 ar
   6    3    4 ar
   7    3   28 1
   8    4    5 ar
   9    4   29 1
  10    5    6 ar
  11    5   14 1
  12    6    7 ar
  13    6   27 1
  14    7   30 1
  15    9   10 am
  16    9   31 1
  17   10   11 2
  18   10   12 2
  19   10   13 1
  20   13   32 1
  21   13   33 1
  22   13   34 1
  23   14   16 1
  24   15   16 ar
  25   15   24 ar
  26   16   17 ar
  27   17   18 ar
  28   17   35 1
  29   18   19 ar
  30   18   36 1
  31   19   20 ar
  32   19   24 ar
  33   20   21 ar
  34   20   37 1
  35   21   22 ar
  36   21   25 1
  37   22   23 ar
  38   22   38 1
  39   23   24 ar
  40   23   39 1
  41   25   26 1
  42   26   40 1
  43   26   41 1
  44   26   42 1

#	End of record

