#	Name: ASD14870004
#	Creating user name:	WinNT
#	Creation time:	15. 06. 2019 21:31

#	Modifying user name:	WinNT
#	Modification time:	15. 06. 2019 21:31

#	Program:	/corina/corina34_cracker 3.40 0067  02.08.2006

@<TRIPOS>MOLECULE
ASD14870004
  55   57    0    0    0
SMALL
NO_CHARGES


@<TRIPOS>ATOM
   1 C1            -0.0167     1.3781     0.0096 C.ar    
   2 C2             0.0021    -0.0041     0.0020 C.ar    
   3 C3             1.2084    -0.6789    -0.0132 C.ar    
   4 C4             2.3960     0.0285    -0.0212 C.ar    
   5 C5             2.3773     1.4107    -0.0145 C.ar    
   6 C6             1.1710     2.0855     0.0021 C.ar    
   7 C7            -1.2926    -0.7753     0.0108 C.3     
   8 C8            -2.0874    -0.4233     1.2699 C.3     
   9 C9            -2.1123    -0.4099    -1.2284 C.3     
  10 C10           -0.9927    -2.2755    -0.0003 C.3     
  11 C11           -2.3071    -3.0585     0.0087 C.3     
  12 S12            3.8911     2.3124    -0.0242 S.o2    
  13 O13            3.6013     3.5889     0.5289 O.2     
  14 O14            4.8803     1.4415     0.5071 O.2     
  15 N15            4.2977     2.5707    -1.6086 N.am    
  16 C16            3.4477     3.4115    -2.4553 C.3     
  17 C17            4.2114     3.7940    -3.7246 C.3     
  18 S18            3.1589     4.8350    -4.7730 S.3     
  19 C19            4.2206     5.1792    -6.2031 C.3     
  20 N20            3.4419     7.3844    -7.0812 N.am    
  21 C21            3.4843     6.0575    -7.1766 C.2     
  22 S22            5.7239     6.0388    -5.6518 S.3     
  23 C23            5.1149     7.6644    -5.3364 C.ar    
  24 C24            4.0425     8.1507    -6.0853 C.ar    
  25 C25            5.6974     8.4479    -4.3540 C.ar    
  26 C26            5.2141     9.7206    -4.1102 C.ar    
  27 C27            4.1505    10.2076    -4.8471 C.ar    
  28 C28            3.5656     9.4310    -5.8285 C.ar    
  29 O29            2.8985     5.5288    -8.0978 O.2     
  30 H30           -0.9592     1.9054     0.0170 H       
  31 H31            1.2231    -1.7588    -0.0184 H       
  32 H32            3.3386    -0.4987    -0.0324 H       
  33 H33            1.1563     3.1654     0.0077 H       
  34 H34           -2.3010     0.6455     1.2778 H       
  35 H35           -3.0238    -0.9811     1.2763 H       
  36 H36           -1.5034    -0.6836     2.1527 H       
  37 H37           -1.5461    -0.6606    -2.1254 H       
  38 H38           -3.0487    -0.9677    -1.2221 H       
  39 H39           -2.3260     0.6589    -1.2205 H       
  40 H40           -0.4265    -2.5263    -0.8973 H       
  41 H41           -0.4088    -2.5358     0.8826 H       
  42 H42           -2.0935    -4.1273     0.0008 H       
  43 H43           -2.8733    -2.8077     0.9057 H       
  44 H44           -2.8911    -2.7982    -0.8742 H       
  45 H45            5.0986     2.1653    -1.9761 H       
  46 H46            2.5463     2.8614    -2.7254 H       
  47 H47            3.1726     4.3148    -1.9107 H       
  48 H48            5.1128     4.3441    -3.4545 H       
  49 H49            4.4865     2.8907    -4.2692 H       
  50 H50            4.4933     4.2423    -6.6888 H       
  51 H51            2.9483     7.8606    -7.7671 H       
  52 H52            6.5277     8.0654    -3.7789 H       
  53 H53            5.6668    10.3333    -3.3446 H       
  54 H54            3.7740    11.2013    -4.6538 H       
  55 H55            2.7351     9.8202    -6.3988 H       
@<TRIPOS>BOND
   1    1    2 ar
   2    1    6 ar
   3    1   30 1
   4    2    3 ar
   5    2    7 1
   6    3    4 ar
   7    3   31 1
   8    4    5 ar
   9    4   32 1
  10    5    6 ar
  11    5   12 1
  12    6   33 1
  13    7    8 1
  14    7    9 1
  15    7   10 1
  16    8   34 1
  17    8   35 1
  18    8   36 1
  19    9   37 1
  20    9   38 1
  21    9   39 1
  22   10   11 1
  23   10   40 1
  24   10   41 1
  25   11   42 1
  26   11   43 1
  27   11   44 1
  28   12   13 2
  29   12   14 2
  30   12   15 am
  31   15   16 1
  32   15   45 1
  33   16   17 1
  34   16   46 1
  35   16   47 1
  36   17   18 1
  37   17   48 1
  38   17   49 1
  39   18   19 1
  40   19   22 1
  41   19   21 1
  42   19   50 1
  43   20   21 am
  44   20   24 1
  45   20   51 1
  46   21   29 2
  47   22   23 1
  48   23   25 ar
  49   23   24 ar
  50   24   28 ar
  51   25   26 ar
  52   25   52 1
  53   26   27 ar
  54   26   53 1
  55   27   28 ar
  56   27   54 1
  57   28   55 1

#	End of record

