#	Name: ASD10410206
#	Creating user name:	WinNT
#	Creation time:	15. 06. 2019 21:27

#	Modifying user name:	WinNT
#	Modification time:	15. 06. 2019 21:27

#	Program:	/corina/corina34_cracker 3.40 0067  02.08.2006

@<TRIPOS>MOLECULE
ASD10410206
  68   73    0    0    0
SMALL
NO_CHARGES


@<TRIPOS>ATOM
   1 C1             0.9735    -0.4661     0.3459 C.ar    
   2 C2             0.1214    -0.0727    -0.6756 C.ar    
   3 C3             0.4115     1.0578    -1.4252 C.ar    
   4 C4             1.5488     1.7930    -1.1547 C.ar    
   5 C5             2.4022     1.4002    -0.1319 C.ar    
   6 C6             2.1112     0.2679     0.6177 C.ar    
   7 O7            -0.9987    -0.7962    -0.9426 O.3     
   8 N8             3.5552     2.1448     0.1429 N.pl3   
   9 C9             3.5537     3.5263    -0.0435 C.2     
  10 N10            4.5966     4.3111     0.0820 N.2     
  11 N11            2.4886     4.2617    -0.3847 N.2     
  12 C12            2.8344     5.5276    -0.4771 C.2     
  13 N13            4.1621     5.6183    -0.1910 N.pl3   
  14 C14            4.9325     6.7724    -0.1726 C.ar    
  15 N15            2.0000     6.5767    -0.8083 N.pl3   
  16 C16            6.1984     6.8096    -0.8045 C.ar    
  17 C17           -1.8310    -0.3337    -2.0083 C.3     
  18 C18           -3.0335    -1.2677    -2.1584 C.3     
  19 N19           -3.8678    -1.1896    -0.9518 N.3     
  20 C20           -5.1515    -1.8870    -1.1510 C.3     
  21 N21            4.4995     7.8677     0.4316 N.ar    
  22 C22            5.2275     8.9806     0.4563 C.ar    
  23 N23            6.4151     9.0692    -0.1116 N.ar    
  24 C24            6.9399     8.0159    -0.7533 C.ar    
  25 N25            4.7180    10.0915     1.1040 N.3     
  26 C26           -5.2677    -2.9559    -0.0440 C.3     
  27 C27           -4.3115    -2.4250     1.0562 C.3     
  28 C28           -3.1790    -1.7937     0.2086 C.3     
  29 C29            8.1988     8.0738    -1.3675 C.ar    
  30 C30            8.6869     6.9735    -2.0071 C.ar    
  31 C31            7.9546     5.7907    -2.0607 C.ar    
  32 C32            6.7290     5.6982    -1.4697 C.ar    
  33 C33            5.6557    11.2213     1.0289 C.3     
  34 C34            5.0285    12.4438     1.7043 C.3     
  35 O35            4.6855    12.1135     3.0529 O.3     
  36 C36            3.7732    11.0177     3.1630 C.3     
  37 C37            4.3876     9.7807     2.5024 C.3     
  38 H38            0.7447    -1.3441     0.9316 H       
  39 H39           -0.2521     1.3629    -2.2208 H       
  40 H40            1.7747     2.6730    -1.7387 H       
  41 H41            2.7741    -0.0382     1.4135 H       
  42 H42            4.3552     1.6995     0.4631 H       
  43 H43            1.0635     6.4102    -0.9982 H       
  44 H44            2.3504     7.4802    -0.8511 H       
  45 H45           -2.1797     0.6747    -1.7855 H       
  46 H46           -1.2604    -0.3239    -2.9369 H       
  47 H47           -3.6207    -0.9674    -3.0262 H       
  48 H48           -2.6839    -2.2913    -2.2928 H       
  49 H49           -5.9752    -1.1778    -1.0696 H       
  50 H50           -5.1659    -2.3646    -2.1307 H       
  51 H51           -6.2901    -3.0144     0.3293 H       
  52 H52           -4.9335    -3.9269    -0.4093 H       
  53 H53           -4.8042    -1.6724     1.6719 H       
  54 H54           -3.9311    -3.2414     1.6701 H       
  55 H55           -2.4799    -2.5616    -0.1227 H       
  56 H56           -2.6581    -1.0270     0.7821 H       
  57 H57            8.7781     8.9847    -1.3344 H       
  58 H58            9.6568     7.0201    -2.4800 H       
  59 H59            8.3643     4.9335    -2.5742 H       
  60 H60            6.1702     4.7753    -1.5178 H       
  61 H61            6.5827    10.9594     1.5388 H       
  62 H62            5.8663    11.4507    -0.0157 H       
  63 H63            5.7425    13.2674     1.7016 H       
  64 H64            4.1301    12.7383     1.1619 H       
  65 H65            3.5793    10.8098     4.2153 H       
  66 H66            2.8383    11.2707     2.6630 H       
  67 H67            3.6727     8.9585     2.5334 H       
  68 H68            5.2944     9.4958     3.0359 H       
@<TRIPOS>BOND
   1    1    2 ar
   2    1    6 ar
   3    1   38 1
   4    2    3 ar
   5    2    7 1
   6    3    4 ar
   7    3   39 1
   8    4    5 ar
   9    4   40 1
  10    5    6 ar
  11    5    8 1
  12    6   41 1
  13    7   17 1
  14    8    9 1
  15    8   42 1
  16    9   10 2
  17    9   11 1
  18   10   13 1
  19   11   12 2
  20   12   13 1
  21   12   15 1
  22   13   14 1
  23   14   16 ar
  24   14   21 ar
  25   15   43 1
  26   15   44 1
  27   16   24 ar
  28   16   32 ar
  29   17   18 1
  30   17   45 1
  31   17   46 1
  32   18   19 1
  33   18   47 1
  34   18   48 1
  35   19   20 1
  36   19   28 1
  37   20   26 1
  38   20   49 1
  39   20   50 1
  40   21   22 ar
  41   22   23 ar
  42   22   25 1
  43   23   24 ar
  44   24   29 ar
  45   25   33 1
  46   25   37 1
  47   26   27 1
  48   26   51 1
  49   26   52 1
  50   27   28 1
  51   27   53 1
  52   27   54 1
  53   28   55 1
  54   28   56 1
  55   29   30 ar
  56   29   57 1
  57   30   31 ar
  58   30   58 1
  59   31   32 ar
  60   31   59 1
  61   32   60 1
  62   33   34 1
  63   33   61 1
  64   33   62 1
  65   34   35 1
  66   34   63 1
  67   34   64 1
  68   35   36 1
  69   36   37 1
  70   36   65 1
  71   36   66 1
  72   37   67 1
  73   37   68 1

#	End of record

