#	Name: ASD14170024
#	Creating user name:	WinNT
#	Creation time:	15. 06. 2019 21:31

#	Modifying user name:	WinNT
#	Modification time:	15. 06. 2019 21:31

#	Program:	/corina/corina34_cracker 3.40 0067  02.08.2006

@<TRIPOS>MOLECULE
ASD14170024
  42   44    0    0    0
SMALL
NO_CHARGES


@<TRIPOS>ATOM
   1 C1             0.3624     1.8741     0.0291 C.2     
   2 C2             0.3878     0.4890    -0.2235 C.2     
   3 C3             1.5538    -0.0080     0.3296 C.2     
   4 N4             2.2059     1.0335     0.8931 N.pl3   
   5 N5             1.4432     2.1895     0.6914 N.2     
   6 N6             1.9769    -1.3339     0.3101 N.am    
   7 C7             3.1592    -1.6557    -0.2511 C.2     
   8 N8             3.5936    -2.9313    -0.2228 N.am    
   9 O9             3.8341    -0.7954    -0.7829 O.2     
  10 C10            4.8663    -3.2487    -0.7133 C.ar    
  11 C11            6.6412    -2.8701    -2.2809 C.ar    
  12 C12            7.3813    -3.8765    -1.6835 C.ar    
  13 C13            6.8627    -4.5727    -0.6047 C.ar    
  14 C14            5.6079    -4.2610    -0.1191 C.ar    
  15 C15            5.3860    -2.5553    -1.7983 C.ar    
  16 F16            8.6089    -4.1830    -2.1570 F       
  17 C17            3.4900     0.9640     1.5949 C.3     
  18 C18           -0.6444    -0.2919    -0.9484 C.ar    
  19 C19           -1.8403    -0.7823    -2.9716 C.ar    
  20 C20           -2.5720    -1.7490    -2.3014 C.ar    
  21 C21           -2.3461    -1.9854    -0.9552 C.ar    
  22 C22           -1.3867    -1.2617    -0.2770 C.ar    
  23 C23           -0.8788    -0.0538    -2.3015 C.ar    
  24 F24           -3.5123    -2.4599    -2.9615 F       
  25 C25           -0.7223     2.8295    -0.3971 C.3     
  26 C26           -1.7467     2.9107     0.6569 C.1     
  27 N27           -2.5372     2.9733     1.4704 N.1     
  28 H28            1.4208    -2.0262     0.7005 H       
  29 H29            3.0246    -3.6295     0.1373 H       
  30 H30            7.0474    -2.3283    -3.1222 H       
  31 H31            7.4413    -5.3576    -0.1404 H       
  32 H32            5.2039    -4.8040     0.7226 H       
  33 H33            4.8089    -1.7706    -2.2647 H       
  34 H34            4.3027     1.0747     0.8771 H       
  35 H35            3.5448     1.7648     2.3323 H       
  36 H36            3.5777     0.0007     2.0974 H       
  37 H37           -2.0197    -0.6014    -4.0211 H       
  38 H38           -2.9189    -2.7401    -0.4368 H       
  39 H39           -1.2109    -1.4469     0.7724 H       
  40 H40           -0.3090     0.6999    -2.8247 H       
  41 H41           -0.2921     3.8173    -0.5625 H       
  42 H42           -1.1786     2.4727    -1.3204 H       
@<TRIPOS>BOND
   1    1    2 1
   2    1    5 2
   3    1   25 1
   4    2    3 2
   5    2   18 1
   6    3    4 1
   7    3    6 1
   8    4    5 1
   9    4   17 1
  10    6    7 am
  11    6   28 1
  12    7    8 am
  13    7    9 2
  14    8   10 1
  15    8   29 1
  16   10   15 ar
  17   10   14 ar
  18   11   12 ar
  19   11   15 ar
  20   11   30 1
  21   12   13 ar
  22   12   16 1
  23   13   14 ar
  24   13   31 1
  25   14   32 1
  26   15   33 1
  27   17   34 1
  28   17   35 1
  29   17   36 1
  30   18   23 ar
  31   18   22 ar
  32   19   20 ar
  33   19   23 ar
  34   19   37 1
  35   20   21 ar
  36   20   24 1
  37   21   22 ar
  38   21   38 1
  39   22   39 1
  40   23   40 1
  41   25   26 1
  42   25   41 1
  43   25   42 1
  44   26   27 3

#	End of record

