#	Name: ASD13110064
#	Creating user name:	WinNT
#	Creation time:	15. 06. 2019 21:30

#	Modifying user name:	WinNT
#	Modification time:	15. 06. 2019 21:30

#	Program:	/corina/corina34_cracker 3.40 0067  02.08.2006

@<TRIPOS>MOLECULE
ASD13110064
  47   48    0    0    0
SMALL
NO_CHARGES


@<TRIPOS>ATOM
   1 C1            -0.0169     1.3925     0.0097 C.ar    
   2 C2             0.0021    -0.0041     0.0020 C.ar    
   3 C3             1.2336    -0.6789    -0.0134 C.ar    
   4 C4             2.4186     0.0404    -0.0197 C.ar    
   5 C5             2.3846     1.4205    -0.0109 C.ar    
   6 C6             1.1694     2.0931     0.0021 C.ar    
   7 N7             0.9276    -2.0313    -0.0185 N.am    
   8 C8            -0.4364    -2.1353    -0.0064 C.2     
   9 N9            -0.9725    -0.9521     0.0055 N.2     
  10 C10           -1.2043    -3.4320    -0.0074 C.3     
  11 N11           -1.4403    -3.8608     1.3735 N.am    
  12 C12           -2.6499    -3.4288     2.0781 C.3     
  13 C13           -0.5446    -4.6527     1.9956 C.2     
  14 O14            0.4587    -5.0111     1.4112 O.2     
  15 O15           -0.7614    -5.0468     3.2646 O.3     
  16 C16            0.2455    -5.8989     3.8714 C.3     
  17 C17            1.5884    -5.1661     3.8923 C.3     
  18 C18           -0.1713    -6.2407     5.3033 C.3     
  19 C19            0.3804    -7.1878     3.0581 C.3     
  20 C20            1.8083    -3.0514    -0.0330 C.2     
  21 O21            2.2371    -3.5534    -1.2056 O.3     
  22 C22            3.1854    -4.6514    -1.1453 C.3     
  23 Cl23           3.8691     2.3203    -0.0189 Cl      
  24 Cl24           1.1453     3.8289     0.0117 Cl      
  25 O25            2.2149    -3.5175     1.0121 O.2     
  26 C26            3.5543    -5.0852    -2.5653 C.3     
  27 H27           -0.9584     1.9215     0.0170 H       
  28 H28            3.3661    -0.4777    -0.0312 H       
  29 H29           -2.1600    -3.2880    -0.5114 H       
  30 H30           -0.6285    -4.1949    -0.5313 H       
  31 H31           -3.4467    -4.1532     1.9097 H       
  32 H32           -2.4427    -3.3582     3.1459 H       
  33 H33           -2.9602    -2.4536     1.7029 H       
  34 H34            1.4923    -4.2479     4.4718 H       
  35 H35            2.3444    -5.8058     4.3479 H       
  36 H36            1.8854    -4.9226     2.8722 H       
  37 H37           -1.1280    -6.7628     5.2885 H       
  38 H38            0.5846    -6.8804     5.7589 H       
  39 H39           -0.2674    -5.3225     5.8828 H       
  40 H40            0.6774    -6.9443     2.0380 H       
  41 H41            1.1363    -7.8274     3.5137 H       
  42 H42           -0.5763    -7.7098     3.0432 H       
  43 H43            4.0835    -4.3274    -0.6194 H       
  44 H44            2.7362    -5.4906    -0.6141 H       
  45 H45            2.6562    -5.4093    -3.0912 H       
  46 H46            4.0035    -4.2460    -3.0965 H       
  47 H47            4.2662    -5.9095    -2.5200 H       
@<TRIPOS>BOND
   1    1    2 ar
   2    1    6 ar
   3    1   27 1
   4    2    9 1
   5    2    3 ar
   6    3    4 ar
   7    3    7 1
   8    4    5 ar
   9    4   28 1
  10    5    6 ar
  11    5   23 1
  12    6   24 1
  13    7    8 1
  14    7   20 am
  15    8   10 1
  16    8    9 2
  17   10   11 1
  18   10   29 1
  19   10   30 1
  20   11   12 1
  21   11   13 am
  22   12   31 1
  23   12   32 1
  24   12   33 1
  25   13   14 2
  26   13   15 1
  27   15   16 1
  28   16   17 1
  29   16   18 1
  30   16   19 1
  31   17   34 1
  32   17   35 1
  33   17   36 1
  34   18   37 1
  35   18   38 1
  36   18   39 1
  37   19   40 1
  38   19   41 1
  39   19   42 1
  40   20   21 1
  41   20   25 2
  42   21   22 1
  43   22   26 1
  44   22   43 1
  45   22   44 1
  46   26   45 1
  47   26   46 1
  48   26   47 1

#	End of record

