#	Name: ASD14170021
#	Creating user name:	WinNT
#	Creation time:	15. 06. 2019 21:31

#	Modifying user name:	WinNT
#	Modification time:	15. 06. 2019 21:31

#	Program:	/corina/corina34_cracker 3.40 0067  02.08.2006

@<TRIPOS>MOLECULE
ASD14170021
  42   44    0    0    0
SMALL
NO_CHARGES


@<TRIPOS>ATOM
   1 C1             0.2794     1.8776    -0.0294 C.2     
   2 C2             0.3947     0.4439    -0.3033 C.2     
   3 C3             1.5913     0.0333     0.2501 C.2     
   4 N4             2.1754     1.1166     0.8215 N.pl3   
   5 N5             1.3572     2.2354     0.6397 N.2     
   6 N6             2.1056    -1.2599     0.2266 N.am    
   7 C7             3.3090    -1.4965    -0.3323 C.2     
   8 N8             3.8298    -2.7394    -0.3098 N.am    
   9 O9             3.9248    -0.5887    -0.8567 O.2     
  10 C10            5.1225    -2.9659    -0.7986 C.ar    
  11 C11            6.8783    -2.4434    -2.3460 C.ar    
  12 C12            7.6773    -3.4134    -1.7645 C.ar    
  13 C13            7.1977    -4.1638    -0.7041 C.ar    
  14 C14            5.9231    -3.9420    -0.2206 C.ar    
  15 C15            5.6031    -2.2186    -1.8655 C.ar    
  16 F16            8.9242    -3.6322    -2.2363 F       
  17 C17            3.4629     1.1141     1.5205 C.3     
  18 C18           -0.5815    -0.4008    -1.0311 C.ar    
  19 C19           -1.7417    -0.9621    -3.0570 C.ar    
  20 C20           -2.4058    -1.9795    -2.3912 C.ar    
  21 C21           -2.1645    -2.2061    -1.0459 C.ar    
  22 C22           -1.2567    -1.4223    -0.3640 C.ar    
  23 C23           -0.8320    -0.1729    -2.3837 C.ar    
  24 F24           -3.2957    -2.7497    -3.0547 F       
  25 C25           -0.8330     2.7590    -0.4330 C.2     
  26 N26           -0.8070     4.0675    -0.1110 N.am    
  27 O27           -1.7732     2.3049    -1.0560 O.2     
  28 H28            1.5979    -1.9908     0.6126 H       
  29 H29            3.3092    -3.4771     0.0449 H       
  30 H30            7.2543    -1.8590    -3.1727 H       
  31 H31            7.8223    -4.9201    -0.2521 H       
  32 H32            5.5495    -4.5272     0.6067 H       
  33 H33            4.9802    -1.4621    -2.3195 H       
  34 H34            4.2692     1.2380     0.7974 H       
  35 H35            3.4887     1.9346     2.2375 H       
  36 H36            3.5889     0.1677     2.0465 H       
  37 H37           -1.9331    -0.7893    -4.1058 H       
  38 H38           -2.6847    -3.0004    -0.5312 H       
  39 H39           -1.0690    -1.5999     0.6846 H       
  40 H40           -0.3151     0.6202    -2.9034 H       
  41 H41           -0.0569     4.4298     0.3861 H       
  42 H42           -1.5383     4.6469    -0.3763 H       
@<TRIPOS>BOND
   1    1    2 1
   2    1    5 2
   3    1   25 1
   4    2    3 2
   5    2   18 1
   6    3    4 1
   7    3    6 1
   8    4    5 1
   9    4   17 1
  10    6    7 am
  11    6   28 1
  12    7    8 am
  13    7    9 2
  14    8   10 1
  15    8   29 1
  16   10   15 ar
  17   10   14 ar
  18   11   12 ar
  19   11   15 ar
  20   11   30 1
  21   12   13 ar
  22   12   16 1
  23   13   14 ar
  24   13   31 1
  25   14   32 1
  26   15   33 1
  27   17   34 1
  28   17   35 1
  29   17   36 1
  30   18   23 ar
  31   18   22 ar
  32   19   20 ar
  33   19   23 ar
  34   19   37 1
  35   20   21 ar
  36   20   24 1
  37   21   22 ar
  38   21   38 1
  39   22   39 1
  40   23   40 1
  41   25   26 am
  42   25   27 2
  43   26   41 1
  44   26   42 1

#	End of record

