#	Name: ASD11000118
#	Creating user name:	WinNT
#	Creation time:	15. 06. 2019 21:28

#	Modifying user name:	WinNT
#	Modification time:	15. 06. 2019 21:28

#	Program:	/corina/corina34_cracker 3.40 0067  02.08.2006

@<TRIPOS>MOLECULE
ASD11000118
  49   51    0    0    0
SMALL
NO_CHARGES


@<TRIPOS>ATOM
   1 C1            -0.1451     0.8491    -0.1612 C.3     
   2 C2             0.0159    -0.6625     0.0224 C.3     
   3 C3             0.8429    -0.9333     1.2814 C.3     
   4 N4             2.1589    -0.2951     1.1507 N.3     
   5 C5             2.0318     1.1621     1.0207 C.3     
   6 C6             1.2404     1.4954    -0.2460 C.3     
   7 C7            -0.9075     1.1236    -1.4318 C.ar    
   8 C8            -1.7016     2.2507    -1.5315 C.ar    
   9 C9            -2.4010     2.5026    -2.6970 C.ar    
  10 C10           -2.3060     1.6275    -3.7629 C.ar    
  11 C11           -1.5112     0.5009    -3.6635 C.ar    
  12 C12           -0.8084     0.2513    -2.4996 C.ar    
  13 C13            3.0300    -0.6489     2.2795 C.3     
  14 C14            4.4569    -0.1792     1.9893 C.3     
  15 C15            5.3788    -0.6736     3.0741 C.ar    
  16 C16            5.6808     0.1428     4.1483 C.ar    
  17 C17            6.5256    -0.3080     5.1440 C.ar    
  18 C18            7.0712    -1.5811     5.0654 C.ar    
  19 C19            6.7667    -2.3984     3.9864 C.ar    
  20 C20            5.9168    -1.9449     2.9962 C.ar    
  21 O21            7.9030    -2.0268     6.0433 O.3     
  22 O22            4.8826    -0.6998     0.7285 O.3     
  23 O23           -0.8581     1.3921     0.9518 O.3     
  24 C24            2.5181     0.0305     3.5512 C.3     
  25 H25           -0.9665    -1.1232     0.1263 H       
  26 H26            0.5255    -1.0822    -0.8449 H       
  27 H27            0.3260    -0.5254     2.1501 H       
  28 H28            0.9715    -2.0084     1.4071 H       
  29 H29            1.5094     1.5602     1.8906 H       
  30 H30            3.0240     1.6089     0.9572 H       
  31 H31            1.7692     1.1097    -1.1176 H       
  32 H32            1.1328     2.5765    -0.3340 H       
  33 H33           -1.7759     2.9344    -0.6987 H       
  34 H34           -3.0220     3.3828    -2.7746 H       
  35 H35           -2.8530     1.8239    -4.6732 H       
  36 H36           -1.4372    -0.1829    -4.4961 H       
  37 H37           -0.1845    -0.6269    -2.4232 H       
  38 H38            3.0244    -1.7301     2.4177 H       
  39 H39            4.4819     0.9101     1.9598 H       
  40 H40            5.2560     1.1339     4.2089 H       
  41 H41            6.7614     0.3302     5.9827 H       
  42 H42            7.1902    -3.3898     3.9229 H       
  43 H43            5.6757    -2.5824     2.1585 H       
  44 H44            7.4507    -2.4801     6.7680 H       
  45 H45            4.8892    -1.6658     0.6838 H       
  46 H46           -0.9966     2.3478     0.9018 H       
  47 H47            1.5015    -0.3041     3.7579 H       
  48 H48            3.1644    -0.2320     4.3887 H       
  49 H49            2.5236     1.1117     3.4130 H       
@<TRIPOS>BOND
   1    1    2 1
   2    1    6 1
   3    1    7 1
   4    1   23 1
   5    2    3 1
   6    2   25 1
   7    2   26 1
   8    3    4 1
   9    3   27 1
  10    3   28 1
  11    4    5 1
  12    4   13 1
  13    5    6 1
  14    5   29 1
  15    5   30 1
  16    6   31 1
  17    6   32 1
  18    7    8 ar
  19    7   12 ar
  20    8    9 ar
  21    8   33 1
  22    9   10 ar
  23    9   34 1
  24   10   11 ar
  25   10   35 1
  26   11   12 ar
  27   11   36 1
  28   12   37 1
  29   13   14 1
  30   13   24 1
  31   13   38 1
  32   14   15 1
  33   14   22 1
  34   14   39 1
  35   15   16 ar
  36   15   20 ar
  37   16   17 ar
  38   16   40 1
  39   17   18 ar
  40   17   41 1
  41   18   19 ar
  42   18   21 1
  43   19   20 ar
  44   19   42 1
  45   20   43 1
  46   21   44 1
  47   22   45 1
  48   23   46 1
  49   24   47 1
  50   24   48 1
  51   24   49 1

#	End of record

