#	Name: ASD10160410
#	Creating user name:	WinNT
#	Creation time:	15. 06. 2019 21:25

#	Modifying user name:	WinNT
#	Modification time:	15. 06. 2019 21:25

#	Program:	/corina/corina34_cracker 3.40 0067  02.08.2006

@<TRIPOS>MOLECULE
ASD10160410
  52   54    0    0    0
SMALL
NO_CHARGES


@<TRIPOS>ATOM
   1 C1            -0.3987     1.1096    -1.9419 C.2     
   2 C2            -0.2787    -0.2690    -1.4369 C.ar    
   3 C3             0.9057    -0.9897    -1.6361 C.ar    
   4 C4             1.0127    -2.2807    -1.1603 C.ar    
   5 C5            -0.0518    -2.8643    -0.4855 C.ar    
   6 C6            -1.2303    -2.1511    -0.2857 C.ar    
   7 C7            -1.3450    -0.8605    -0.7519 C.ar    
   8 O8             0.5309     1.6234    -2.5325 O.2     
   9 O9            -1.5413     1.7990    -1.7539 O.3     
  10 F10            1.9411    -0.4224    -2.2929 F       
  11 O11            0.0574    -4.1342    -0.0197 O.3     
  12 C12            1.5451    -5.5225    -1.2590 C.ar    
  13 C13            1.2602    -4.7569    -0.1396 C.ar    
  14 C14            2.2207    -4.6328     0.8604 C.ar    
  15 C15            3.4316    -5.2840     0.6958 C.ar    
  16 C16            3.6459    -6.0344    -0.4541 C.ar    
  17 N17            2.7100    -6.1296    -1.3830 N.ar    
  18 O18            4.8298    -6.6766    -0.6257 O.3     
  19 C19            6.6406    -8.3224    -3.4748 C.3     
  20 C20            6.4676    -7.4467    -2.2311 C.3     
  21 C21            4.9898    -7.4318    -1.8282 C.3     
  22 C22            4.5209    -8.8714    -1.5954 C.3     
  23 C23            4.7691    -9.6921    -2.8637 C.3     
  24 O24            6.1570    -9.6388    -3.2000 O.3     
  25 Cl25           4.6665    -5.1641     1.9100 Cl      
  26 Cl26          -2.5563    -2.8881     0.5584 Cl      
  27 C27           -1.5886     3.1522    -2.2783 C.3     
  28 C28           -1.3722     3.1202    -3.7926 C.3     
  29 C29           -2.9539     3.7708    -1.9712 C.3     
  30 C30           -0.4895     3.9915    -1.6237 C.3     
  31 H31            1.9250    -2.8381    -1.3133 H       
  32 H32           -2.2586    -0.3071    -0.5921 H       
  33 H33            0.8032    -5.6271    -2.0369 H       
  34 H34            2.0262    -4.0422     1.7435 H       
  35 H35            6.0763    -7.8934    -4.3028 H       
  36 H36            7.6965    -8.3713    -3.7410 H       
  37 H37            7.0639    -7.8527    -1.4139 H       
  38 H38            6.7951    -6.4309    -2.4524 H       
  39 H39            4.3993    -6.9789    -2.6246 H       
  40 H40            5.0779    -9.3062    -0.7654 H       
  41 H41            3.4562    -8.8744    -1.3621 H       
  42 H42            4.4768   -10.7276    -2.6896 H       
  43 H43            4.1804    -9.2810    -3.6837 H       
  44 H44           -2.1552     2.5222    -4.2590 H       
  45 H45           -1.4077     4.1360    -4.1863 H       
  46 H46           -0.3995     2.6795    -4.0114 H       
  47 H47           -3.1080     3.7936    -0.8924 H       
  48 H48           -2.9894     4.7866    -2.3649 H       
  49 H49           -3.7368     3.1728    -2.4376 H       
  50 H50            0.4831     3.5509    -1.8425 H       
  51 H51           -0.5250     5.0073    -2.0174 H       
  52 H52           -0.6437     4.0144    -0.5449 H       
@<TRIPOS>BOND
   1    1    2 1
   2    1    8 2
   3    1    9 1
   4    2    3 ar
   5    2    7 ar
   6    3    4 ar
   7    3   10 1
   8    4    5 ar
   9    4   31 1
  10    5    6 ar
  11    5   11 1
  12    6    7 ar
  13    6   26 1
  14    7   32 1
  15    9   27 1
  16   11   13 1
  17   12   13 ar
  18   12   17 ar
  19   12   33 1
  20   13   14 ar
  21   14   15 ar
  22   14   34 1
  23   15   16 ar
  24   15   25 1
  25   16   17 ar
  26   16   18 1
  27   18   21 1
  28   19   20 1
  29   19   24 1
  30   19   35 1
  31   19   36 1
  32   20   21 1
  33   20   37 1
  34   20   38 1
  35   21   22 1
  36   21   39 1
  37   22   23 1
  38   22   40 1
  39   22   41 1
  40   23   24 1
  41   23   42 1
  42   23   43 1
  43   27   28 1
  44   27   30 1
  45   27   29 1
  46   28   44 1
  47   28   45 1
  48   28   46 1
  49   29   47 1
  50   29   48 1
  51   29   49 1
  52   30   50 1
  53   30   51 1
  54   30   52 1

#	End of record

