#	Name: ASD10800045
#	Creating user name:	WinNT
#	Creation time:	15. 06. 2019 21:28

#	Modifying user name:	WinNT
#	Modification time:	15. 06. 2019 21:28

#	Program:	/corina/corina34_cracker 3.40 0067  02.08.2006

@<TRIPOS>MOLECULE
ASD10800045
  49   52    0    0    0
SMALL
NO_CHARGES


@<TRIPOS>ATOM
   1 C1             0.0199     1.2509     0.2085 C.ar    
   2 C2             0.1036    -0.1319     0.4355 C.ar    
   3 C3             1.3252    -0.7294     0.5071 C.ar    
   4 C4             2.4942     0.0138     0.3583 C.ar    
   5 C5             2.4498     1.3561     0.1371 C.ar    
   6 C6             1.2077     2.0089     0.0563 C.ar    
   7 C7             3.7276     2.1394    -0.0202 C.3     
   8 C8             4.1353     2.7270     1.3323 C.3     
   9 N9             4.7873     1.2525    -0.5067 N.pl3   
  10 C10            5.3431     3.6102     1.1528 C.ar    
  11 C11            5.1812     4.9552     0.8779 C.ar    
  12 C12            6.6130     3.0764     1.2686 C.ar    
  13 C13            7.7209     3.8865     1.1039 C.ar    
  14 C14            7.5590     5.2303     0.8229 C.ar    
  15 C15            6.2891     5.7653     0.7131 C.ar    
  16 C16            9.1053     3.3048     1.2311 C.3     
  17 C17            6.1125     7.2302     0.4069 C.3     
  18 C18            4.9392     1.0386    -1.8572 C.2     
  19 N19            5.8851     0.3547    -2.3933 N.2     
  20 S20            3.8572     1.6582    -3.1101 S.3     
  21 C21            4.7689     0.9319    -4.5106 C.3     
  22 C22            5.9371     0.2013    -3.8301 C.3     
  23 N23            1.1329     3.3259    -0.1606 N.ar    
  24 C24           -0.0229     3.9394    -0.2371 C.ar    
  25 C25           -1.2278     3.2538    -0.0965 C.ar    
  26 C26           -1.2233     1.9057     0.1221 C.ar    
  27 H27           -0.7956    -0.7184     0.5532 H       
  28 H28            1.3887    -1.7933     0.6817 H       
  29 H29            3.4511    -0.4831     0.4199 H       
  30 H30            3.5729     2.9471    -0.7355 H       
  31 H31            3.3115     3.3157     1.7359 H       
  32 H32            4.3760     1.9181     2.0222 H       
  33 H33            5.3818     0.8161     0.1233 H       
  34 H34            4.1890     5.3730     0.7915 H       
  35 H35            6.7395     2.0265     1.4881 H       
  36 H36            8.4246     5.8633     0.6946 H       
  37 H37            9.4432     2.9544     0.2558 H       
  38 H38            9.7886     4.0702     1.5989 H       
  39 H39            9.0854     2.4691     1.9305 H       
  40 H40            6.0682     7.3730    -0.6728 H       
  41 H41            5.1869     7.5869     0.8588 H       
  42 H42            6.9546     7.7904     0.8132 H       
  43 H43            4.1410     0.2253    -5.0533 H       
  44 H44            5.1358     1.7126    -5.1769 H       
  45 H45            6.8778     0.6110    -4.1981 H       
  46 H46            5.8894    -0.8588    -4.0794 H       
  47 H47           -0.0419     5.0047    -0.4134 H       
  48 H48           -2.1643     3.7873    -0.1641 H       
  49 H49           -2.1477     1.3583     0.2331 H       
@<TRIPOS>BOND
   1    1    2 ar
   2    1    6 ar
   3    1   26 ar
   4    2    3 ar
   5    2   27 1
   6    3    4 ar
   7    3   28 1
   8    4    5 ar
   9    4   29 1
  10    5    6 ar
  11    5    7 1
  12    6   23 ar
  13    7    8 1
  14    7    9 1
  15    7   30 1
  16    8   10 1
  17    8   31 1
  18    8   32 1
  19    9   18 1
  20    9   33 1
  21   10   11 ar
  22   10   12 ar
  23   11   15 ar
  24   11   34 1
  25   12   13 ar
  26   12   35 1
  27   13   14 ar
  28   13   16 1
  29   14   15 ar
  30   14   36 1
  31   15   17 1
  32   16   37 1
  33   16   38 1
  34   16   39 1
  35   17   40 1
  36   17   41 1
  37   17   42 1
  38   18   19 2
  39   18   20 1
  40   19   22 1
  41   20   21 1
  42   21   22 1
  43   21   43 1
  44   21   44 1
  45   22   45 1
  46   22   46 1
  47   23   24 ar
  48   24   25 ar
  49   24   47 1
  50   25   26 ar
  51   25   48 1
  52   26   49 1

#	End of record

