#	Name: ASD10950062
#	Creating user name:	WinNT
#	Creation time:	15. 06. 2019 21:28

#	Modifying user name:	WinNT
#	Modification time:	15. 06. 2019 21:28

#	Program:	/corina/corina34_cracker 3.40 0067  02.08.2006

@<TRIPOS>MOLECULE
ASD10950062
  67   70    0    0    0
SMALL
NO_CHARGES


@<TRIPOS>ATOM
   1 C1            -0.0811     1.1899     5.1349 C.3     
   2 C2            -0.0665    -0.3273     4.9375 C.3     
   3 C3             0.6680    -0.6655     3.6387 C.3     
   4 C4             0.6823    -2.1598     3.4442 C.2     
   5 O5             0.1588    -2.8804     4.2606 O.2     
   6 O6             1.2774    -2.6910     2.3627 O.3     
   7 C7             1.3499    -4.0408     2.3023 C.2     
   8 C8             0.7150    -4.8218     1.3950 C.2     
   9 C9            -0.1349    -4.3830     0.3496 C.2     
  10 O10           -0.4395    -3.2112     0.2667 O.2     
  11 C11           -0.6606    -5.3714    -0.6592 C.3     
  12 C12            1.0884    -6.2508     1.7132 C.3     
  13 N13            1.9840    -6.1916     2.8742 N.am    
  14 C14            2.1398    -4.8986     3.2120 C.2     
  15 O15            2.8217    -4.4959     4.1332 O.2     
  16 C16            2.6045    -7.3377     3.5432 C.3     
  17 C17            3.9574    -7.6361     2.8940 C.3     
  18 C18            4.5957    -8.8151     3.5822 C.2     
  19 C19            4.4524   -10.1076     3.2493 C.2     
  20 C20            3.6124   -10.6189     2.1074 C.3     
  21 N21            5.1827   -10.8921     4.1000 N.pl3   
  22 C22            5.8301   -10.1034     5.0244 C.ar    
  23 C23            5.4953    -8.7676     4.7373 C.ar    
  24 C24            6.0145    -7.7354     5.5213 C.ar    
  25 C25            6.8462    -8.0287     6.5647 C.ar    
  26 C26            7.1801    -9.3454     6.8519 C.ar    
  27 C27            6.6819   -10.3788     6.0894 C.ar    
  28 C28           -0.1464    -7.0458     2.0515 C.ar    
  29 C29           -0.6201    -7.9939     1.1620 C.ar    
  30 C30           -1.7495    -8.7255     1.4655 C.ar    
  31 C31           -2.4149    -8.5073     2.6735 C.ar    
  32 C32           -1.9314    -7.5490     3.5665 C.ar    
  33 C33           -0.7979    -6.8282     3.2526 C.ar    
  34 C34           -3.6253    -9.2866     3.0051 C.2     
  35 O35           -4.0438   -10.1194     2.2261 O.2     
  36 O36           -4.2649    -9.0737     4.1714 O.3     
  37 C37           -5.4473    -9.8756     4.4308 C.3     
  38 H38           -0.5923     1.6606     4.2953 H       
  39 H39           -0.6043     1.4308     6.0603 H       
  40 H40            0.9431     1.5590     5.1900 H       
  41 H41            0.4447    -0.7981     5.7772 H       
  42 H42           -1.0906    -0.6964     4.8825 H       
  43 H43            0.1567    -0.1947     2.7990 H       
  44 H44            1.6921    -0.2964     3.6937 H       
  45 H45           -0.3408    -6.3764    -0.3839 H       
  46 H46           -1.7496    -5.3286    -0.6765 H       
  47 H47           -0.2715    -5.1242    -1.6469 H       
  48 H48            1.6039    -6.7011     0.8649 H       
  49 H49            2.7509    -7.1070     4.5984 H       
  50 H50            1.9560    -8.2086     3.4483 H       
  51 H51            3.8111    -7.8668     1.8388 H       
  52 H52            4.6060    -6.7652     2.9889 H       
  53 H53            4.2200   -10.6702     1.2039 H       
  54 H54            3.2366   -11.6130     2.3495 H       
  55 H55            2.7730    -9.9433     1.9429 H       
  56 H56            5.2360   -11.8597     4.0582 H       
  57 H57            5.7598    -6.7087     5.3034 H       
  58 H58            7.2476    -7.2300     7.1708 H       
  59 H59            7.8391    -9.5614     7.6798 H       
  60 H60            6.9474   -11.3997     6.3208 H       
  61 H61           -0.1046    -8.1614     0.2278 H       
  62 H62           -2.1184    -9.4650     0.7702 H       
  63 H63           -2.4415    -7.3750     4.5024 H       
  64 H64           -0.4227    -6.0866     3.9424 H       
  65 H65           -6.1883    -9.6926     3.6527 H       
  66 H66           -5.1767   -10.9315     4.4336 H       
  67 H67           -5.8644    -9.6048     5.4007 H       
@<TRIPOS>BOND
   1    1    2 1
   2    1   38 1
   3    1   39 1
   4    1   40 1
   5    2    3 1
   6    2   41 1
   7    2   42 1
   8    3    4 1
   9    3   43 1
  10    3   44 1
  11    4    5 2
  12    4    6 1
  13    6    7 1
  14    7    8 2
  15    7   14 1
  16    8    9 1
  17    8   12 1
  18    9   10 2
  19    9   11 1
  20   11   45 1
  21   11   46 1
  22   11   47 1
  23   12   13 1
  24   12   28 1
  25   12   48 1
  26   13   14 am
  27   13   16 1
  28   14   15 2
  29   16   17 1
  30   16   49 1
  31   16   50 1
  32   17   18 1
  33   17   51 1
  34   17   52 1
  35   18   19 2
  36   18   23 1
  37   19   20 1
  38   19   21 1
  39   20   53 1
  40   20   54 1
  41   20   55 1
  42   21   22 1
  43   21   56 1
  44   22   23 ar
  45   22   27 ar
  46   23   24 ar
  47   24   25 ar
  48   24   57 1
  49   25   26 ar
  50   25   58 1
  51   26   27 ar
  52   26   59 1
  53   27   60 1
  54   28   29 ar
  55   28   33 ar
  56   29   30 ar
  57   29   61 1
  58   30   31 ar
  59   30   62 1
  60   31   32 ar
  61   31   34 1
  62   32   33 ar
  63   32   63 1
  64   33   64 1
  65   34   35 2
  66   34   36 1
  67   36   37 1
  68   37   65 1
  69   37   66 1
  70   37   67 1

#	End of record

