#	Name: ASD13880001
#	Creating user name:	WinNT
#	Creation time:	15. 06. 2019 21:30

#	Modifying user name:	WinNT
#	Modification time:	15. 06. 2019 21:30

#	Program:	/corina/corina34_cracker 3.40 0067  02.08.2006

@<TRIPOS>MOLECULE
ASD13880001
  74   76    0    0    0
SMALL
NO_CHARGES


@<TRIPOS>ATOM
   1 C1             0.1739     3.2887     2.3276 C.3     
   2 C2             0.1012     1.8001     1.9988 C.3     
   3 C3             0.6899     1.5074     0.6195 C.3     
   4 C4             2.1627     1.9353     0.5780 C.3     
   5 C5             2.2133     3.4014     0.9718 C.2     
   6 C6             1.6317     3.7754     2.3080 C.3     
   7 C7             1.6851     5.2615     2.5715 C.3     
   8 C8             2.7252     4.2614     0.1445 C.2     
   9 C9             2.7840     5.7349     0.4165 C.3     
  10 C10            2.8915     5.9652     1.9432 C.3     
  11 C11            1.2950     7.1362     4.1996 C.3     
  12 C12            1.4880     5.6164     4.0363 C.3     
  13 C13            2.5382     7.8214     3.6747 C.3     
  14 C14            2.4584     9.3336     3.5764 C.2     
  15 C15            2.7446     7.4426     2.1956 C.3     
  16 C16            3.9106     8.3718     1.8265 C.3     
  17 C17            3.3909     9.7150     2.4291 C.3     
  18 C18            3.7292     7.5062     4.5763 C.3     
  19 C19            2.3815     3.0162     3.4009 C.3     
  20 C20            4.2310     5.4054     2.4055 C.3     
  21 O21            0.5996     0.1061     0.3502 O.3     
  22 O22            1.7953    10.0626     4.2648 O.2     
  23 C23           -0.6122    -0.2840    -0.2990 C.3     
  24 C24           -0.5998    -1.7955    -0.5364 C.3     
  25 N25           -0.6087    -2.4942     0.7558 N.3     
  26 C26           -1.8711    -2.2630     1.4705 C.3     
  27 C27           -0.3593    -3.9310     0.5790 C.3     
  28 C28            1.1279    -4.1602     0.3019 C.3     
  29 C29           -1.7022    -2.6479     2.9416 C.3     
  30 H30            0.7967     5.6861     2.0468 H       
  31 H31            1.8557     7.7944     1.6219 H       
  32 H32           -0.3993     3.8541     1.5913 H       
  33 H33           -0.2457     3.4639     3.3194 H       
  34 H34            0.6139     1.2087     2.7534 H       
  35 H35           -0.9543     1.4942     1.9963 H       
  36 H36            0.1339     2.0579    -0.1395 H       
  37 H37            2.7469     1.3310     1.2648 H       
  38 H38            2.5460     1.8152    -0.4363 H       
  39 H39            3.1296     3.8966    -0.7899 H       
  40 H40            3.6562     6.1676    -0.0671 H       
  41 H41            1.8770     6.2137     0.0531 H       
  42 H42            0.4231     7.4566     3.6277 H       
  43 H43            1.1519     7.3763     5.2535 H       
  44 H44            0.5845     5.1207     4.4052 H       
  45 H45            2.3299     5.2947     4.6370 H       
  46 H46            4.8481     8.0773     2.2738 H       
  47 H47            4.0023     8.4587     0.7424 H       
  48 H48            2.8468    10.2730     1.6708 H       
  49 H49            4.2300    10.2973     2.8055 H       
  50 H50            3.7951     6.4288     4.7279 H       
  51 H51            4.6454     7.8637     4.1063 H       
  52 H52            3.5975     8.0010     5.5386 H       
  53 H53            2.3336     1.9462     3.1982 H       
  54 H54            3.4232     3.3367     3.4167 H       
  55 H55            1.9228     3.2237     4.3676 H       
  56 H56            4.3549     4.3938     2.0189 H       
  57 H57            5.0370     6.0378     2.0334 H       
  58 H58            4.2593     5.3839     3.4949 H       
  59 H59           -1.4624    -0.0221     0.3308 H       
  60 H60           -0.6951     0.2332    -1.2549 H       
  61 H61           -1.4820    -2.0805    -1.1097 H       
  62 H62            0.2979    -2.0688    -1.0910 H       
  63 H63           -2.1413    -1.2094     1.3993 H       
  64 H64           -2.6580    -2.8709     1.0240 H       
  65 H65           -0.6463    -4.4638     1.4856 H       
  66 H66           -0.9467    -4.3011    -0.2613 H       
  67 H67            1.3921    -3.7127    -0.6562 H       
  68 H68            1.7199    -3.7004     1.0933 H       
  69 H69            1.3310    -5.2306     0.2714 H       
  70 H70           -2.6340    -2.4613     3.4754 H       
  71 H71           -1.4477    -3.7053     3.0137 H       
  72 H72           -0.9044    -2.0512     3.3840 H       
  73 Cl73          10.0370    15.2973    10.5386 Cl      
  74 H74           10.0370    16.6673    10.5386 H       
@<TRIPOS>BOND
   1    1    2 1
   2    1    6 1
   3    1   32 1
   4    1   33 1
   5    2    3 1
   6    2   34 1
   7    2   35 1
   8    3    4 1
   9    3   21 1
  10    3   36 1
  11    4    5 1
  12    4   37 1
  13    4   38 1
  14    5    8 2
  15    5    6 1
  16    6    7 1
  17    6   19 1
  18    7   10 1
  19    7   30 1
  20    7   12 1
  21    8    9 1
  22    8   39 1
  23    9   10 1
  24    9   40 1
  25    9   41 1
  26   10   15 1
  27   10   20 1
  28   11   12 1
  29   11   13 1
  30   11   42 1
  31   11   43 1
  32   12   44 1
  33   12   45 1
  34   13   15 1
  35   13   18 1
  36   13   14 1
  37   14   17 1
  38   14   22 2
  39   15   16 1
  40   15   31 1
  41   16   17 1
  42   16   46 1
  43   16   47 1
  44   17   48 1
  45   17   49 1
  46   18   50 1
  47   18   51 1
  48   18   52 1
  49   19   53 1
  50   19   54 1
  51   19   55 1
  52   20   56 1
  53   20   57 1
  54   20   58 1
  55   21   23 1
  56   23   24 1
  57   23   59 1
  58   23   60 1
  59   24   25 1
  60   24   61 1
  61   24   62 1
  62   25   26 1
  63   25   27 1
  64   26   29 1
  65   26   63 1
  66   26   64 1
  67   27   28 1
  68   27   65 1
  69   27   66 1
  70   28   67 1
  71   28   68 1
  72   28   69 1
  73   29   70 1
  74   29   71 1
  75   29   72 1
  76   73   74 1

#	End of record

