#	Name: ASD11800002
#	Creating user name:	WinNT
#	Creation time:	15. 06. 2019 21:29

#	Modifying user name:	WinNT
#	Modification time:	15. 06. 2019 21:29

#	Program:	/corina/corina34_cracker 3.40 0067  02.08.2006

@<TRIPOS>MOLECULE
ASD11800002
  71   76    0    0    0
SMALL
NO_CHARGES


@<TRIPOS>ATOM
   1 C1            -0.5353    -8.0155     0.3515 C.ar    
   2 C2            -0.3536    -6.6515     0.4921 C.ar    
   3 C3             1.8681    -6.8582    -0.3782 C.ar    
   4 C4             1.6859    -8.2216    -0.5184 C.ar    
   5 C5             0.4846    -8.8000    -0.1537 C.ar    
   6 N6             2.0369    -4.1063    -0.6951 N.pl3   
   7 C7             1.8908    -4.1673    -2.0846 C.ar    
   8 C8             0.9198    -3.3983    -2.7180 C.ar    
   9 C9             2.7180    -4.9908    -2.8355 C.ar    
  10 C10            2.5713    -5.0489    -4.2084 C.ar    
  11 C11            1.6024    -4.2880    -4.8352 C.ar    
  12 C12            0.7789    -3.4616    -4.0918 C.ar    
  13 C13            1.6309    -4.2693     1.6709 C.3     
  14 C14            2.7466    -3.2503     1.3560 C.3     
  15 N15            3.1453    -3.5726    -0.0253 N.am    
  16 Cl16          -1.6338    -5.6658     1.1271 Cl      
  17 F17            0.1157    -2.5913    -1.9919 F       
  18 C18            4.3704    -3.3857    -0.5550 C.2     
  19 C19            5.4434    -2.7004     0.2513 C.3     
  20 O20            4.6093    -3.7690    -1.6806 O.2     
  21 N21            6.7608    -3.0975    -0.2517 N.am    
  22 C22            7.8352    -3.0482     0.5605 C.2     
  23 O23            7.7111    -2.6742     1.7107 O.2     
  24 N24            9.0472    -3.4135     0.0977 N.am    
  25 C25           10.2150    -3.3599     0.9806 C.3     
  26 C26           11.2639    -4.3481     0.4899 C.3     
  27 C27           10.7773    -1.9593     0.9814 C.3     
  28 C28           12.1356    -1.7897     0.3568 C.3     
  29 C29           12.5709    -2.7081    -0.7741 C.3     
  30 C30           11.6263    -3.9115    -0.9347 C.3     
  31 C31           12.4600    -4.5119     1.3888 C.3     
  32 C32           13.9044    -3.3741    -0.3081 C.3     
  33 C33           13.1240    -2.0811     1.5343 C.3     
  34 C34           13.6001    -3.5174     1.2114 C.3     
  35 C35            5.2855    -1.1838     0.1257 C.3     
  36 C36            0.8492    -6.0730     0.1268 C.ar    
  37 C37            1.0478    -4.5869     0.2792 C.3     
  38 H38           -1.4723    -8.4682     0.6407 H       
  39 H39            2.8070    -6.4069    -0.6630 H       
  40 H40            2.4823    -8.8348    -0.9135 H       
  41 H41            0.3430    -9.8650    -0.2632 H       
  42 H42            3.4759    -5.5854    -2.3474 H       
  43 H43            3.2150    -5.6898    -4.7927 H       
  44 H44            1.4907    -4.3356    -5.9084 H       
  45 H45            0.0226    -2.8686    -4.5845 H       
  46 H46            2.0466    -5.1666     2.1293 H       
  47 H47            0.8718    -3.8233     2.3135 H       
  48 H48            2.3621    -2.2321     1.4153 H       
  49 H49            3.5880    -3.3824     2.0362 H       
  50 H50            5.3519    -2.9898     1.2982 H       
  51 H51            6.8598    -3.3959    -1.1694 H       
  52 H52            9.1462    -3.7119    -0.8199 H       
  53 H53            9.9141    -3.6262     1.9938 H       
  54 H54           10.7808    -5.3214     0.4029 H       
  55 H55           10.0774    -1.3122     0.4526 H       
  56 H56           10.8336    -1.6166     2.0146 H       
  57 H57           12.2619    -0.7524     0.0468 H       
  58 H58           12.6835    -2.1612    -1.7103 H       
  59 H59           12.1343    -4.7212    -1.4586 H       
  60 H60           10.7286    -3.6154    -1.4774 H       
  61 H61           12.1157    -4.4473     2.4209 H       
  62 H62           12.8612    -5.5135     1.2346 H       
  63 H63           14.0490    -4.3467    -0.7784 H       
  64 H64           14.7584    -2.7196    -0.4830 H       
  65 H65           13.9606    -1.3825     1.5209 H       
  66 H66           12.6060    -2.0500     2.4928 H       
  67 H67           14.4851    -3.7949     1.7840 H       
  68 H68            5.4700    -0.8834    -0.9057 H       
  69 H69            4.2728    -0.8991     0.4114 H       
  70 H70            6.0010    -0.6884     0.7820 H       
  71 H71            0.1009    -4.0651     0.1411 H       
@<TRIPOS>BOND
   1    1    2 ar
   2    1    5 ar
   3    1   38 1
   4    2   36 ar
   5    2   16 1
   6    3    4 ar
   7    3   36 ar
   8    3   39 1
   9    4    5 ar
  10    4   40 1
  11    5   41 1
  12    6    7 1
  13    6   15 1
  14    6   37 1
  15    7    8 ar
  16    7    9 ar
  17    8   17 1
  18    8   12 ar
  19    9   10 ar
  20    9   42 1
  21   10   11 ar
  22   10   43 1
  23   11   12 ar
  24   11   44 1
  25   12   45 1
  26   13   14 1
  27   13   37 1
  28   13   46 1
  29   13   47 1
  30   14   15 1
  31   14   48 1
  32   14   49 1
  33   15   18 am
  34   18   19 1
  35   18   20 2
  36   19   21 1
  37   19   35 1
  38   19   50 1
  39   21   22 am
  40   21   51 1
  41   22   23 2
  42   22   24 am
  43   24   25 1
  44   24   52 1
  45   25   26 1
  46   25   27 1
  47   25   53 1
  48   26   31 1
  49   26   30 1
  50   26   54 1
  51   27   28 1
  52   27   55 1
  53   27   56 1
  54   28   29 1
  55   28   33 1
  56   28   57 1
  57   29   30 1
  58   29   32 1
  59   29   58 1
  60   30   59 1
  61   30   60 1
  62   31   34 1
  63   31   61 1
  64   31   62 1
  65   32   34 1
  66   32   63 1
  67   32   64 1
  68   33   34 1
  69   33   65 1
  70   33   66 1
  71   34   67 1
  72   35   68 1
  73   35   69 1
  74   35   70 1
  75   36   37 1
  76   37   71 1

#	End of record

