#	Name: ASD11740023
#	Creating user name:	WinNT
#	Creation time:	15. 06. 2019 21:29

#	Modifying user name:	WinNT
#	Modification time:	15. 06. 2019 21:29

#	Program:	/corina/corina34_cracker 3.40 0067  02.08.2006

@<TRIPOS>MOLECULE
ASD11740023
  50   51    0    0    0
SMALL
NO_CHARGES


@<TRIPOS>ATOM
   1 C1             0.2246     1.8289    -0.5678 C.3     
   2 C2             1.3176     4.1521     1.8097 C.ar    
   3 C3             0.7691     4.6134     2.9885 C.ar    
   4 C4            -0.1550     5.6464     2.9758 C.ar    
   5 C5            -0.5361     6.2248     1.7852 C.ar    
   6 C6             0.0105     5.7694     0.5824 C.ar    
   7 C7             0.9457     4.7229     0.5986 C.ar    
   8 N8             1.4967     4.2606    -0.5894 N.am    
   9 S9             1.8291     2.6491    -0.7762 S.o2    
  10 O10            2.6915     2.3410     0.3104 O.2     
  11 O11            2.2756     2.5369    -2.1205 O.2     
  12 C12           -0.3933     6.3835    -0.6954 C.2     
  13 N13           -1.2923     7.3875    -0.7061 N.am    
  14 O14            0.0849     5.9842    -1.7399 O.2     
  15 C15           -1.5910     8.0473    -1.9049 C.ar    
  16 C16           -2.8043     8.7172    -2.0503 C.ar    
  17 C17           -3.0942     9.3678    -3.2381 C.ar    
  18 C18           -2.1808     9.3519    -4.2764 C.ar    
  19 C19           -0.9771     8.6876    -4.1330 C.ar    
  20 C20           -0.6776     8.0405    -2.9486 C.ar    
  21 O21           -3.7015     8.7316    -1.0286 O.3     
  22 C22           -4.9240     9.4380    -1.2488 C.3     
  23 C23           -5.7998     9.3440     0.0022 C.3     
  24 C24            0.4012     0.3168    -0.7199 C.3     
  25 C25           -0.9521    -0.3750    -0.5442 C.3     
  26 C26           -0.7755    -1.8871    -0.6963 C.3     
  27 H27           -0.1708     2.0507     0.4235 H       
  28 H28           -0.4700     2.1916    -1.3255 H       
  29 H29            2.0401     3.3496     1.8285 H       
  30 H30            1.0614     4.1665     3.9273 H       
  31 H31           -0.5788     5.9995     3.9044 H       
  32 H32           -1.2569     7.0291     1.7812 H       
  33 H33            1.6869     4.8817    -1.3098 H       
  34 H34           -1.7325     7.6532     0.1164 H       
  35 H35           -4.0338     9.8875    -3.3536 H       
  36 H36           -2.4088     9.8595    -5.2020 H       
  37 H37           -0.2671     8.6775    -4.9467 H       
  38 H38            0.2638     7.5226    -2.8392 H       
  39 H39           -4.7057    10.4845    -1.4617 H       
  40 H40           -5.4509     8.9973    -2.0952 H       
  41 H41           -6.0181     8.2975     0.2151 H       
  42 H42           -5.2729     9.7847     0.8485 H       
  43 H43           -6.7323     9.8828    -0.1657 H       
  44 H44            0.7966     0.0951    -1.7112 H       
  45 H45            1.0958    -0.0459     0.0378 H       
  46 H46           -1.3475    -0.1533     0.4471 H       
  47 H47           -1.6467    -0.0123    -1.3019 H       
  48 H48           -0.3801    -2.1089    -1.6875 H       
  49 H49           -0.0809    -2.2498     0.0614 H       
  50 H50           -1.7396    -2.3800    -0.5711 H       
@<TRIPOS>BOND
   1    1   24 1
   2    1    9 1
   3    1   27 1
   4    1   28 1
   5    2    3 ar
   6    2    7 ar
   7    2   29 1
   8    3    4 ar
   9    3   30 1
  10    4    5 ar
  11    4   31 1
  12    5    6 ar
  13    5   32 1
  14    6    7 ar
  15    6   12 1
  16    7    8 1
  17    8    9 am
  18    8   33 1
  19    9   10 2
  20    9   11 2
  21   12   13 am
  22   12   14 2
  23   13   15 1
  24   13   34 1
  25   15   16 ar
  26   15   20 ar
  27   16   17 ar
  28   16   21 1
  29   17   18 ar
  30   17   35 1
  31   18   19 ar
  32   18   36 1
  33   19   20 ar
  34   19   37 1
  35   20   38 1
  36   21   22 1
  37   22   23 1
  38   22   39 1
  39   22   40 1
  40   23   41 1
  41   23   42 1
  42   23   43 1
  43   24   25 1
  44   24   44 1
  45   24   45 1
  46   25   26 1
  47   25   46 1
  48   25   47 1
  49   26   48 1
  50   26   49 1
  51   26   50 1

#	End of record

