#	Name: ASD14170027
#	Creating user name:	WinNT
#	Creation time:	15. 06. 2019 21:31

#	Modifying user name:	WinNT
#	Modification time:	15. 06. 2019 21:31

#	Program:	/corina/corina34_cracker 3.40 0067  02.08.2006

@<TRIPOS>MOLECULE
ASD14170027
  57   60    0    0    0
SMALL
NO_CHARGES


@<TRIPOS>ATOM
   1 C1             0.3625     1.8749     0.0295 C.2     
   2 C2             0.3880     0.4899    -0.2231 C.2     
   3 C3             1.5542    -0.0070     0.3299 C.2     
   4 N4             2.2063     1.0346     0.8932 N.pl3   
   5 N5             1.4434     2.1905     0.6915 N.2     
   6 N6             1.9774    -1.3329     0.3104 N.am    
   7 C7             3.1599    -1.6546    -0.2505 C.2     
   8 N8             3.5944    -2.9301    -0.2221 N.am    
   9 O9             3.8348    -0.7941    -0.7820 O.2     
  10 C10            4.8673    -3.2473    -0.7124 C.ar    
  11 C11            6.6424    -2.8687    -2.2796 C.ar    
  12 C12            7.3825    -3.8749    -1.6820 C.ar    
  13 C13            6.8638    -4.5711    -0.6032 C.ar    
  14 C14            5.6089    -4.2594    -0.1179 C.ar    
  15 C15            5.3870    -2.5540    -1.7973 C.ar    
  16 F16            8.6103    -4.1812    -2.1553 F       
  17 C17            3.4905     0.9652     1.5947 C.3     
  18 C18           -0.6443    -0.2912    -0.9477 C.ar    
  19 C19           -1.2978    -1.6279    -2.8318 C.ar    
  20 C20           -2.5716    -1.7485    -2.3008 C.ar    
  21 C21           -2.8858    -1.1380    -1.0977 C.ar    
  22 C22           -1.9286    -0.4109    -0.4199 C.ar    
  23 C23           -0.3343    -0.9027    -2.1611 C.ar    
  24 F24           -3.5118    -2.4595    -2.9610 F       
  25 C25           -0.7224     2.8302    -0.3966 C.3     
  26 C26           -1.7868     2.9145     0.6992 C.3     
  27 C27           -3.9958     3.7758     1.1954 C.3     
  28 C28           -5.0461     4.8018     0.7618 C.3     
  29 N29           -2.8444     3.8457     0.2839 N.3     
  30 C30           -3.2606     3.5861    -1.1020 C.3     
  31 C31           -4.3183     4.6140    -1.5125 C.3     
  32 O32           -5.4155     4.5531    -0.5973 O.3     
  33 H33            1.4213    -2.0253     0.7005 H       
  34 H34            3.0254    -3.6284     0.1378 H       
  35 H35            7.0487    -2.3269    -3.1209 H       
  36 H36            7.4425    -5.3558    -0.1387 H       
  37 H37            5.2048    -4.8024     0.7237 H       
  38 H38            4.8099    -1.7694    -2.2639 H       
  39 H39            4.3031     1.0760     0.8767 H       
  40 H40            3.5455     1.7661     2.3320 H       
  41 H41            3.5785     0.0020     2.0972 H       
  42 H42           -1.0573    -2.1056    -3.7701 H       
  43 H43           -3.8801    -1.2347    -0.6874 H       
  44 H44           -2.1743     0.0645     0.5182 H       
  45 H45            0.6585    -0.8089    -2.5759 H       
  46 H46           -0.2923     3.8180    -0.5621 H       
  47 H47           -1.1788     2.4733    -1.3198 H       
  48 H48           -2.2169     1.9268     0.8648 H       
  49 H49           -1.3304     3.2715     1.6225 H       
  50 H50           -3.6694     3.9963     2.2117 H       
  51 H51           -4.4276     2.7756     1.1601 H       
  52 H52           -5.9255     4.7143     1.3998 H       
  53 H53           -4.6313     5.8060     0.8483 H       
  54 H54           -2.3975     3.6683    -1.7626 H       
  55 H55           -3.6807     2.5829    -1.1740 H       
  56 H56           -3.8823     5.6129    -1.4921 H       
  57 H57           -4.6713     4.3908    -2.5193 H       
@<TRIPOS>BOND
   1    1    2 1
   2    1    5 2
   3    1   25 1
   4    2    3 2
   5    2   18 1
   6    3    4 1
   7    3    6 1
   8    4    5 1
   9    4   17 1
  10    6    7 am
  11    6   33 1
  12    7    8 am
  13    7    9 2
  14    8   10 1
  15    8   34 1
  16   10   15 ar
  17   10   14 ar
  18   11   12 ar
  19   11   15 ar
  20   11   35 1
  21   12   13 ar
  22   12   16 1
  23   13   14 ar
  24   13   36 1
  25   14   37 1
  26   15   38 1
  27   17   39 1
  28   17   40 1
  29   17   41 1
  30   18   23 ar
  31   18   22 ar
  32   19   20 ar
  33   19   23 ar
  34   19   42 1
  35   20   21 ar
  36   20   24 1
  37   21   22 ar
  38   21   43 1
  39   22   44 1
  40   23   45 1
  41   25   26 1
  42   25   46 1
  43   25   47 1
  44   26   29 1
  45   26   48 1
  46   26   49 1
  47   27   29 1
  48   27   28 1
  49   27   50 1
  50   27   51 1
  51   28   32 1
  52   28   52 1
  53   28   53 1
  54   29   30 1
  55   30   31 1
  56   30   54 1
  57   30   55 1
  58   31   32 1
  59   31   56 1
  60   31   57 1

#	End of record

