#	Name: ASD10420210
#	Creating user name:	WinNT
#	Creation time:	15. 06. 2019 21:27

#	Modifying user name:	WinNT
#	Modification time:	15. 06. 2019 21:27

#	Program:	/corina/corina34_cracker 3.40 0067  02.08.2006

@<TRIPOS>MOLECULE
ASD10420210
  44   45    0    0    0
SMALL
NO_CHARGES


@<TRIPOS>ATOM
   1 C1            -0.0184     1.5028     0.0103 C.3     
   2 C2             0.0140    -2.8190    -2.5325 C.3     
   3 C3             0.1580    -9.1504     3.6071 C.3     
   4 C4             0.1833    -9.1755     6.1443 C.3     
   5 C5             0.0640    -2.8429     2.4530 C.2     
   6 C6             0.0817    -4.1854     2.4419 C.2     
   7 C7             0.0228    -0.6983     1.1921 C.ar    
   8 C8             0.0377    -2.7827    -0.0343 C.ar    
   9 C9             0.1075    -4.2462     4.9267 C.ar    
  10 C10            0.1224    -6.3299     3.7021 C.ar    
  11 C11            0.1464    -6.3532     6.1068 C.ar    
  12 C12            0.1323    -4.2346     7.4141 C.2     
  13 C13            0.0021    -0.0041     0.0020 C.ar    
  14 C14            0.0174    -2.0798    -1.2193 C.ar    
  15 C15            0.0413    -2.0959     1.1831 C.ar    
  16 C16            0.1044    -4.9327     3.7124 C.ar    
  17 C17           -0.0005    -0.6909    -1.2053 C.ar    
  18 C18            0.1285    -4.9573     6.1253 C.ar    
  19 C19            0.1433    -7.0333     4.8970 C.ar    
  20 N20            0.1612    -8.4305     4.8830 N.pl3   
  21 O21            0.1507    -4.8549     8.4583 O.2     
  22 O22            0.1155    -2.8877     7.4311 O.3     
  23 O23           -0.0209    -0.0022    -2.3761 O.3     
  24 H24            1.0042     1.8801     0.0026 H       
  25 H25           -0.5455     1.8639    -0.8728 H       
  26 H26           -0.5286     1.8543     0.9071 H       
  27 H27           -1.0143    -3.0102    -2.8392 H       
  28 H28            0.5129    -2.2152    -3.2906 H       
  29 H29            0.5410    -3.7662    -2.4177 H       
  30 H30           -0.8704    -9.3422     3.3008 H       
  31 H31            0.6566    -8.5472     2.8483 H       
  32 H32            0.6853   -10.0973     3.7228 H       
  33 H33            1.2163    -9.3469     6.4470 H       
  34 H34           -0.3304    -8.6007     6.9148 H       
  35 H35           -0.3195   -10.1332     6.0095 H       
  36 H36            0.0663    -2.3106     3.3927 H       
  37 H37            0.0793    -4.7177     1.5022 H       
  38 H38            0.0293    -0.1633     2.1303 H       
  39 H39            0.0509    -3.8626    -0.0462 H       
  40 H40            0.0981    -3.1663     4.9381 H       
  41 H41            0.1197    -6.8625     2.7625 H       
  42 H42            0.1631    -6.9045     7.0353 H       
  43 H43            0.1188    -2.4595     8.2982 H       
  44 H44            0.8564     0.2089    -2.7236 H       
@<TRIPOS>BOND
   1    1   13 1
   2    1   24 1
   3    1   25 1
   4    1   26 1
   5    2   14 1
   6    2   27 1
   7    2   28 1
   8    2   29 1
   9    3   20 1
  10    3   30 1
  11    3   31 1
  12    3   32 1
  13    4   20 1
  14    4   33 1
  15    4   34 1
  16    4   35 1
  17    5    6 2
  18    5   15 1
  19    5   36 1
  20    6   16 1
  21    6   37 1
  22    7   13 ar
  23    7   15 ar
  24    7   38 1
  25    8   14 ar
  26    8   15 ar
  27    8   39 1
  28    9   16 ar
  29    9   18 ar
  30    9   40 1
  31   10   16 ar
  32   10   19 ar
  33   10   41 1
  34   11   18 ar
  35   11   19 ar
  36   11   42 1
  37   12   18 1
  38   12   21 2
  39   12   22 1
  40   13   17 ar
  41   14   17 ar
  42   17   23 1
  43   19   20 1
  44   22   43 1
  45   23   44 1

#	End of record

