#	Name: ASD10420148
#	Creating user name:	WinNT
#	Creation time:	15. 06. 2019 21:27

#	Modifying user name:	WinNT
#	Modification time:	15. 06. 2019 21:27

#	Program:	/corina/corina34_cracker 3.40 0067  02.08.2006

@<TRIPOS>MOLECULE
ASD10420148
  27   28    0    0    0
SMALL
NO_CHARGES


@<TRIPOS>ATOM
   1 C1            -0.0237     1.3522    -0.1133 C.ar    
   2 C2             0.0051    -0.0260    -0.2184 C.ar    
   3 C3             2.3706     1.4143    -0.0243 C.ar    
   4 C4             6.2657    -1.8549    -0.6488 C.ar    
   5 C5             7.0992    -0.1513     0.8298 C.ar    
   6 C6             3.7032    -0.6872    -0.1385 C.2     
   7 C7             1.1567     2.0708    -0.0162 C.ar    
   8 C8             1.2132    -0.6960    -0.2273 C.ar    
   9 C9             8.4946    -2.0059     0.2243 C.ar    
  10 C10            7.4724    -2.5220    -0.5596 C.ar    
  11 C11            8.3056    -0.8191     0.9183 C.ar    
  12 C12            6.0760    -0.6676     0.0458 C.ar    
  13 C13            2.4073     0.0224    -0.1297 C.ar    
  14 N14            4.8534     0.0091    -0.0446 N.am    
  15 O15            3.7319    -1.8991    -0.2304 O.2     
  16 O16            9.6819    -2.6633     0.3125 O.3     
  17 Cl17           1.1088     3.8011     0.1153 Cl      
  18 Cl18           1.2473    -2.4267    -0.3588 Cl      
  19 Br19           7.7309    -4.1390    -1.5055 Br      
  20 Br20           9.6994    -0.1158     1.9853 Br      
  21 H21           -0.9707     1.8715    -0.1113 H       
  22 H22           -0.9189    -0.5801    -0.2934 H       
  23 H23            3.2901     1.9758     0.0508 H       
  24 H24            5.4717    -2.2546    -1.2622 H       
  25 H25            6.9520     0.7720     1.3705 H       
  26 H26            4.8343     0.9789    -0.0397 H       
  27 H27           10.3284    -2.3992    -0.3564 H       
@<TRIPOS>BOND
   1    1    2 ar
   2    1    7 ar
   3    1   21 1
   4    2    8 ar
   5    2   22 1
   6    3    7 ar
   7    3   13 ar
   8    3   23 1
   9    4   10 ar
  10    4   12 ar
  11    4   24 1
  12    5   11 ar
  13    5   12 ar
  14    5   25 1
  15    6   13 1
  16    6   14 am
  17    6   15 2
  18    7   17 1
  19    8   13 ar
  20    8   18 1
  21    9   10 ar
  22    9   11 ar
  23    9   16 1
  24   10   19 1
  25   11   20 1
  26   12   14 1
  27   14   26 1
  28   16   27 1

#	End of record

