#	Name: ASD10420189
#	Creating user name:	WinNT
#	Creation time:	15. 06. 2019 21:27

#	Modifying user name:	WinNT
#	Modification time:	15. 06. 2019 21:27

#	Program:	/corina/corina34_cracker 3.40 0067  02.08.2006

@<TRIPOS>MOLECULE
ASD10420189
  31   33    0    0    0
SMALL
NO_CHARGES


@<TRIPOS>ATOM
   1 C1            -0.0167     1.3819     0.0096 C.ar    
   2 O2            -1.1681    -0.6923     0.0091 O.3     
   3 C3             0.0021    -0.0041     0.0020 C.ar    
   4 O4             3.5836    -0.6794    -0.0346 O.3     
   5 C5             1.2081    -0.6965    -0.0133 C.ar    
   6 O6             4.7341     1.6174    -0.0322 O.2     
   7 C7             2.4057    -0.0056    -0.0206 C.ar    
   8 O8             1.1730     3.4420     0.0098 O.3     
   9 C9             2.3940     1.3949    -0.0129 C.ar    
  10 O10           -0.3307     8.2451     0.0518 O.3     
  11 C11            1.1738     2.0921     0.0021 C.ar    
  12 O12            1.9681     9.7570     0.0393 O.3     
  13 C13            3.6461     2.1702    -0.0197 C.2     
  14 C14            3.5385     3.5811    -0.0106 C.2     
  15 C15            2.3075     4.1597     0.0037 C.2     
  16 C16            2.2157     5.6319     0.0130 C.ar    
  17 C17            0.9651     6.2557     0.0280 C.ar    
  18 C18            0.8847     7.6349     0.0372 C.ar    
  19 C19            2.0491     8.4010     0.0311 C.ar    
  20 C20            3.2913     7.7816     0.0163 C.ar    
  21 C21            3.3791     6.4062     0.0128 C.ar    
  22 H22           -0.9594     1.9089     0.0170 H       
  23 H23           -1.5152    -0.8869    -0.8722 H       
  24 H24            3.9170    -0.8702    -0.9221 H       
  25 H25            1.2093    -1.7764    -0.0191 H       
  26 H26           -0.6743     8.4161     0.9393 H       
  27 H27            1.9525    10.1448     0.9250 H       
  28 H28            4.4275     4.1943    -0.0147 H       
  29 H29            0.0636     5.6609     0.0320 H       
  30 H30            4.1911     8.3789     0.0116 H       
  31 H31            4.3469     5.9269     0.0055 H       
@<TRIPOS>BOND
   1    1    3 ar
   2    1   11 ar
   3    1   22 1
   4    2    3 1
   5    2   23 1
   6    3    5 ar
   7    4    7 1
   8    4   24 1
   9    5    7 ar
  10    5   25 1
  11    6   13 2
  12    7    9 ar
  13    8   11 1
  14    8   15 1
  15    9   11 ar
  16    9   13 1
  17   10   18 1
  18   10   26 1
  19   12   19 1
  20   12   27 1
  21   13   14 1
  22   14   15 2
  23   14   28 1
  24   15   16 1
  25   16   17 ar
  26   16   21 ar
  27   17   18 ar
  28   17   29 1
  29   18   19 ar
  30   19   20 ar
  31   20   21 ar
  32   20   30 1
  33   21   31 1

#	End of record

