#	Name: ASD10220173
#	Creating user name:	WinNT
#	Creation time:	15. 06. 2019 21:26

#	Modifying user name:	WinNT
#	Modification time:	15. 06. 2019 21:26

#	Program:	/corina/corina34_cracker 3.40 0067  02.08.2006

@<TRIPOS>MOLECULE
ASD10220173
  32   34    0    0    0
SMALL
NO_CHARGES


@<TRIPOS>ATOM
   1 C1            -0.0047     1.4317    -0.1565 C.ar    
   2 C2             0.0243     0.0479    -0.2915 C.ar    
   3 C3            -1.1472    -0.6764    -0.3467 C.ar    
   4 C4            -2.3720    -0.0255    -0.2671 C.ar    
   5 C5            -2.4011     1.3700    -0.1305 C.ar    
   6 C6            -1.2160     2.0948    -0.0705 C.ar    
   7 O7            -3.6497    -0.4608    -0.2928 O.3     
   8 C8            -4.5129     0.5549    -0.1823 C.2     
   9 C9            -3.8323     1.7306    -0.0765 C.2     
  10 C10           -4.4036     3.0777     0.0621 C.2     
  11 O11           -3.6732     4.0313     0.2569 O.2     
  12 C12           -5.8636     3.2738    -0.0350 C.ar    
  13 C13           -6.4776     4.3210     0.6578 C.ar    
  14 C14           -7.8395     4.5007     0.5642 C.ar    
  15 C15           -8.6036     3.6425    -0.2181 C.ar    
  16 C16           -7.9968     2.5998    -0.9087 C.ar    
  17 C17           -6.6348     2.4163    -0.8247 C.ar    
  18 O18            1.1587     2.1333    -0.1033 O.3     
  19 O19           -9.9457     3.8228    -0.3074 O.3     
  20 C20          -10.6704     2.9048    -1.1284 C.3     
  21 H21            0.9732    -0.4639    -0.3539 H       
  22 H22           -1.1130    -1.7507    -0.4524 H       
  23 H23           -1.2409     3.1693     0.0351 H       
  24 H24           -5.5885     0.4577    -0.1773 H       
  25 H25           -5.8846     4.9880     1.2660 H       
  26 H26           -8.3147     5.3094     1.0995 H       
  27 H27           -8.5941     1.9349    -1.5151 H       
  28 H28           -6.1641     1.6062    -1.3618 H       
  29 H29            1.4839     2.4218    -0.9671 H       
  30 H30          -10.2987     2.9608    -2.1516 H       
  31 H31          -10.5356     1.8924    -0.7478 H       
  32 H32          -11.7298     3.1610    -1.1122 H       
@<TRIPOS>BOND
   1    1    2 ar
   2    1   18 1
   3    1    6 ar
   4    2    3 ar
   5    2   21 1
   6    3    4 ar
   7    3   22 1
   8    4    5 ar
   9    4    7 1
  10    5    6 ar
  11    5    9 1
  12    6   23 1
  13    7    8 1
  14    8    9 2
  15    8   24 1
  16    9   10 1
  17   10   11 2
  18   10   12 1
  19   12   13 ar
  20   12   17 ar
  21   13   14 ar
  22   13   25 1
  23   14   15 ar
  24   14   26 1
  25   15   16 ar
  26   15   19 1
  27   16   17 ar
  28   16   27 1
  29   17   28 1
  30   18   29 1
  31   19   20 1
  32   20   30 1
  33   20   31 1
  34   20   32 1

#	End of record

