#	Name: ASD10420193
#	Creating user name:	WinNT
#	Creation time:	15. 06. 2019 21:27

#	Modifying user name:	WinNT
#	Modification time:	15. 06. 2019 21:27

#	Program:	/corina/corina34_cracker 3.40 0067  02.08.2006

@<TRIPOS>MOLECULE
ASD10420193
  38   39    0    0    0
SMALL
NO_CHARGES


@<TRIPOS>ATOM
   1 C1            -0.0184     1.5028     0.0103 C.3     
   2 C2             0.0619    -3.3592     1.5230 C.3     
   3 C3            -4.3743     1.3258     8.0730 C.ar    
   4 C4            -3.2822     1.5954     8.8701 C.ar    
   5 C5            -1.8117     1.0394     7.0344 C.ar    
   6 C6            -1.4074    -0.2188     3.0284 C.3     
   7 C7            -1.3986     0.2419     4.4874 C.3     
   8 C8             0.0320    -0.3539     2.5276 C.3     
   9 C9            -0.8197     1.7421     9.2068 C.2     
  10 C10            0.0021    -0.0041     0.0020 C.2     
  11 C11            0.0367    -2.1338     0.6463 C.2     
  12 C12           -4.1955     0.9153     6.7620 C.ar    
  13 C13           -1.9909     1.4537     8.3561 C.ar    
  14 C14           -2.9133     0.7717     6.2423 C.ar    
  15 C15            0.0233    -0.8076     1.0905 C.2     
  16 N16           -0.0035    -0.7938    -1.0922 N.pl3   
  17 N17            0.0206    -2.1268    -0.6620 N.2     
  18 O18            0.3024     1.6183     8.7579 O.2     
  19 O19           -0.9950     2.1425    10.4812 O.3     
  20 O20           -2.7430     0.3681     4.9552 O.3     
  21 F21           -5.2699     0.6531     5.9860 F       
  22 H22            1.0042     1.8801     0.0026 H       
  23 H23           -0.5455     1.8639    -0.8728 H       
  24 H24           -0.5286     1.8543     0.9071 H       
  25 H25           -0.9595    -3.6685     1.7447 H       
  26 H26            0.5814    -4.1657     1.0055 H       
  27 H27            0.5820    -3.1299     2.4531 H       
  28 H28           -5.3720     1.4314     8.4729 H       
  29 H29           -3.4248     1.9155     9.8917 H       
  30 H30           -0.8156     0.9286     6.6320 H       
  31 H31           -1.9097    -1.1834     2.9550 H       
  32 H32           -1.9368     0.5138     2.4192 H       
  33 H33           -0.8692    -0.4907     5.0966 H       
  34 H34           -0.8963     1.2065     4.5608 H       
  35 H35            0.5343     0.6107     2.6010 H       
  36 H36            0.5614    -1.0865     3.1367 H       
  37 H37           -0.0213    -0.4919    -2.0138 H       
  38 H38           -0.1979     2.3195    10.9994 H       
@<TRIPOS>BOND
   1    1   10 1
   2    1   22 1
   3    1   23 1
   4    1   24 1
   5    2   11 1
   6    2   25 1
   7    2   26 1
   8    2   27 1
   9    3    4 ar
  10    3   12 ar
  11    3   28 1
  12    4   13 ar
  13    4   29 1
  14    5   13 ar
  15    5   14 ar
  16    5   30 1
  17    6    7 1
  18    6    8 1
  19    6   31 1
  20    6   32 1
  21    7   20 1
  22    7   33 1
  23    7   34 1
  24    8   15 1
  25    8   35 1
  26    8   36 1
  27    9   13 1
  28    9   18 2
  29    9   19 1
  30   10   15 2
  31   10   16 1
  32   11   15 1
  33   11   17 2
  34   12   14 ar
  35   12   21 1
  36   14   20 1
  37   16   17 1
  38   16   37 1
  39   19   38 1

#	End of record

