#	Name: ASD10100029
#	Creating user name:	WinNT
#	Creation time:	15. 06. 2019 21:24

#	Modifying user name:	WinNT
#	Modification time:	15. 06. 2019 21:24

#	Program:	/corina/corina34_cracker 3.40 0067  02.08.2006

@<TRIPOS>MOLECULE
ASD10100029
  42   44    0    0    0
SMALL
NO_CHARGES


@<TRIPOS>ATOM
   1 C1            -0.7429     0.9945    -0.5358 C.3     
   2 N2             0.6986     0.7849    -0.3793 N.am    
   3 C3             1.2029     0.1925     0.8017 C.2     
   4 C4             0.8342     0.6697     2.0301 C.2     
   5 N5            -0.0332     1.7333     2.1305 N.pl3   
   6 N6             1.3388     0.0751     3.1643 N.am    
   7 C7             0.9503     0.5776     4.4844 C.3     
   8 C8            -0.2831    -0.1490     4.9554 C.ar    
   9 C9            -1.5367     0.3459     4.6478 C.ar    
  10 C10           -2.6680    -0.3206     5.0798 C.ar    
  11 C11           -2.5459    -1.4822     5.8191 C.ar    
  12 C12           -1.2924    -1.9776     6.1260 C.ar    
  13 C13           -0.1610    -1.3135     5.6903 C.ar    
  14 C14            2.1867    -0.9653     3.0675 C.2     
  15 O15            2.6224    -1.4785     4.0803 O.2     
  16 N16            2.5597    -1.4470     1.8681 N.am    
  17 C17            2.0864    -0.8995     0.7313 C.2     
  18 O18            2.4259    -1.3453    -0.3521 O.2     
  19 S19            1.7374     1.2417    -1.5853 S.o2    
  20 O20            2.3860     0.0568    -2.0264 O.2     
  21 O21            0.9979     2.0914    -2.4515 O.2     
  22 C22            2.9834     2.2459    -0.8479 C.2     
  23 C23            4.1480     1.8067    -0.3379 C.2     
  24 C24            4.8376     2.9422     0.1457 C.2     
  25 C25            4.0532     4.0075    -0.0977 C.2     
  26 O26            2.9340     3.5804    -0.7049 O.3     
  27 H27           -0.9989     2.0067    -0.2228 H       
  28 H28           -1.0187     0.8567    -1.5812 H       
  29 H29           -1.2835     0.2760     0.0804 H       
  30 H30           -0.7052     1.8774     1.4460 H       
  31 H31            0.0274     2.3390     2.8858 H       
  32 H32            1.7631     0.4093     5.1909 H       
  33 H33            0.7405     1.6452     4.4195 H       
  34 H34           -1.6321     1.2535     4.0702 H       
  35 H35           -3.6474     0.0665     4.8401 H       
  36 H36           -3.4298    -2.0026     6.1573 H       
  37 H37           -1.1970    -2.8850     6.7038 H       
  38 H38            0.8183    -1.7026     5.9268 H       
  39 H39            3.1720    -2.1978     1.8211 H       
  40 H40            4.4903     0.7829    -0.3038 H       
  41 H41            5.8079     2.9524     0.6199 H       
  42 H42            4.2857     5.0328     0.1495 H       
@<TRIPOS>BOND
   1    1    2 1
   2    1   27 1
   3    1   28 1
   4    1   29 1
   5    2    3 1
   6    2   19 am
   7    3   17 1
   8    3    4 2
   9    4    5 1
  10    4    6 1
  11    5   30 1
  12    5   31 1
  13    6    7 1
  14    6   14 am
  15    7    8 1
  16    7   32 1
  17    7   33 1
  18    8   13 ar
  19    8    9 ar
  20    9   10 ar
  21    9   34 1
  22   10   11 ar
  23   10   35 1
  24   11   12 ar
  25   11   36 1
  26   12   13 ar
  27   12   37 1
  28   13   38 1
  29   14   15 2
  30   14   16 am
  31   16   17 am
  32   16   39 1
  33   17   18 2
  34   19   20 2
  35   19   21 2
  36   19   22 1
  37   22   26 1
  38   22   23 2
  39   23   24 1
  40   23   40 1
  41   24   25 2
  42   24   41 1
  43   25   26 1
  44   25   42 1

#	End of record

