#	Name: ASD13620003
#	Creating user name:	WinNT
#	Creation time:	15. 06. 2019 21:30

#	Modifying user name:	WinNT
#	Modification time:	15. 06. 2019 21:30

#	Program:	/corina/corina34_cracker 3.40 0067  02.08.2006

@<TRIPOS>MOLECULE
ASD13620003
  27   28    0    0    0
SMALL
NO_CHARGES


@<TRIPOS>ATOM
   1 C1            -0.0168     1.3900     0.0097 C.ar    
   2 C2             0.0021    -0.0041     0.0020 C.ar    
   3 C3             1.2192    -0.6850    -0.0132 C.ar    
   4 C4             2.4173     0.0287    -0.0208 C.ar    
   5 C5             2.3982     1.4227    -0.0132 C.ar    
   6 C6             1.1806     2.1035     0.0021 C.ar    
   7 C7            -1.3073     2.1118     0.0197 C.2     
   8 N8            -1.4560     3.4154     0.0275 N.2     
   9 C9            -2.7677     3.6975     0.0352 C.2     
  10 C10           -3.4399     2.5321     0.0321 C.2     
  11 O11           -2.5250     1.5425     0.0165 O.3     
  12 C12            3.6675     2.1791    -0.0207 C.2     
  13 C13            1.2392    -2.1625    -0.0209 C.2     
  14 O14            3.6508     3.3937    -0.0140 O.2     
  15 O15            4.8432     1.5218    -0.0350 O.3     
  16 O16            0.1956    -2.7840    -0.0139 O.2     
  17 O17            2.4147    -2.8201    -0.0356 O.3     
  18 C18            2.3583    -4.2710    -0.0424 C.3     
  19 H19           -0.9258    -0.5567     0.0083 H       
  20 H20            3.3599    -0.4985    -0.0323 H       
  21 H21            1.1657     3.1834     0.0080 H       
  22 H22           -3.2059     4.6846     0.0430 H       
  23 H23           -4.5132     2.4119     0.0368 H       
  24 H24            5.6469     2.0596    -0.0394 H       
  25 H25            1.8222    -4.6096    -0.9289 H       
  26 H26            3.3711    -4.6739    -0.0542 H       
  27 H27            1.8395    -4.6186     0.8510 H       
@<TRIPOS>BOND
   1    1    2 ar
   2    1    6 ar
   3    1    7 1
   4    2    3 ar
   5    2   19 1
   6    3    4 ar
   7    3   13 1
   8    4    5 ar
   9    4   20 1
  10    5    6 ar
  11    5   12 1
  12    6   21 1
  13    7    8 2
  14    7   11 1
  15    8    9 1
  16    9   10 2
  17    9   22 1
  18   10   11 1
  19   10   23 1
  20   12   14 2
  21   12   15 1
  22   13   16 2
  23   13   17 1
  24   15   24 1
  25   17   18 1
  26   18   25 1
  27   18   26 1
  28   18   27 1

#	End of record

