#	Name: ASD10950002
#	Creating user name:	WinNT
#	Creation time:	15. 06. 2019 21:28

#	Modifying user name:	WinNT
#	Modification time:	15. 06. 2019 21:28

#	Program:	/corina/corina34_cracker 3.40 0067  02.08.2006

@<TRIPOS>MOLECULE
ASD10950002
  56   59    0    0    0
SMALL
NO_CHARGES


@<TRIPOS>ATOM
   1 C1            -0.0187     1.5258     0.0104 C.3     
   2 C2             0.0021    -0.0041     0.0020 C.3     
   3 C3            -1.4117    -0.5257     0.0127 C.2     
   4 O4            -2.3448     0.2504     0.0258 O.2     
   5 C5            -1.6514    -1.9203     0.0075 C.2     
   6 C6            -2.8609    -2.5333     0.0153 C.2     
   7 O7            -4.0578    -1.9055     0.0291 O.3     
   8 C8            -2.6610    -3.9993     0.0057 C.2     
   9 O9            -3.5523    -4.8246     0.0095 O.2     
  10 N10           -1.3460    -4.2830    -0.0078 N.am    
  11 C11           -0.6092    -3.0139    -0.0144 C.3     
  12 C12            0.2353    -2.9117    -1.2584 C.ar    
  13 C13            1.5104    -2.3796    -1.1834 C.ar    
  14 C14            2.2889    -2.2836    -2.3181 C.ar    
  15 C15            1.7875    -2.7248    -3.5443 C.ar    
  16 C16            0.4999    -3.2608    -3.6127 C.ar    
  17 C17           -0.2658    -3.3557    -2.4693 C.ar    
  18 C18            2.6153    -2.6247    -4.7637 C.2     
  19 O19            3.7348    -2.1577    -4.7011 O.2     
  20 O20            2.1285    -3.0514    -5.9451 O.3     
  21 C21            2.9973    -2.9223    -7.1013 C.3     
  22 C22           -0.7539    -5.6229    -0.0198 C.3     
  23 C23           -0.5604    -6.0821    -1.4664 C.3     
  24 C24            0.0487    -7.4604    -1.4788 C.2     
  25 C25            1.3538    -7.7558    -1.5854 C.2     
  26 N26            1.5286    -9.1126    -1.5592 N.pl3   
  27 C27            0.3093    -9.7393    -1.4318 C.ar    
  28 C28           -0.6706    -8.7319    -1.3704 C.ar    
  29 C29           -2.0172    -9.0771    -1.2385 C.ar    
  30 C30           -2.3764   -10.3935    -1.1697 C.ar    
  31 C31           -1.4130   -11.3914    -1.2294 C.ar    
  32 C32           -0.0788   -11.0732    -1.3560 C.ar    
  33 H33            1.0039     1.9031     0.0027 H       
  34 H34           -0.5459     1.8868    -0.8726 H       
  35 H35           -0.5289     1.8773     0.9072 H       
  36 H36            0.5123    -0.3556    -0.8948 H       
  37 H37            0.5293    -0.3651     0.8851 H       
  38 H38           -4.8165    -2.5051     0.0330 H       
  39 H39            0.0197    -2.9412     0.8729 H       
  40 H40            1.8968    -2.0384    -0.2344 H       
  41 H41            3.2838    -1.8677    -2.2583 H       
  42 H42            0.1059    -3.6036    -4.5580 H       
  43 H43           -1.2619    -3.7700    -2.5208 H       
  44 H44            2.4846    -3.3018    -7.9852 H       
  45 H45            3.2500    -1.8726    -7.2506 H       
  46 H46            3.9095    -3.4957    -6.9362 H       
  47 H47            0.2115    -5.5981     0.4857 H       
  48 H48           -1.4165    -6.3176     0.4964 H       
  49 H49           -1.5258    -6.1069    -1.9719 H       
  50 H50            0.1022    -5.3874    -1.9826 H       
  51 H51            2.1481    -7.0300    -1.6786 H       
  52 H52            2.3842    -9.5655    -1.6213 H       
  53 H53           -2.7720    -8.3062    -1.1907 H       
  54 H54           -3.4180   -10.6599    -1.0677 H       
  55 H55           -1.7125   -12.4275    -1.1734 H       
  56 H56            0.6631   -11.8567    -1.4017 H       
@<TRIPOS>BOND
   1    1    2 1
   2    1   33 1
   3    1   34 1
   4    1   35 1
   5    2    3 1
   6    2   36 1
   7    2   37 1
   8    3    4 2
   9    3    5 1
  10    5    6 2
  11    5   11 1
  12    6    7 1
  13    6    8 1
  14    7   38 1
  15    8    9 2
  16    8   10 am
  17   10   11 1
  18   10   22 1
  19   11   12 1
  20   11   39 1
  21   12   13 ar
  22   12   17 ar
  23   13   14 ar
  24   13   40 1
  25   14   15 ar
  26   14   41 1
  27   15   16 ar
  28   15   18 1
  29   16   17 ar
  30   16   42 1
  31   17   43 1
  32   18   19 2
  33   18   20 1
  34   20   21 1
  35   21   44 1
  36   21   45 1
  37   21   46 1
  38   22   23 1
  39   22   47 1
  40   22   48 1
  41   23   24 1
  42   23   49 1
  43   23   50 1
  44   24   25 2
  45   24   28 1
  46   25   26 1
  47   25   51 1
  48   26   27 1
  49   26   52 1
  50   27   28 ar
  51   27   32 ar
  52   28   29 ar
  53   29   30 ar
  54   29   53 1
  55   30   31 ar
  56   30   54 1
  57   31   32 ar
  58   31   55 1
  59   32   56 1

#	End of record

