#	Name: ASD11000088
#	Creating user name:	WinNT
#	Creation time:	15. 06. 2019 21:28

#	Modifying user name:	WinNT
#	Modification time:	15. 06. 2019 21:28

#	Program:	/corina/corina34_cracker 3.40 0067  02.08.2006

@<TRIPOS>MOLECULE
ASD11000088
  59   62    0    0    0
SMALL
NO_CHARGES


@<TRIPOS>ATOM
   1 C1            -0.0168     1.4135     0.0051 C.3     
   2 C2             1.4145     1.9541    -0.0024 C.3     
   3 N3             2.0699     1.5828    -1.2610 N.am    
   4 C4             2.1779     1.3695     1.1598 C.ar    
   5 C5             3.1673     0.4262     0.9913 C.ar    
   6 C6             1.8521     1.8128     2.4346 C.ar    
   7 C7             3.8245    -0.0867     2.1034 C.ar    
   8 C8             3.5011     0.3484     3.3751 C.ar    
   9 C9             2.5084     1.3092     3.5428 C.ar    
  10 C10            2.5099     0.1854    -1.4071 C.3     
  11 C11            3.5936    -0.0774    -0.3628 C.3     
  12 O12            2.1850     1.7490     4.7884 O.3     
  13 C13            1.1561     2.7363     4.8809 C.3     
  14 O14            4.1500    -0.1597     4.4569 O.3     
  15 C15            5.1573    -1.1421     4.2068 C.3     
  16 C16            2.2619     2.4847    -2.2439 C.2     
  17 O17            2.8786     2.1720    -3.2437 O.2     
  18 C18            1.7225     3.8544    -2.1062 C.ar    
  19 C19            2.4270     4.9405    -2.6273 C.ar    
  20 C20            0.5037     4.0659    -1.4596 C.ar    
  21 C21            0.0059     5.3475    -1.3344 C.ar    
  22 C22            0.7133     6.4212    -1.8490 C.ar    
  23 C23            1.9187     6.2166    -2.4957 C.ar    
  24 O24            0.0136    -0.0152     0.0012 O.3     
  25 C25           -1.1846    -0.6582     0.0070 C.ar    
  26 C26           -1.2277    -2.0445     0.0037 C.ar    
  27 C27           -2.3635     0.0722     0.0218 C.ar    
  28 C28           -3.5806    -0.5809     0.0277 C.ar    
  29 C29           -3.6238    -1.9672     0.0183 C.ar    
  30 C30           -2.4448    -2.6977     0.0095 C.ar    
  31 Cl31          -1.5099     5.6135    -0.5312 Cl      
  32 O32           -4.8220    -2.6102     0.0249 O.3     
  33 C33           -4.7916    -4.0388     0.0145 C.3     
  34 H34           -0.5327     1.7635     0.8991 H       
  35 H35           -0.5437     1.7680    -0.8808 H       
  36 H36            1.3925     3.0401     0.0885 H       
  37 H37            1.0801     2.5572     2.5617 H       
  38 H38            4.5948    -0.8323     1.9729 H       
  39 H39            1.6673    -0.4858    -1.2411 H       
  40 H40            2.9154     0.0291    -2.4067 H       
  41 H41            4.5103     0.4308    -0.6619 H       
  42 H42            3.7819    -1.1493    -0.3036 H       
  43 H43            1.4542     3.6251     4.3247 H       
  44 H44            0.2319     2.3384     4.4617 H       
  45 H45            0.9972     2.9986     5.9269 H       
  46 H46            5.9342    -0.7129     3.5741 H       
  47 H47            5.5947    -1.4628     5.1522 H       
  48 H48            4.7113    -1.9997     3.7033 H       
  49 H49            3.3686     4.7827    -3.1323 H       
  50 H50           -0.0486     3.2290    -1.0584 H       
  51 H51            0.3199     7.4220    -1.7487 H       
  52 H52            2.4657     7.0581    -2.8944 H       
  53 H53           -0.3096    -2.6133    -0.0037 H       
  54 H54           -2.3299     1.1517     0.0292 H       
  55 H55           -4.4987    -0.0121     0.0400 H       
  56 H56           -2.4784    -3.7771     0.0018 H       
  57 H57           -4.2785    -4.3848    -0.8828 H       
  58 H58           -4.2619    -4.3974     0.8970 H       
  59 H59           -5.8113    -4.4240     0.0212 H       
@<TRIPOS>BOND
   1    1   24 1
   2    1    2 1
   3    1   34 1
   4    1   35 1
   5    2    3 1
   6    2    4 1
   7    2   36 1
   8    3   10 1
   9    3   16 am
  10    4    5 ar
  11    4    6 ar
  12    5    7 ar
  13    5   11 1
  14    6    9 ar
  15    6   37 1
  16    7    8 ar
  17    7   38 1
  18    8    9 ar
  19    8   14 1
  20    9   12 1
  21   10   11 1
  22   10   39 1
  23   10   40 1
  24   11   41 1
  25   11   42 1
  26   12   13 1
  27   13   43 1
  28   13   44 1
  29   13   45 1
  30   14   15 1
  31   15   46 1
  32   15   47 1
  33   15   48 1
  34   16   17 2
  35   16   18 1
  36   18   20 ar
  37   18   19 ar
  38   19   23 ar
  39   19   49 1
  40   20   21 ar
  41   20   50 1
  42   21   22 ar
  43   21   31 1
  44   22   23 ar
  45   22   51 1
  46   23   52 1
  47   24   25 1
  48   25   26 ar
  49   25   27 ar
  50   26   30 ar
  51   26   53 1
  52   27   28 ar
  53   27   54 1
  54   28   29 ar
  55   28   55 1
  56   29   30 ar
  57   29   32 1
  58   30   56 1
  59   32   33 1
  60   33   57 1
  61   33   58 1
  62   33   59 1

#	End of record

