#	Name: ASD10160264
#	Creating user name:	WinNT
#	Creation time:	15. 06. 2019 21:25

#	Modifying user name:	WinNT
#	Modification time:	15. 06. 2019 21:25

#	Program:	/corina/corina34_cracker 3.40 0067  02.08.2006

@<TRIPOS>MOLECULE
ASD10160264
  38   39    0    0    0
SMALL
NO_CHARGES


@<TRIPOS>ATOM
   1 C1             0.3719     1.0993     1.9653 C.2     
   2 C2             0.2892    -0.2783     1.4421 C.ar    
   3 C3             1.3729    -0.8333     0.7558 C.ar    
   4 C4             1.2918    -2.1198     0.2695 C.ar    
   5 C5             0.1327    -2.8655     0.4606 C.ar    
   6 C6            -0.9465    -2.3161     1.1422 C.ar    
   7 C7            -0.8704    -1.0328     1.6367 C.ar    
   8 O8             1.3837     1.7529     1.7995 O.2     
   9 N9            -0.6761     1.6349     2.6221 N.am    
  10 S10           -0.5833     3.1805     3.2091 S.o2    
  11 O11           -1.8352     3.3884     3.8484 O.2     
  12 O12            0.6297     3.2021     3.9489 O.2     
  13 C13           -0.4444     4.2194     1.7285 C.3     
  14 O14            0.0558    -4.1323    -0.0201 O.3     
  15 C15           -1.3981    -5.5726     1.2034 C.ar    
  16 C16           -1.1301    -4.7863     0.0918 C.ar    
  17 C17           -2.0933    -4.6768    -0.9061 C.ar    
  18 C18           -3.2872    -5.3619    -0.7470 C.ar    
  19 C19           -3.4809    -6.1256     0.3886 C.ar    
  20 N20           -2.5471    -6.2084     1.3163 N.ar    
  21 C21           -4.7765    -6.8737     0.5693 C.3     
  22 C22           -4.4808    -8.3563     0.8049 C.3     
  23 Cl23           2.6367    -2.8109    -0.5832 Cl      
  24 H24            2.2724    -0.2545     0.6067 H       
  25 H25           -1.8447    -2.8978     1.2880 H       
  26 H26           -1.7082    -0.6085     2.1701 H       
  27 H27           -1.4848     1.1149     2.7508 H       
  28 H28           -1.3229     4.0751     1.0997 H       
  29 H29           -0.3774     5.2664     2.0243 H       
  30 H30            0.4505     3.9411     1.1720 H       
  31 H31           -0.6557    -5.6683     1.9819 H       
  32 H32           -1.9150    -4.0723    -1.7832 H       
  33 H33           -4.0576    -5.2996    -1.5014 H       
  34 H34           -5.3130    -6.4693     1.4276 H       
  35 H35           -5.3879    -6.7630    -0.3263 H       
  36 H36           -3.9443    -8.7606    -0.0535 H       
  37 H37           -3.8694    -8.4669     1.7005 H       
  38 H38           -5.4179    -8.8974     0.9355 H       
@<TRIPOS>BOND
   1    1    2 1
   2    1    8 2
   3    1    9 am
   4    2    3 ar
   5    2    7 ar
   6    3    4 ar
   7    3   24 1
   8    4    5 ar
   9    4   23 1
  10    5    6 ar
  11    5   14 1
  12    6    7 ar
  13    6   25 1
  14    7   26 1
  15    9   10 am
  16    9   27 1
  17   10   11 2
  18   10   12 2
  19   10   13 1
  20   13   28 1
  21   13   29 1
  22   13   30 1
  23   14   16 1
  24   15   16 ar
  25   15   20 ar
  26   15   31 1
  27   16   17 ar
  28   17   18 ar
  29   17   32 1
  30   18   19 ar
  31   18   33 1
  32   19   20 ar
  33   19   21 1
  34   21   22 1
  35   21   34 1
  36   21   35 1
  37   22   36 1
  38   22   37 1
  39   22   38 1

#	End of record

