#	Name: ASD11000108
#	Creating user name:	WinNT
#	Creation time:	15. 06. 2019 21:28

#	Modifying user name:	WinNT
#	Modification time:	15. 06. 2019 21:28

#	Program:	/corina/corina34_cracker 3.40 0067  02.08.2006

@<TRIPOS>MOLECULE
ASD11000108
  59   62    0    0    0
SMALL
NO_CHARGES


@<TRIPOS>ATOM
   1 C1            -0.0752     1.4355    -0.0463 C.2     
   2 C2             0.1198    -0.0550     0.0614 C.3     
   3 N3            -0.5382    -0.5467     1.2765 N.am    
   4 C4            -0.4785    -0.7281    -1.1485 C.ar    
   5 C5            -1.3175    -1.8158    -1.0467 C.ar    
   6 C6            -0.1559    -0.2157    -2.3979 C.ar    
   7 C7            -1.8250    -2.4027    -2.1998 C.ar    
   8 C8            -1.5039    -1.8985    -3.4464 C.ar    
   9 C9            -0.6642    -0.7934    -3.5471 C.ar    
  10 C10           -0.7635    -1.9978     1.3829 C.3     
  11 C11           -1.7343    -2.4047     0.2756 C.3     
  12 C12           -0.9208     0.2957     2.2565 C.2     
  13 O13           -0.6265     1.4735     2.1947 O.2     
  14 C14           -1.6984    -0.2126     3.4066 C.ar    
  15 C15           -1.3925     0.2102     4.7012 C.ar    
  16 C16            0.9772     2.2418    -0.0699 C.2     
  17 C17            0.7859     3.7033    -0.1755 C.ar    
  18 C18            1.8924     4.5537    -0.2005 C.ar    
  19 C19           -0.5015     4.2365    -0.2563 C.ar    
  20 C20           -0.6757     5.6004    -0.3551 C.ar    
  21 C21            0.4274     6.4435    -0.3749 C.ar    
  22 C22            1.7099     5.9166    -0.2996 C.ar    
  23 O23            0.2516     7.7871    -0.4733 O.3     
  24 C24            1.4295     8.5961    -0.4881 C.3     
  25 C25           -2.7451    -1.1127     3.2018 C.ar    
  26 C26           -3.4673    -1.5837     4.2791 C.ar    
  27 C27           -3.1565    -1.1656     5.5604 C.ar    
  28 C28           -2.1226    -0.2685     5.7707 C.ar    
  29 Cl29          -1.7401     0.2504     7.3825 Cl      
  30 C30           -2.8610    -3.6103    -4.3867 C.3     
  31 O31           -2.0061    -2.4797    -4.5686 O.3     
  32 O32           -0.3453    -0.2850    -4.7675 O.3     
  33 C33            0.5220     0.8505    -4.7908 C.3     
  34 H34           -1.0719     1.8465    -0.1087 H       
  35 H35            1.1855    -0.2787     0.1102 H       
  36 H36            0.4971     0.6412    -2.4730 H       
  37 H37           -2.4761    -3.2608    -2.1213 H       
  38 H38            0.1809    -2.5277     1.2585 H       
  39 H39           -1.1942    -2.2338     2.3560 H       
  40 H40           -2.7338    -2.0498     0.5269 H       
  41 H41           -1.7505    -3.4916     0.1947 H       
  42 H42           -0.5863     0.9097     4.8659 H       
  43 H43            1.9741     1.8304    -0.0120 H       
  44 H44            2.8902     4.1446    -0.1420 H       
  45 H45           -1.3599     3.5813    -0.2417 H       
  46 H46           -1.6716     6.0137    -0.4177 H       
  47 H47            2.5655     6.5755    -0.3152 H       
  48 H48            1.1481     9.6460    -0.5700 H       
  49 H49            1.9886     8.4407     0.4345 H       
  50 H50            2.0501     8.3187    -1.3402 H       
  51 H51           -2.9895    -1.4397     2.2020 H       
  52 H52           -4.2774    -2.2803     4.1214 H       
  53 H53           -3.7254    -1.5368     6.4000 H       
  54 H54           -2.3156    -4.3985    -3.8677 H       
  55 H55           -3.7285    -3.3183    -3.7948 H       
  56 H56           -3.1910    -3.9764    -5.3589 H       
  57 H57            0.0600     1.6718    -4.2430 H       
  58 H58            1.4723     0.5915    -4.3239 H       
  59 H59            0.6952     1.1543    -5.8231 H       
@<TRIPOS>BOND
   1    1    2 1
   2    1   16 2
   3    1   34 1
   4    2    3 1
   5    2    4 1
   6    2   35 1
   7    3   10 1
   8    3   12 am
   9    4    5 ar
  10    4    6 ar
  11    5    7 ar
  12    5   11 1
  13    6    9 ar
  14    6   36 1
  15    7    8 ar
  16    7   37 1
  17    8    9 ar
  18    8   31 1
  19    9   32 1
  20   10   11 1
  21   10   38 1
  22   10   39 1
  23   11   40 1
  24   11   41 1
  25   12   13 2
  26   12   14 1
  27   14   15 ar
  28   14   25 ar
  29   15   28 ar
  30   15   42 1
  31   16   17 1
  32   16   43 1
  33   17   18 ar
  34   17   19 ar
  35   18   22 ar
  36   18   44 1
  37   19   20 ar
  38   19   45 1
  39   20   21 ar
  40   20   46 1
  41   21   22 ar
  42   21   23 1
  43   22   47 1
  44   23   24 1
  45   24   48 1
  46   24   49 1
  47   24   50 1
  48   25   26 ar
  49   25   51 1
  50   26   27 ar
  51   26   52 1
  52   27   28 ar
  53   27   53 1
  54   28   29 1
  55   30   31 1
  56   30   54 1
  57   30   55 1
  58   30   56 1
  59   32   33 1
  60   33   57 1
  61   33   58 1
  62   33   59 1

#	End of record

