#	Name: ASD10950005
#	Creating user name:	WinNT
#	Creation time:	15. 06. 2019 21:28

#	Modifying user name:	WinNT
#	Modification time:	15. 06. 2019 21:28

#	Program:	/corina/corina34_cracker 3.40 0067  02.08.2006

@<TRIPOS>MOLECULE
ASD10950005
  60   64    0    0    0
SMALL
NO_CHARGES


@<TRIPOS>ATOM
   1 C1             0.7351     1.3635    -2.2141 C.3     
   2 O2             0.6321    -0.0343    -1.8349 O.3     
   3 C3             1.1534    -0.3847    -0.6432 C.2     
   4 O4             1.6795     0.4545     0.0600 O.2     
   5 C5             1.0851    -1.7896    -0.1915 C.ar    
   6 C6             1.6244    -2.1562     1.0432 C.ar    
   7 C7             1.5573    -3.4698     1.4589 C.ar    
   8 C8             0.9573    -4.4232     0.6553 C.ar    
   9 C9             0.4209    -4.0668    -0.5693 C.ar    
  10 C10            0.4760    -2.7557    -0.9947 C.ar    
  11 C11            0.8882    -5.8564     1.1159 C.3     
  12 N12           -0.4711    -6.3795     0.9352 N.am    
  13 C13           -1.6861    -5.8589     1.5667 C.3     
  14 C14           -2.3052    -4.7832     0.6720 C.3     
  15 C15           -3.5550    -4.2477     1.3217 C.2     
  16 C16           -4.8126    -4.6577     1.0926 C.2     
  17 N17           -5.6849    -3.9414     1.8659 N.pl3   
  18 C18           -4.9924    -3.0297     2.6308 C.ar    
  19 C19           -3.6276    -3.1853     2.3276 C.ar    
  20 C20           -2.6772    -2.3829     2.9621 C.ar    
  21 C21           -3.0785    -1.4495     3.8755 C.ar    
  22 C22           -4.4242    -1.2924     4.1785 C.ar    
  23 C23           -5.3782    -2.0755     3.5670 C.ar    
  24 C24           -0.4040    -7.4214     0.0865 C.2     
  25 O25           -1.3538    -8.0848    -0.2795 O.2     
  26 C26            0.9960    -7.6393    -0.3351 C.2     
  27 C27            1.7888    -6.7199     0.2638 C.2     
  28 C28            3.2409    -6.5873     0.1140 C.2     
  29 O29            3.7150    -6.2669    -0.9597 O.2     
  30 C30            4.1296    -6.8429     1.2678 C.ar    
  31 C31            5.5090    -6.6640     1.1439 C.ar    
  32 C32            6.3321    -6.9038     2.2243 C.ar    
  33 C33            5.7939    -7.3208     3.4292 C.ar    
  34 C34            4.4278    -7.5004     3.5588 C.ar    
  35 C35            3.5926    -7.2587     2.4881 C.ar    
  36 O36            1.4179    -8.6044    -1.1840 O.3     
  37 H37            1.7854     1.6517    -2.2577 H       
  38 H38            0.2775     1.5092    -3.1926 H       
  39 H39            0.2197     1.9789    -1.4767 H       
  40 H40            2.0932    -1.4131     1.6712 H       
  41 H41            1.9743    -3.7549     2.4135 H       
  42 H42           -0.0456    -4.8160    -1.1918 H       
  43 H43            0.0570    -2.4788    -1.9508 H       
  44 H44            1.1809    -5.9276     2.1635 H       
  45 H45           -2.3999    -6.6709     1.7056 H       
  46 H46           -1.4354    -5.4260     2.5351 H       
  47 H47           -1.5914    -3.9712     0.5332 H       
  48 H48           -2.5559    -5.2161    -0.2964 H       
  49 H49           -5.0941    -5.4372     0.4001 H       
  50 H50           -6.6479    -4.0581     1.8738 H       
  51 H51           -1.6285    -2.5000     2.7319 H       
  52 H52           -2.3430    -0.8291     4.3659 H       
  53 H53           -4.7259    -0.5504     4.9030 H       
  54 H54           -6.4226    -1.9457     3.8094 H       
  55 H55            5.9304    -6.3390     0.2041 H       
  56 H56            7.3991    -6.7663     2.1298 H       
  57 H57            6.4429    -7.5071     4.2721 H       
  58 H58            4.0143    -7.8263     4.5018 H       
  59 H59            2.5267    -7.3993     2.5906 H       
  60 H60            0.7099    -9.1730    -1.5161 H       
@<TRIPOS>BOND
   1    1    2 1
   2    1   37 1
   3    1   38 1
   4    1   39 1
   5    2    3 1
   6    3    4 2
   7    3    5 1
   8    5    6 ar
   9    5   10 ar
  10    6    7 ar
  11    6   40 1
  12    7    8 ar
  13    7   41 1
  14    8    9 ar
  15    8   11 1
  16    9   10 ar
  17    9   42 1
  18   10   43 1
  19   11   12 1
  20   11   27 1
  21   11   44 1
  22   12   13 1
  23   12   24 am
  24   13   14 1
  25   13   45 1
  26   13   46 1
  27   14   15 1
  28   14   47 1
  29   14   48 1
  30   15   16 2
  31   15   19 1
  32   16   17 1
  33   16   49 1
  34   17   18 1
  35   17   50 1
  36   18   19 ar
  37   18   23 ar
  38   19   20 ar
  39   20   21 ar
  40   20   51 1
  41   21   22 ar
  42   21   52 1
  43   22   23 ar
  44   22   53 1
  45   23   54 1
  46   24   25 2
  47   24   26 1
  48   26   27 2
  49   26   36 1
  50   27   28 1
  51   28   29 2
  52   28   30 1
  53   30   31 ar
  54   30   35 ar
  55   31   32 ar
  56   31   55 1
  57   32   33 ar
  58   32   56 1
  59   33   34 ar
  60   33   57 1
  61   34   35 ar
  62   34   58 1
  63   35   59 1
  64   36   60 1

#	End of record

