#	Name: ASD11000095
#	Creating user name:	WinNT
#	Creation time:	15. 06. 2019 21:28

#	Modifying user name:	WinNT
#	Modification time:	15. 06. 2019 21:28

#	Program:	/corina/corina34_cracker 3.40 0067  02.08.2006

@<TRIPOS>MOLECULE
ASD11000095
  59   62    0    0    0
SMALL
NO_CHARGES


@<TRIPOS>ATOM
   1 C1            -0.1866     1.2817     0.0132 C.3     
   2 C2             0.4051    -0.1077    -0.2324 C.3     
   3 N3             1.1401    -0.5429     0.9600 N.am    
   4 C4            -0.7076    -1.0822    -0.5273 C.ar    
   5 C5            -0.8011    -2.3045     0.0983 C.ar    
   6 C6            -1.6628    -0.7102    -1.4717 C.ar    
   7 C7            -1.8419    -3.1648    -0.2285 C.ar    
   8 C8            -2.7904    -2.8003    -1.1687 C.ar    
   9 C9            -2.7023    -1.5650    -1.7924 C.ar    
  10 C10            1.4810    -1.9718     1.0594 C.3     
  11 C11            0.1758    -2.7607     1.1500 C.3     
  12 O12           -3.8041    -3.6504    -1.4797 O.3     
  13 C13           -4.7456    -3.2066    -2.4588 C.3     
  14 C14            1.4898     0.3300     1.9254 C.2     
  15 O15            1.3013     1.5202     1.7660 O.2     
  16 C16            2.1026    -0.1600     3.1785 C.ar    
  17 C17            1.7992    -1.4364     3.6547 C.ar    
  18 C18            2.9916     0.6496     3.8873 C.ar    
  19 C19            3.5599     0.1863     5.0559 C.ar    
  20 C20            3.2504    -1.0778     5.5255 C.ar    
  21 C21            2.3745    -1.8876     4.8247 C.ar    
  22 O22           -1.0891     1.2262     1.1197 O.3     
  23 C23           -1.7055     2.3858     1.4724 C.ar    
  24 C24           -2.5939     2.4030     2.5374 C.ar    
  25 C25           -1.4416     3.5527     0.7707 C.ar    
  26 C26           -2.0677     4.7307     1.1289 C.ar    
  27 C27           -2.9607     4.7465     2.1901 C.ar    
  28 C28           -3.2201     3.5809     2.8956 C.ar    
  29 O29           -3.5765     5.9064     2.5433 O.3     
  30 C30           -4.4840     5.8495     3.6456 C.3     
  31 O31           -1.5727     0.5009    -2.0815 O.3     
  32 C32           -2.5831     0.8216    -3.0397 C.3     
  33 H33            0.6165     1.9847     0.2343 H       
  34 H34           -0.7228     1.6108    -0.8769 H       
  35 H35            1.0855    -0.0669    -1.0831 H       
  36 H36           -1.9115    -4.1278     0.2555 H       
  37 H37           -3.4409    -1.2718    -2.5238 H       
  38 H38            2.0378    -2.2805     0.1747 H       
  39 H39            2.0804    -2.1467     1.9528 H       
  40 H40           -0.2645    -2.6132     2.1362 H       
  41 H41            0.3869    -3.8205     1.0075 H       
  42 H42           -5.2264    -2.2918    -2.1122 H       
  43 H43           -4.2283    -3.0117    -3.3982 H       
  44 H44           -5.5003    -3.9778    -2.6129 H       
  45 H45            1.1153    -2.0693     3.1087 H       
  46 H46            3.2342     1.6364     3.5216 H       
  47 H47            4.2482     0.8116     5.6052 H       
  48 H48            3.6984    -1.4359     6.4407 H       
  49 H49            2.1368    -2.8732     5.1968 H       
  50 H50           -2.7963     1.4952     3.0864 H       
  51 H51           -0.7462     3.5404    -0.0556 H       
  52 H52           -1.8616     5.6395     0.5830 H       
  53 H53           -3.9157     3.5932     3.7217 H       
  54 H54           -5.2874     5.1486     3.4191 H       
  55 H55           -3.9523     5.5169     4.5372 H       
  56 H56           -4.9044     6.8397     3.8216 H       
  57 H57           -2.5671     0.0866    -3.8445 H       
  58 H58           -3.5598     0.8093    -2.5558 H       
  59 H59           -2.3933     1.8135    -3.4498 H       
@<TRIPOS>BOND
   1    1    2 1
   2    1   22 1
   3    1   33 1
   4    1   34 1
   5    2    3 1
   6    2    4 1
   7    2   35 1
   8    3   10 1
   9    3   14 am
  10    4    5 ar
  11    4    6 ar
  12    5    7 ar
  13    5   11 1
  14    6   31 1
  15    6    9 ar
  16    7    8 ar
  17    7   36 1
  18    8    9 ar
  19    8   12 1
  20    9   37 1
  21   10   11 1
  22   10   38 1
  23   10   39 1
  24   11   40 1
  25   11   41 1
  26   12   13 1
  27   13   42 1
  28   13   43 1
  29   13   44 1
  30   14   15 2
  31   14   16 1
  32   16   18 ar
  33   16   17 ar
  34   17   21 ar
  35   17   45 1
  36   18   19 ar
  37   18   46 1
  38   19   20 ar
  39   19   47 1
  40   20   21 ar
  41   20   48 1
  42   21   49 1
  43   22   23 1
  44   23   24 ar
  45   23   25 ar
  46   24   28 ar
  47   24   50 1
  48   25   26 ar
  49   25   51 1
  50   26   27 ar
  51   26   52 1
  52   27   28 ar
  53   27   29 1
  54   28   53 1
  55   29   30 1
  56   30   54 1
  57   30   55 1
  58   30   56 1
  59   31   32 1
  60   32   57 1
  61   32   58 1
  62   32   59 1

#	End of record

