#	Name: ASD10438005
#	Creating user name:	WinNT
#	Creation time:	15. 06. 2019 21:27

#	Modifying user name:	WinNT
#	Modification time:	15. 06. 2019 21:27

#	Program:	/corina/corina34_cracker 3.40 0067  02.08.2006

@<TRIPOS>MOLECULE
ASD10438005
  23   24    0    0    0
SMALL
NO_CHARGES


@<TRIPOS>ATOM
   1 C1            -0.0144     1.2111     0.0087 C.2     
   2 O2             0.1173     0.0035     0.0440 O.2     
   3 C3             2.2732     4.1966     0.0530 C.ar    
   4 C4             1.1660     3.4114    -0.2026 C.ar    
   5 C5             1.1505     2.0905     0.2581 C.ar    
   6 C6             2.2662     1.6239     0.9615 C.ar    
   7 C7             3.3305     2.4788     1.1718 C.ar    
   8 N8             3.3040     3.7169     0.7201 N.ar    
   9 C9            -1.3339     1.8009    -0.2888 C.ar    
  10 C10           -2.2974     1.0552    -0.9742 C.ar    
  11 C11           -3.5279     1.6111    -1.2487 C.ar    
  12 C12           -3.8112     2.9081    -0.8468 C.ar    
  13 C13           -2.8591     3.6529    -0.1665 C.ar    
  14 C14           -1.6273     3.1056     0.1188 C.ar    
  15 F15           -5.0191     3.4483    -1.1196 F       
  16 H16            2.2966     5.2162    -0.3024 H       
  17 H17            0.3248     3.8112    -0.7494 H       
  18 H18            2.2946     0.6109     1.3348 H       
  19 H19            4.1962     2.1281     1.7140 H       
  20 H20           -2.0777     0.0455    -1.2882 H       
  21 H21           -4.2731     1.0360    -1.7781 H       
  22 H22           -3.0853     4.6624     0.1436 H       
  23 H23           -0.8882     3.6849     0.6522 H       
@<TRIPOS>BOND
   1    1    2 2
   2    1    5 1
   3    1    9 1
   4    3    4 ar
   5    3    8 ar
   6    3   16 1
   7    4    5 ar
   8    4   17 1
   9    5    6 ar
  10    6    7 ar
  11    6   18 1
  12    7    8 ar
  13    7   19 1
  14    9   10 ar
  15    9   14 ar
  16   10   11 ar
  17   10   20 1
  18   11   12 ar
  19   11   21 1
  20   12   13 ar
  21   12   15 1
  22   13   14 ar
  23   13   22 1
  24   14   23 1

#	End of record

