#	Name: ASD15230002
#	Creating user name:	WinNT
#	Creation time:	15. 06. 2019 21:31

#	Modifying user name:	WinNT
#	Modification time:	15. 06. 2019 21:31

#	Program:	/corina/corina34_cracker 3.40 0067  02.08.2006

@<TRIPOS>MOLECULE
ASD15230002
  53   54    0    0    0
SMALL
NO_CHARGES


@<TRIPOS>ATOM
   1 C1             1.0129     1.1604    -3.8855 C.3     
   2 C2            -0.1477     1.6350    -3.0087 C.3     
   3 O3            -0.2369     3.0600    -3.0669 O.3     
   4 C4            -1.2161     3.6426    -2.3437 C.2     
   5 O5            -1.9733     2.9576    -1.6817 O.2     
   6 C6            -1.3622     5.0491    -2.3551 C.2     
   7 C7            -1.9785     5.6378    -3.3946 C.2     
   8 N8            -2.1434     6.9954    -3.4342 N.pl3   
   9 C9            -2.0216     7.7391    -2.2922 C.2     
  10 C10           -1.4075     7.2380    -1.2066 C.2     
  11 C11           -0.8306     5.8527    -1.2024 C.3     
  12 C12            0.6697     5.9396    -1.3154 C.ar    
  13 C13            1.2462     6.5419    -2.4180 C.ar    
  14 C14            2.6222     6.6213    -2.5220 C.ar    
  15 C15            3.4228     6.0983    -1.5235 C.ar    
  16 C16            2.8477     5.4962    -0.4205 C.ar    
  17 C17            1.4701     5.4216    -0.3131 C.ar    
  18 Cl18           0.7469     4.6660     1.0724 Cl      
  19 C19           -1.3069     8.0318    -0.0405 C.2     
  20 O20           -1.7737     9.1555    -0.0273 O.2     
  21 O21           -0.6933     7.5431     1.0576 O.3     
  22 C22           -0.6280     8.3996     2.1996 C.3     
  23 C23           -2.5824     9.1373    -2.2512 C.3     
  24 C24           -2.4938     4.7920    -4.5305 C.3     
  25 O25           -3.9197     4.8740    -4.5767 O.3     
  26 C26           -4.5125     4.1037    -5.6242 C.3     
  27 C27           -6.0333     4.2655    -5.5783 C.3     
  28 N28           -6.3864     5.6605    -5.8739 N.3     
  29 H29            1.0810     0.0735    -3.8411 H       
  30 H30            0.8410     1.4719    -4.9157 H       
  31 H31            1.9437     1.5978    -3.5242 H       
  32 H32           -1.0784     1.1976    -3.3700 H       
  33 H33            0.0243     1.3235    -1.9784 H       
  34 H34           -2.3473     7.4327    -4.2757 H       
  35 H35           -1.0912     5.3582    -0.2666 H       
  36 H36            0.6213     6.9503    -3.1985 H       
  37 H37            3.0721     7.0917    -3.3838 H       
  38 H38            4.4980     6.1563    -1.6076 H       
  39 H39            3.4732     5.0874     0.3592 H       
  40 H40           -1.6379     8.6573     2.5186 H       
  41 H41           -0.1109     7.8859     3.0100 H       
  42 H42           -0.0854     9.3090     1.9412 H       
  43 H43           -3.0401     9.3735    -3.2118 H       
  44 H44           -3.3339     9.2044    -1.4644 H       
  45 H45           -1.7790     9.8452    -2.0475 H       
  46 H46           -2.0784     5.1545    -5.4708 H       
  47 H47           -2.1942     3.7554    -4.3766 H       
  48 H48           -4.1390     4.4519    -6.5872 H       
  49 H49           -4.2548     3.0528    -5.4930 H       
  50 H50           -6.4909     3.6100    -6.3191 H       
  51 H51           -6.3969     4.0013    -4.5853 H       
  52 H52           -6.0047     5.9497    -6.7620 H       
  53 H53           -7.3864     5.7932    -5.8496 H       
@<TRIPOS>BOND
   1    1   29 1
   2    1   30 1
   3    1   31 1
   4    1    2 1
   5    2    3 1
   6    2   32 1
   7    2   33 1
   8    3    4 1
   9    4    5 2
  10    4    6 1
  11    6    7 2
  12    6   11 1
  13    7   24 1
  14    7    8 1
  15    8    9 1
  16    8   34 1
  17    9   23 1
  18    9   10 2
  19   10   19 1
  20   10   11 1
  21   11   35 1
  22   11   12 1
  23   12   13 ar
  24   12   17 ar
  25   13   36 1
  26   13   14 ar
  27   14   37 1
  28   14   15 ar
  29   15   16 ar
  30   15   38 1
  31   16   17 ar
  32   16   39 1
  33   17   18 1
  34   19   21 1
  35   19   20 2
  36   21   22 1
  37   22   40 1
  38   22   41 1
  39   22   42 1
  40   23   43 1
  41   23   44 1
  42   23   45 1
  43   24   25 1
  44   24   46 1
  45   24   47 1
  46   25   26 1
  47   26   27 1
  48   26   48 1
  49   26   49 1
  50   27   28 1
  51   27   50 1
  52   27   51 1
  53   28   52 1
  54   28   53 1

#	End of record

