#	Name: ASD15100001
#	Creating user name:	WinNT
#	Creation time:	15. 06. 2019 21:31

#	Modifying user name:	WinNT
#	Modification time:	15. 06. 2019 21:31

#	Program:	/corina/corina34_cracker 3.40 0067  02.08.2006

@<TRIPOS>MOLECULE
ASD15100001
  62   67    0    0    0
SMALL
NO_CHARGES


@<TRIPOS>ATOM
   1 C1            -0.0184     1.5037     0.0103 C.ar    
   2 C2             0.0021    -0.0041     0.0020 C.3     
   3 C3            -1.3676    -0.5359    -0.4270 C.3     
   4 C4            -2.4442     0.1962     0.3844 C.3     
   5 C5            -1.1897     3.5983     0.0432 C.ar    
   6 N6             0.0374     5.6757     0.0546 N.am    
   7 C7             0.0559     6.4184     1.3294 C.3     
   8 C8             0.0921     8.7121     2.3072 C.2     
   9 C9             0.1279    10.8179     3.5243 C.3     
  10 C10           -3.2199    12.5066     3.9642 C.ar    
  11 C11           -3.8805    11.6025     4.7749 C.ar    
  12 C12           -3.2437    10.4450     5.1815 C.ar    
  13 C13            0.1124    10.7621     1.1047 C.2     
  14 C14            0.0933     9.9858    -0.1981 C.3     
  15 C15            2.5281     4.2975     0.0047 C.3     
  16 C16            1.2112     3.5648     0.0133 C.ar    
  17 C17            1.1882     2.1854     0.0025 C.ar    
  18 O18           -2.4140     1.5789     0.0278 O.3     
  19 C19           -1.2100     2.2083     0.0312 C.ar    
  20 C20            0.0187     4.2774     0.0416 C.ar    
  21 C21            0.0753     7.9286     1.2168 C.2     
  22 N22            0.1090    10.0732     2.2628 N.am    
  23 C23           -1.2862    11.0947     3.9655 C.ar    
  24 C24           -1.9227    12.2526     3.5595 C.ar    
  25 C25           -1.9467    10.1908     4.7765 C.ar    
  26 O26            0.1307    11.9745     1.1042 O.2     
  27 C27            0.0739     8.4767    -0.0795 C.2     
  28 N28            0.0561     7.7093    -1.1374 N.2     
  29 C29            0.0333     6.3756    -1.0963 C.2     
  30 O30            0.0182     5.7625    -2.1484 O.2     
  31 C31           -3.7996    -0.3806     0.0663 C.ar    
  32 N32           -4.3776    -0.0920    -1.0833 N.ar    
  33 C33           -5.5620    -0.5738    -1.4046 C.ar    
  34 C34           -6.2464    -1.4066    -0.5392 C.ar    
  35 C35           -5.6726    -1.7338     0.6792 C.ar    
  36 C36           -4.4216    -1.2121     0.9816 C.ar    
  37 F37           -3.8219    -1.5081     2.1554 F       
  38 H38            0.7619    -0.3526    -0.6975 H       
  39 H39            0.2359    -0.3691     1.0021 H       
  40 H40           -1.5179    -0.3486    -1.4902 H       
  41 H41           -1.4240    -1.6066    -0.2304 H       
  42 H42           -2.2393     0.0866     1.4493 H       
  43 H43           -2.1179     4.1505     0.0534 H       
  44 H44           -0.8254     6.1314     1.9030 H       
  45 H45            0.9368     6.1079     1.8912 H       
  46 H46            0.0920     8.2350     3.2761 H       
  47 H47            0.6376    10.2285     4.2865 H       
  48 H48            0.6552    11.7611     3.3815 H       
  49 H49           -3.7190    13.4088     3.6428 H       
  50 H50           -4.8938    11.8011     5.0914 H       
  51 H51           -3.7596     9.7390     5.8155 H       
  52 H52           -0.7863    10.2940    -0.7633 H       
  53 H53            0.9749    10.2679    -0.7737 H       
  54 H54            2.8342     4.4825    -1.0250 H       
  55 H55            2.4186     5.2477     0.5275 H       
  56 H56            3.2839     3.6924     0.5053 H       
  57 H57            2.1163     1.6333    -0.0119 H       
  58 H58           -1.4067    12.9588     2.9259 H       
  59 H59           -1.4492     9.2863     5.0939 H       
  60 H60           -6.0033    -0.3143    -2.3556 H       
  61 H61           -7.2164    -1.7972    -0.8090 H       
  62 H62           -6.1843    -2.3822     1.3751 H       
@<TRIPOS>BOND
   1    1    2 1
   2    1   17 ar
   3    1   19 ar
   4    2    3 1
   5    2   38 1
   6    2   39 1
   7    3    4 1
   8    3   40 1
   9    3   41 1
  10    4   31 1
  11    4   18 1
  12    4   42 1
  13    5   19 ar
  14    5   20 ar
  15    5   43 1
  16    6    7 1
  17    6   20 1
  18    6   29 am
  19    7   21 1
  20    7   44 1
  21    7   45 1
  22    8   21 2
  23    8   22 1
  24    8   46 1
  25    9   22 1
  26    9   23 1
  27    9   47 1
  28    9   48 1
  29   10   11 ar
  30   10   24 ar
  31   10   49 1
  32   11   12 ar
  33   11   50 1
  34   12   25 ar
  35   12   51 1
  36   13   22 am
  37   13   14 1
  38   13   26 2
  39   14   27 1
  40   14   52 1
  41   14   53 1
  42   15   16 1
  43   15   54 1
  44   15   55 1
  45   15   56 1
  46   16   17 ar
  47   16   20 ar
  48   17   57 1
  49   18   19 1
  50   21   27 1
  51   23   25 ar
  52   23   24 ar
  53   24   58 1
  54   25   59 1
  55   27   28 2
  56   28   29 1
  57   29   30 2
  58   31   36 ar
  59   31   32 ar
  60   32   33 ar
  61   33   34 ar
  62   33   60 1
  63   34   35 ar
  64   34   61 1
  65   35   36 ar
  66   35   62 1
  67   36   37 1

#	End of record

