#	Name: ASD16340002
#	Creating user name:	WinNT
#	Creation time:	15. 06. 2019 21:31

#	Modifying user name:	WinNT
#	Modification time:	15. 06. 2019 21:31

#	Program:	/corina/corina34_cracker 3.40 0067  02.08.2006

@<TRIPOS>MOLECULE
ASD16340002
  12   11    0    0    0
SMALL
NO_CHARGES


@<TRIPOS>ATOM
   1 O1            -3.6093    -2.0157     0.0257 O.co2   
   2 O2            -2.8784    -3.9969     0.0081 O.co2   
   3 O3             1.0604    -0.5961    -0.0113 O.2     
   4 O4            -0.0162     1.3417     0.0094 O.3     
   5 O5            -2.3326    -0.1773     0.0234 O.2     
   6 C6            -2.6719    -2.7953     0.0126 C.2     
   7 C7            -1.2581    -2.2737     0.0019 C.3     
   8 C8            -1.2786    -0.7669     0.0101 C.2     
   9 C9             0.0021    -0.0041     0.0020 C.2     
  10 H10            0.8394     1.7924     0.0037 H       
  11 H11           -0.7309    -2.6348     0.8849 H       
  12 H12           -0.7479    -2.6252    -0.8949 H       
@<TRIPOS>BOND
   1    1    6 ar
   2    2    6 ar
   3    3    9 2
   4    4    9 1
   5    4   10 1
   6    5    8 2
   7    6    7 1
   8    7    8 1
   9    7   11 1
  10    7   12 1
  11    8    9 1

#	End of record

