#	Name: ASD11000229
#	Creating user name:	WinNT
#	Creation time:	15. 06. 2019 21:29

#	Modifying user name:	WinNT
#	Modification time:	15. 06. 2019 21:29

#	Program:	/corina/corina34_cracker 3.40 0067  02.08.2006

@<TRIPOS>MOLECULE
ASD11000229
  50   53    0    0    0
SMALL
NO_CHARGES


@<TRIPOS>ATOM
   1 N1            -0.0172     1.3214    -0.0112 N.ar    
   2 C2             0.0016    -0.0034    -0.0060 C.ar    
   3 N3             1.1402    -0.6810    -0.0155 N.ar    
   4 C4             2.3025    -0.0498    -0.0306 C.ar    
   5 C5             2.3192     1.3362    -0.0364 C.ar    
   6 C6             1.1098     2.0135    -0.0262 C.ar    
   7 N7            -1.1976    -0.6966     0.0102 N.pl3   
   8 C8            -1.2012    -2.0902    -0.1028 C.ar    
   9 C9            -2.1493    -2.8414     0.5799 C.ar    
  10 C10           -0.2601    -2.7260    -0.9024 C.ar    
  11 C11           -0.2667    -4.1027    -1.0122 C.ar    
  12 C12           -1.2087    -4.8480    -0.3271 C.ar    
  13 C13           -2.1502    -4.2178     0.4657 C.ar    
  14 C14            3.6238     2.0903    -0.0531 C.3     
  15 C15            4.0504     2.3396    -1.5011 C.3     
  16 C16            5.3550     3.0938    -1.5178 C.ar    
  17 C17            6.5445     2.3981    -1.5273 C.ar    
  18 C18            7.7500     3.0923    -1.5431 C.ar    
  19 C19            7.7367     4.4998    -1.5492 C.ar    
  20 C20            6.5171     5.1848    -1.5398 C.ar    
  21 C21            5.3458     4.4821    -1.5292 C.ar    
  22 C22           -1.2131    -6.3500    -0.4497 C.3     
  23 C23           -0.3198    -6.9530     0.6363 C.3     
  24 N24            8.9547     2.4221    -1.5524 N.am    
  25 C25           10.1195     3.0936    -1.5669 C.2     
  26 C26           10.1612     4.5043    -1.5736 C.2     
  27 C27            9.0105     5.2215    -1.5660 C.2     
  28 O28           11.1657     2.4682    -1.5740 O.2     
  29 H29            3.2273    -0.6076    -0.0379 H       
  30 H30            1.0881     3.0933    -0.0307 H       
  31 H31           -2.0349    -0.2152     0.1000 H       
  32 H32           -2.8847    -2.3499     1.1995 H       
  33 H33            0.4756    -2.1445    -1.4380 H       
  34 H34            0.4645    -4.5977    -1.6341 H       
  35 H35           -2.8846    -4.8028     0.9995 H       
  36 H36            3.4983     3.0448     0.4582 H       
  37 H37            4.3891     1.5037     0.4552 H       
  38 H38            4.1758     1.3852    -2.0124 H       
  39 H39            3.2851     2.9262    -2.0094 H       
  40 H40            6.5410     1.3181    -1.5221 H       
  41 H41            6.5016     6.2647    -1.5444 H       
  42 H42            4.4043     5.0111    -1.5222 H       
  43 H43           -2.2310    -6.7213    -0.3304 H       
  44 H44           -0.8349    -6.6356    -1.4313 H       
  45 H45           -0.6980    -6.6674     1.6178 H       
  46 H46           -0.3230    -8.0394     0.5476 H       
  47 H47            0.6981    -6.5817     0.5170 H       
  48 H48            8.9622     1.4521    -1.5482 H       
  49 H49           11.1131     5.0144    -1.5852 H       
  50 H50            9.0330     6.3012    -1.5713 H       
@<TRIPOS>BOND
   1    1    2 ar
   2    1    6 ar
   3    2    3 ar
   4    2    7 1
   5    3    4 ar
   6    4    5 ar
   7    4   29 1
   8    5    6 ar
   9    5   14 1
  10    6   30 1
  11    7    8 1
  12    7   31 1
  13    8    9 ar
  14    8   10 ar
  15    9   13 ar
  16    9   32 1
  17   10   11 ar
  18   10   33 1
  19   11   12 ar
  20   11   34 1
  21   12   13 ar
  22   12   22 1
  23   13   35 1
  24   14   15 1
  25   14   36 1
  26   14   37 1
  27   15   16 1
  28   15   38 1
  29   15   39 1
  30   16   17 ar
  31   16   21 ar
  32   17   18 ar
  33   17   40 1
  34   18   19 ar
  35   18   24 1
  36   19   20 ar
  37   19   27 1
  38   20   21 ar
  39   20   41 1
  40   21   42 1
  41   22   23 1
  42   22   43 1
  43   22   44 1
  44   23   45 1
  45   23   46 1
  46   23   47 1
  47   24   25 am
  48   24   48 1
  49   25   26 1
  50   25   28 2
  51   26   27 2
  52   26   49 1
  53   27   50 1

#	End of record

