#	Name: ASD10220167
#	Creating user name:	WinNT
#	Creation time:	15. 06. 2019 21:26

#	Modifying user name:	WinNT
#	Modification time:	15. 06. 2019 21:26

#	Program:	/corina/corina34_cracker 3.40 0067  02.08.2006

@<TRIPOS>MOLECULE
ASD10220167
  28   30    0    0    0
SMALL
NO_CHARGES


@<TRIPOS>ATOM
   1 C1            -0.0045     1.4332    -0.1577 C.ar    
   2 C2             0.0247     0.0487    -0.2945 C.ar    
   3 C3            -1.1488    -0.6758    -0.3510 C.ar    
   4 C4            -2.3738    -0.0231    -0.2711 C.ar    
   5 C5            -2.4015     1.3718    -0.1328 C.ar    
   6 C6            -1.2155     2.0959    -0.0712 C.ar    
   7 O7            -3.6520    -0.4575    -0.2981 O.3     
   8 C8            -4.5145     0.5586    -0.1868 C.2     
   9 C9            -3.8325     1.7339    -0.0790 C.2     
  10 C10           -4.4022     3.0807     0.0613 C.2     
  11 O11           -3.6711     4.0332     0.2577 O.2     
  12 C12           -5.8643     3.2788    -0.0360 C.ar    
  13 O13            1.1590     2.1348    -0.1033 O.3     
  14 C14           -6.4777     4.3250     0.6557 C.ar    
  15 C15           -7.8422     4.5041     0.5605 C.ar    
  16 C16           -8.6027     3.6494    -0.2179 C.ar    
  17 C17           -8.0011     2.6103    -0.9057 C.ar    
  18 C18           -6.6367     2.4239    -0.8246 C.ar    
  19 Cl19           1.5499    -0.7742    -0.3956 Cl      
  20 Cl20          -1.0951    -2.4025    -0.5225 Cl      
  21 H21           -1.2402     3.1703     0.0358 H       
  22 H22           -5.5902     0.4623    -0.1834 H       
  23 H23            1.4844     2.4245    -0.9667 H       
  24 H24           -5.8854     4.9923     1.2642 H       
  25 H25           -8.3180     5.3129     1.0951 H       
  26 H26           -9.6706     3.7938    -0.2887 H       
  27 H27           -8.6005     1.9466    -1.5112 H       
  28 H28           -6.1684     1.6125    -1.3619 H       
@<TRIPOS>BOND
   1    1    2 ar
   2    1   13 1
   3    1    6 ar
   4    2    3 ar
   5    2   19 1
   6    3    4 ar
   7    3   20 1
   8    4    5 ar
   9    4    7 1
  10    5    6 ar
  11    5    9 1
  12    6   21 1
  13    7    8 1
  14    8    9 2
  15    8   22 1
  16    9   10 1
  17   10   11 2
  18   10   12 1
  19   12   14 ar
  20   12   18 ar
  21   13   23 1
  22   14   15 ar
  23   14   24 1
  24   15   16 ar
  25   15   25 1
  26   16   17 ar
  27   16   26 1
  28   17   18 ar
  29   17   27 1
  30   18   28 1

#	End of record

