#	Name: ASD10410169
#	Creating user name:	WinNT
#	Creation time:	15. 06. 2019 21:27

#	Modifying user name:	WinNT
#	Modification time:	15. 06. 2019 21:27

#	Program:	/corina/corina34_cracker 3.40 0067  02.08.2006

@<TRIPOS>MOLECULE
ASD10410169
  78   85    0    0    0
SMALL
NO_CHARGES


@<TRIPOS>ATOM
   1 C1            -0.0184     1.3941    -0.0796 C.ar    
   2 C2            -0.0057     0.0094     0.0248 C.ar    
   3 C3             1.2026    -0.6692     0.1140 C.ar    
   4 C4             2.3915     0.0329     0.0989 C.ar    
   5 C5             2.3788     1.4177    -0.0055 C.ar    
   6 C6             1.1704     2.0963    -0.0947 C.ar    
   7 N7             3.5845     2.1298    -0.0209 N.pl3   
   8 C8             3.6708     3.3402    -0.7079 C.2     
   9 N9             4.7092     4.1410    -0.7096 N.2     
  10 N10            2.7091     3.8668    -1.4752 N.2     
  11 C11            3.1172     5.0141    -1.9734 C.2     
  12 N12            4.3797     5.2389    -1.5209 N.pl3   
  13 C13            5.1858     6.3388    -1.8057 C.ar    
  14 N14            2.3936     5.8412    -2.8106 N.pl3   
  15 N15           -1.2109    -0.7023     0.0406 N.3     
  16 C16           -0.9678    -2.1470     0.1567 C.3     
  17 C17           -2.3076    -2.8810     0.2505 C.3     
  18 N18           -3.1129    -2.5794    -0.9411 N.3     
  19 C19           -3.3559    -1.1348    -1.0572 C.3     
  20 C20           -2.0162    -0.4007    -1.1511 C.3     
  21 N21            4.7451     7.3091    -2.5928 N.ar    
  22 C22            5.5083     8.3612    -2.8683 C.ar    
  23 N23            6.7255     8.4944    -2.3813 N.ar    
  24 C24            7.2564     7.5553    -1.5708 C.ar    
  25 C25            6.4755     6.4380    -1.2577 C.ar    
  26 C26           -4.3777    -3.3264    -0.9246 C.3     
  27 C27           -5.2751    -2.9025    -2.1272 C.3     
  28 C28           -4.1162    -4.8340    -1.1444 C.3     
  29 C29           -4.8802    -5.1790    -2.4592 C.3     
  30 C30           -6.6489    -3.5856    -1.8489 C.3     
  31 C31           -6.3874    -5.0932    -2.0688 C.3     
  32 C32           -4.7097    -3.8367    -3.2545 C.3     
  33 C33            8.5557     7.5017    -0.9341 C.2     
  34 C34            8.7676     6.4276    -0.1917 C.2     
  35 S35            7.3736     5.3635    -0.1972 S.3     
  36 C36            9.5879     8.5864    -1.1045 C.3     
  37 C37            4.9718     9.4224    -3.7552 C.ar    
  38 C38            3.6899     9.3067    -4.2834 C.ar    
  39 C39            5.7494    10.5402    -4.0562 C.ar    
  40 C40            5.2522    11.5303    -4.8815 C.ar    
  41 C41            3.9838    11.4205    -5.4142 C.ar    
  42 C42            3.1926    10.3081    -5.1162 C.ar    
  43 C43            1.8765    10.1942    -5.6690 C.1     
  44 N44            0.8325    10.1039    -6.1075 N.1     
  45 H45           -0.9580     1.9215    -0.1535 H       
  46 H46            1.2125    -1.7460     0.1955 H       
  47 H47            3.3312    -0.4948     0.1686 H       
  48 H48            1.1606     3.1732    -0.1762 H       
  49 H49            4.3597     1.7810     0.4464 H       
  50 H50            1.4963     5.5919    -3.0816 H       
  51 H51            2.7829     6.6713    -3.1274 H       
  52 H52           -0.4228    -2.4957    -0.7205 H       
  53 H53           -0.3805    -2.3460     1.0531 H       
  54 H54           -2.1305    -3.9550     0.3076 H       
  55 H55           -2.8407    -2.5521     1.1425 H       
  56 H56           -3.9432    -0.9357    -1.9536 H       
  57 H57           -3.9010    -0.7860    -0.1801 H       
  58 H58           -2.1932     0.6733    -1.2081 H       
  59 H59           -1.4831    -0.7296    -2.0431 H       
  60 H60           -4.9022    -3.1632     0.0169 H       
  61 H61           -5.3091    -1.8347    -2.3433 H       
  62 H62           -3.0491    -5.0209    -1.2648 H       
  63 H63           -4.5128    -5.4139    -0.3111 H       
  64 H64           -4.5702    -6.0937    -2.9644 H       
  65 H65           -6.9643    -3.4004    -0.8221 H       
  66 H66           -7.4017    -3.2244    -2.5496 H       
  67 H67           -7.0116    -5.4731    -2.8775 H       
  68 H68           -6.5742    -5.6492    -1.1501 H       
  69 H69           -5.3265    -3.8127    -4.1529 H       
  70 H70           -3.6641    -3.6230    -3.4763 H       
  71 H71            9.6812     6.2320     0.3500 H       
  72 H72            9.4559     9.3390    -0.3271 H       
  73 H73           10.5855     8.1542    -1.0261 H       
  74 H74            9.4689     9.0506    -2.0835 H       
  75 H75            3.0828     8.4447    -4.0496 H       
  76 H76            6.7428    10.6323    -3.6426 H       
  77 H77            5.8586    12.3941    -5.1106 H       
  78 H78            3.6005    12.1976    -6.0588 H       
@<TRIPOS>BOND
   1    1    2 ar
   2    1    6 ar
   3    1   45 1
   4    2    3 ar
   5    2   15 1
   6    3    4 ar
   7    3   46 1
   8    4    5 ar
   9    4   47 1
  10    5    6 ar
  11    5    7 1
  12    6   48 1
  13    7    8 1
  14    7   49 1
  15    8    9 2
  16    8   10 1
  17    9   12 1
  18   10   11 2
  19   11   12 1
  20   11   14 1
  21   12   13 1
  22   13   21 ar
  23   13   25 ar
  24   14   50 1
  25   14   51 1
  26   15   16 1
  27   15   20 1
  28   16   17 1
  29   16   52 1
  30   16   53 1
  31   17   18 1
  32   17   54 1
  33   17   55 1
  34   18   19 1
  35   18   26 1
  36   19   20 1
  37   19   56 1
  38   19   57 1
  39   20   58 1
  40   20   59 1
  41   21   22 ar
  42   22   23 ar
  43   22   37 1
  44   23   24 ar
  45   24   25 ar
  46   24   33 1
  47   25   35 1
  48   26   27 1
  49   26   28 1
  50   26   60 1
  51   27   30 1
  52   27   32 1
  53   27   61 1
  54   28   29 1
  55   28   62 1
  56   28   63 1
  57   29   31 1
  58   29   32 1
  59   29   64 1
  60   30   31 1
  61   30   65 1
  62   30   66 1
  63   31   67 1
  64   31   68 1
  65   32   69 1
  66   32   70 1
  67   33   34 2
  68   33   36 1
  69   34   35 1
  70   34   71 1
  71   36   72 1
  72   36   73 1
  73   36   74 1
  74   37   38 ar
  75   37   39 ar
  76   38   42 ar
  77   38   75 1
  78   39   40 ar
  79   39   76 1
  80   40   41 ar
  81   40   77 1
  82   41   42 ar
  83   41   78 1
  84   42   43 1
  85   43   44 3

#	End of record

