#	Name: ASD10160550
#	Creating user name:	WinNT
#	Creation time:	15. 06. 2019 21:26

#	Modifying user name:	WinNT
#	Modification time:	15. 06. 2019 21:26

#	Program:	/corina/corina34_cracker 3.40 0067  02.08.2006

@<TRIPOS>MOLECULE
ASD10160550
  41   43    0    0    0
SMALL
NO_CHARGES


@<TRIPOS>ATOM
   1 C1            -0.0167     1.3794     0.0096 C.ar    
   2 C2             0.0021    -0.0041     0.0020 C.ar    
   3 C3             1.2180    -0.6643    -0.0132 C.ar    
   4 C4             2.3883     0.1011    -0.0203 C.ar    
   5 C5             2.2848     1.4906    -0.0118 C.ar    
   6 N6             1.1045     2.0748     0.0027 N.ar    
   7 C7            -1.2878    -0.7834     0.0107 C.3     
   8 F8            -1.0049    -2.1534     0.0005 F       
   9 F9            -2.0165    -0.4662     1.1620 F       
  10 F10           -2.0393    -0.4539    -1.1224 F       
  11 O11            5.0836     0.0389    -0.0459 O.3     
  12 B12            3.7960    -0.5938    -0.0370 Du      
  13 O13            4.0766    -2.0008    -0.0462 O.3     
  14 C14            5.2113    -2.1527     0.8324 C.3     
  15 C15            5.8941    -0.7698     0.8326 C.3     
  16 C16            7.3208    -0.8795     0.2910 C.3     
  17 C17            5.9023    -0.1796     2.2441 C.3     
  18 C18            4.7476    -2.5186     2.2437 C.3     
  19 C19            6.1661    -3.2185     0.2906 C.3     
  20 C20           -1.3384     2.1033     0.0198 C.3     
  21 C21           -1.6265     3.0313     1.2015 C.3     
  22 C22           -1.3145     3.6205    -0.1755 C.3     
  23 H23            1.2621    -1.7434    -0.0191 H       
  24 H24            3.1805     2.0939    -0.0168 H       
  25 H25            7.7687     0.1131     0.2433 H       
  26 H26            7.9123    -1.5137     0.9513 H       
  27 H27            7.2979    -1.3161    -0.7075 H       
  28 H28            4.8809    -0.1235     2.6205 H       
  29 H29            6.4969    -0.8152     2.9003 H       
  30 H30            6.3351     0.8205     2.2173 H       
  31 H31            4.2168    -3.4702     2.2165 H       
  32 H32            5.6137    -2.6042     2.9000 H       
  33 H33            4.0819    -1.7419     2.6202 H       
  34 H34            6.4989    -2.9345    -0.7078 H       
  35 H35            7.0291    -3.3027     0.9510 H       
  36 H36            5.6504    -4.1776     0.2426 H       
  37 H37           -2.1785     1.5540    -0.4052 H       
  38 H38           -2.6562     3.0929     1.5537 H       
  39 H39           -0.8601     3.1184     1.9717 H       
  40 H40           -0.3427     4.0952    -0.3114 H       
  41 H41           -2.1389     4.0698    -0.7293 H       
@<TRIPOS>BOND
   1    1    2 ar
   2    1    6 ar
   3    1   20 1
   4    2    3 ar
   5    2    7 1
   6    3    4 ar
   7    3   23 1
   8    4    5 ar
   9    4   12 1
  10    5    6 ar
  11    5   24 1
  12    7    8 1
  13    7    9 1
  14    7   10 1
  15   11   12 1
  16   11   15 1
  17   12   13 1
  18   13   14 1
  19   14   15 1
  20   14   18 1
  21   14   19 1
  22   15   16 1
  23   15   17 1
  24   16   25 1
  25   16   26 1
  26   16   27 1
  27   17   28 1
  28   17   29 1
  29   17   30 1
  30   18   31 1
  31   18   32 1
  32   18   33 1
  33   19   34 1
  34   19   35 1
  35   19   36 1
  36   20   21 1
  37   20   22 1
  38   20   37 1
  39   21   22 1
  40   21   38 1
  41   21   39 1
  42   22   40 1
  43   22   41 1

#	End of record

