#	Name: ASD10210002
#	Creating user name:	WinNT
#	Creation time:	15. 06. 2019 21:26

#	Modifying user name:	WinNT
#	Modification time:	15. 06. 2019 21:26

#	Program:	/corina/corina34_cracker 3.40 0067  02.08.2006

@<TRIPOS>MOLECULE
ASD10210002
  47   50    0    0    0
SMALL
NO_CHARGES


@<TRIPOS>ATOM
   1 C1             0.0031     2.6226     0.9988 C.3     
   2 C2            -0.2223     1.1312     1.0981 C.2     
   3 C3             0.4354     0.3000     0.0677 C.2     
   4 C4             1.7444     0.6024    -0.1485 C.2     
   5 C5             2.3390     1.6942     0.6677 C.3     
   6 C6             1.4769     2.9330     0.7438 C.3     
   7 C7             2.4355    -0.1789    -1.2306 C.3     
   8 C8             3.9508     0.0498    -1.1791 C.3     
   9 C9             4.1723     1.5651    -1.0443 C.3     
  10 C10            3.7950     1.9995     0.3625 C.3     
  11 C11            2.4186     1.1505     2.0984 C.3     
  12 O12           -0.9100     0.6453     1.9705 O.2     
  13 C13            5.5555     1.9998    -1.4335 C.3     
  14 C14            6.3260     2.6468    -0.2901 C.3     
  15 C15            5.5651     3.8256     0.2754 C.3     
  16 C16            4.1216     3.4641     0.6013 C.3     
  17 C17            6.5653     0.9500    -1.9035 C.3     
  18 C18            7.8797     1.7515    -1.8916 C.3     
  19 C19            7.6093     2.9829    -1.0512 C.2     
  20 C20            6.7270     1.6647     0.8093 C.3     
  21 O21            8.2415     3.9985    -0.9849 O.2     
  22 H22           -0.5984     3.0242     0.1807 H       
  23 H23           -0.3105     3.0962     1.9319 H       
  24 H24           -0.0792    -0.4851    -0.4739 H       
  25 H25            1.5617     3.4885    -0.1951 H       
  26 H26            1.8426     3.5754     1.5517 H       
  27 H27            2.2261    -1.2379    -1.0919 H       
  28 H28            2.0564     0.1464    -2.1980 H       
  29 H29            4.3715    -0.4628    -0.3189 H       
  30 H30            4.4063    -0.3089    -2.0981 H       
  31 H31            3.4553     2.0487    -1.7370 H       
  32 H32            4.3390     1.3887     1.0817 H       
  33 H33            3.0456     0.2590     2.1140 H       
  34 H34            2.8495     1.9091     2.7519 H       
  35 H35            1.4175     0.8968     2.4469 H       
  36 H36            5.4611     2.7533    -2.2561 H       
  37 H37            6.0667     4.1848     1.1858 H       
  38 H38            5.5786     4.6528    -0.4500 H       
  39 H39            3.4570     4.0864    -0.0154 H       
  40 H40            3.9191     3.7172     1.6502 H       
  41 H41            6.6097     0.0872    -1.2483 H       
  42 H42            6.3320     0.6276    -2.9254 H       
  43 H43            8.6781     1.1581    -1.4470 H       
  44 H44            8.1503     2.0412    -2.9072 H       
  45 H45            7.4780     0.9749     0.4242 H       
  46 H46            7.1388     2.2148     1.6554 H       
  47 H47            5.8503     1.1035     1.1328 H       
@<TRIPOS>BOND
   1    1    2 1
   2    1    6 1
   3    1   22 1
   4    1   23 1
   5    2    3 1
   6    2   12 2
   7    3    4 2
   8    3   24 1
   9    4    5 1
  10    4    7 1
  11    5    6 1
  12    5   11 1
  13    5   10 1
  14    6   25 1
  15    6   26 1
  16    7    8 1
  17    7   27 1
  18    7   28 1
  19    8    9 1
  20    8   29 1
  21    8   30 1
  22    9   10 1
  23    9   13 1
  24    9   31 1
  25   10   16 1
  26   10   32 1
  27   11   33 1
  28   11   34 1
  29   11   35 1
  30   13   14 1
  31   13   17 1
  32   13   36 1
  33   14   15 1
  34   14   20 1
  35   14   19 1
  36   15   16 1
  37   15   37 1
  38   15   38 1
  39   16   39 1
  40   16   40 1
  41   17   18 1
  42   17   41 1
  43   17   42 1
  44   18   19 1
  45   18   43 1
  46   18   44 1
  47   19   21 2
  48   20   45 1
  49   20   46 1
  50   20   47 1

#	End of record

