#	Name: ASD10160237
#	Creating user name:	WinNT
#	Creation time:	15. 06. 2019 21:25

#	Modifying user name:	WinNT
#	Modification time:	15. 06. 2019 21:25

#	Program:	/corina/corina34_cracker 3.40 0067  02.08.2006

@<TRIPOS>MOLECULE
ASD10160237
  38   40    0    0    0
SMALL
NO_CHARGES


@<TRIPOS>ATOM
   1 C1            -0.1277     1.4676     0.0316 C.2     
   2 C2            -0.0788    -0.0061     0.0179 C.ar    
   3 C3             1.1456    -0.6665    -0.1378 C.ar    
   4 C4             1.1862    -2.0463    -0.1500 C.ar    
   5 C5             0.0150    -2.7783    -0.0087 C.ar    
   6 C6            -1.2051    -2.1252     0.1458 C.ar    
   7 C7            -1.2545    -0.7481     0.1660 C.ar    
   8 O8             0.8966     2.1111    -0.0924 O.2     
   9 N9            -1.3084     2.1014     0.1759 N.am    
  10 O10            0.0593    -4.1350    -0.0218 O.3     
  11 N11           -0.5844    -6.0387    -3.6237 N.ar    
  12 C12           -0.6879    -4.7334    -3.5392 C.ar    
  13 C13           -0.4785    -4.0573    -2.3433 C.ar    
  14 C14           -0.1512    -4.7674    -1.2023 C.ar    
  15 C15           -0.0426    -6.1734    -1.3057 C.ar    
  16 C16            0.2849    -6.9634    -0.1949 C.ar    
  17 C17            0.3797    -8.3155    -0.3344 C.ar    
  18 C18            0.1557    -8.9230    -1.5672 C.ar    
  19 C19           -0.1636    -8.1851    -2.6659 C.ar    
  20 C20           -0.2713    -6.7878    -2.5605 C.ar    
  21 S21           -1.3633     3.7564     0.1914 S.o2    
  22 O22           -2.7383     4.0596     0.3831 O.2     
  23 O23           -0.3892     4.1304     1.1559 O.2     
  24 C24           -0.8304     4.2425    -1.4731 C.3     
  25 F25           -2.3416    -2.8428     0.2824 F       
  26 F26            2.2855     0.0453    -0.2762 F       
  27 H27            2.1302    -2.5570    -0.2700 H       
  28 H28           -2.2007    -0.2427     0.2911 H       
  29 H29           -2.1259     1.5881     0.2708 H       
  30 H30           -0.9429    -4.1687    -4.4238 H       
  31 H31           -0.5701    -2.9818    -2.3052 H       
  32 H32            0.4614    -6.5029     0.7659 H       
  33 H33            0.6320    -8.9236     0.5218 H       
  34 H34            0.2369    -9.9965    -1.6533 H       
  35 H35           -0.3335    -8.6717    -3.6150 H       
  36 H36           -1.5122     3.8196    -2.2109 H       
  37 H37           -0.8366     5.3295    -1.5536 H       
  38 H38            0.1779     3.8705    -1.6548 H       
@<TRIPOS>BOND
   1    1    2 1
   2    1    8 2
   3    1    9 am
   4    2    3 ar
   5    2    7 ar
   6    3    4 ar
   7    3   26 1
   8    4    5 ar
   9    4   27 1
  10    5    6 ar
  11    5   10 1
  12    6    7 ar
  13    6   25 1
  14    7   28 1
  15    9   21 am
  16    9   29 1
  17   10   14 1
  18   11   12 ar
  19   11   20 ar
  20   12   13 ar
  21   12   30 1
  22   13   14 ar
  23   13   31 1
  24   14   15 ar
  25   15   16 ar
  26   15   20 ar
  27   16   17 ar
  28   16   32 1
  29   17   18 ar
  30   17   33 1
  31   18   19 ar
  32   18   34 1
  33   19   20 ar
  34   19   35 1
  35   21   22 2
  36   21   23 2
  37   21   24 1
  38   24   36 1
  39   24   37 1
  40   24   38 1

#	End of record

