#	Name: ASD10410161
#	Creating user name:	WinNT
#	Creation time:	15. 06. 2019 21:27

#	Modifying user name:	WinNT
#	Modification time:	15. 06. 2019 21:27

#	Program:	/corina/corina34_cracker 3.40 0067  02.08.2006

@<TRIPOS>MOLECULE
ASD10410161
  71   77    0    0    0
SMALL
NO_CHARGES


@<TRIPOS>ATOM
   1 C1            -0.0143     1.2729    -0.0534 C.ar    
   2 C2             0.0357    -0.1088     0.0628 C.ar    
   3 C3             1.2646    -0.7578     0.1190 C.ar    
   4 C4             2.4352    -0.0256     0.0590 C.ar    
   5 C5             2.3835     1.3577    -0.0574 C.ar    
   6 C6             1.1563     2.0044    -0.1134 C.ar    
   7 F7             1.3139    -2.1031     0.2327 F       
   8 N8             3.5693     2.0999    -0.1178 N.pl3   
   9 C9             3.6082     3.2949    -0.8357 C.2     
  10 N10            4.6256     4.1210    -0.8822 N.2     
  11 N11            2.6154     3.7784    -1.5915 N.2     
  12 C12            2.9824     4.9225    -2.1276 C.2     
  13 N13            4.2492     5.1896    -1.7119 N.pl3   
  14 C14            5.0207     6.3023    -2.0437 C.ar    
  15 N15            2.2180     5.7106    -2.9663 N.pl3   
  16 N16           -1.1519    -0.8503     0.1241 N.3     
  17 C17           -1.9635    -0.4502     1.2821 C.3     
  18 C18           -3.2836    -1.2244     1.2684 C.3     
  19 N19           -3.0030    -2.6667     1.2988 N.3     
  20 C20           -2.1914    -3.0668     0.1408 C.3     
  21 C21           -0.8712    -2.2925     0.1545 C.3     
  22 N22            4.4954     7.5095    -1.9660 N.ar    
  23 C23            5.2374     8.5771    -2.2849 C.ar    
  24 C24            6.5803     8.3988    -2.7028 C.ar    
  25 N25            7.0941     7.1648    -2.7747 N.ar    
  26 C26            6.3541     6.1293    -2.4528 C.ar    
  27 C27           -4.2478    -3.4440     1.3630 C.3     
  28 C28           -5.0199    -3.1259     2.6798 C.3     
  29 C29           -3.9355    -4.9555     1.4484 C.3     
  30 C30           -4.5483    -5.4084     2.8088 C.3     
  31 C31           -6.4021    -3.8248     2.5004 C.3     
  32 C32           -6.0898    -5.3364     2.5858 C.3     
  33 C33           -4.3197    -4.1187     3.6736 C.3     
  34 Cl34           7.0243     4.5306    -2.5470 Cl      
  35 C35            4.7049     9.8742    -2.2123 C.ar    
  36 C36            5.4848    10.9456    -2.5440 C.ar    
  37 C37            6.8093    10.7674    -2.9564 C.ar    
  38 C38            7.3543     9.5239    -3.0366 C.ar    
  39 O39            4.9673    12.1997    -2.4729 O.3     
  40 C40            5.8315    13.2795    -2.8324 C.3     
  41 H41           -0.9685     1.7764    -0.1015 H       
  42 H42            3.3899    -0.5287     0.1029 H       
  43 H43            1.1167     3.0799    -0.2039 H       
  44 H44            4.3638     1.7829     0.3396 H       
  45 H45            1.3498     5.3993    -3.2664 H       
  46 H46            2.5496     6.5753    -3.2550 H       
  47 H47           -1.4208    -0.6727     2.2008 H       
  48 H48           -2.1685     0.6191     1.2304 H       
  49 H49           -3.8749    -0.9506     2.1422 H       
  50 H50           -3.8386    -0.9810     0.3625 H       
  51 H51           -1.9864    -4.1361     0.1925 H       
  52 H52           -2.7340    -2.8442    -0.7779 H       
  53 H53           -0.2800    -2.5664    -0.7193 H       
  54 H54           -0.3162    -2.5360     1.0604 H       
  55 H55           -4.8726    -3.2317     0.4955 H       
  56 H56           -5.0510    -2.0764     2.9723 H       
  57 H57           -4.4075    -5.4882     0.6229 H       
  58 H58           -2.8583    -5.1218     1.4427 H       
  59 H59           -4.1687    -6.3466     3.2136 H       
  60 H60           -7.0828    -3.5317     3.2997 H       
  61 H61           -6.8287    -3.5793     1.5278 H       
  62 H62           -6.3628    -5.8339     1.6552 H       
  63 H63           -6.6169    -5.7863     3.4271 H       
  64 H64           -3.2607    -3.8928     3.7987 H       
  65 H65           -4.8376    -4.1716     4.6313 H       
  66 H66            3.6832    10.0242    -1.8959 H       
  67 H67            7.4074    11.6288    -3.2145 H       
  68 H68            8.3785     9.4012    -3.3563 H       
  69 H69            6.7007    13.2836    -2.1747 H       
  70 H70            6.1578    13.1554    -3.8649 H       
  71 H71            5.2952    14.2231    -2.7317 H       
@<TRIPOS>BOND
   1    1    2 ar
   2    1    6 ar
   3    1   41 1
   4    2    3 ar
   5    2   16 1
   6    3    4 ar
   7    3    7 1
   8    4    5 ar
   9    4   42 1
  10    5    6 ar
  11    5    8 1
  12    6   43 1
  13    8    9 1
  14    8   44 1
  15    9   10 2
  16    9   11 1
  17   10   13 1
  18   11   12 2
  19   12   13 1
  20   12   15 1
  21   13   14 1
  22   14   22 ar
  23   14   26 ar
  24   15   45 1
  25   15   46 1
  26   16   17 1
  27   16   21 1
  28   17   18 1
  29   17   47 1
  30   17   48 1
  31   18   19 1
  32   18   49 1
  33   18   50 1
  34   19   20 1
  35   19   27 1
  36   20   21 1
  37   20   51 1
  38   20   52 1
  39   21   53 1
  40   21   54 1
  41   22   23 ar
  42   23   24 ar
  43   23   35 ar
  44   24   25 ar
  45   24   38 ar
  46   25   26 ar
  47   26   34 1
  48   27   28 1
  49   27   29 1
  50   27   55 1
  51   28   31 1
  52   28   33 1
  53   28   56 1
  54   29   30 1
  55   29   57 1
  56   29   58 1
  57   30   32 1
  58   30   33 1
  59   30   59 1
  60   31   32 1
  61   31   60 1
  62   31   61 1
  63   32   62 1
  64   32   63 1
  65   33   64 1
  66   33   65 1
  67   35   36 ar
  68   35   66 1
  69   36   37 ar
  70   36   39 1
  71   37   38 ar
  72   37   67 1
  73   38   68 1
  74   39   40 1
  75   40   69 1
  76   40   70 1
  77   40   71 1

#	End of record

