#	Name: ASD11030022
#	Creating user name:	WinNT
#	Creation time:	15. 06. 2019 21:29

#	Modifying user name:	WinNT
#	Modification time:	15. 06. 2019 21:29

#	Program:	/corina/corina34_cracker 3.40 0067  02.08.2006

@<TRIPOS>MOLECULE
ASD11030022
  37   40    0    0    0
SMALL
NO_CHARGES


@<TRIPOS>ATOM
   1 Cl1            0.1591     0.0304    -1.1766 Cl      
   2 C2             0.1167     1.7604    -1.0389 C.ar    
   3 C3             1.2987     2.4716    -0.9172 C.ar    
   4 C4             1.2716     3.8462    -0.8070 C.ar    
   5 C5             0.0491     4.5206    -0.8189 C.ar    
   6 C6            -1.1391     3.7979    -0.9424 C.ar    
   7 C7            -1.0986     2.4241    -1.0571 C.ar    
   8 C8             0.0130     5.9929    -0.7008 C.2     
   9 N9             1.0469     6.7781    -0.5806 N.2     
  10 N10            0.8354     8.0181    -0.4910 N.2     
  11 C11           -0.4105     8.4237    -0.5255 C.2     
  12 S12           -1.4364     6.9991    -0.7051 S.3     
  13 N13           -0.8354     9.7100    -0.4430 N.2     
  14 C14            0.0402    10.6860    -0.3156 C.2     
  15 N15            1.3990    10.5591    -0.2525 N.am    
  16 C16            2.1351    11.6503    -0.1240 C.2     
  17 O17            3.3499    11.6133    -0.0617 O.2     
  18 C18            1.3830    12.9089    -0.0621 C.2     
  19 C19            1.8766    14.1662     0.0662 C.2     
  20 C20            0.9751    15.3227    -0.0289 C.ar    
  21 C21           -0.1869    15.2471    -0.8047 C.ar    
  22 C22           -1.0275    16.3366    -0.8887 C.ar    
  23 C23           -0.7249    17.5039    -0.2089 C.ar    
  24 C24            0.4224    17.5885     0.5605 C.ar    
  25 C25            1.2713    16.5052     0.6611 C.ar    
  26 Cl26           2.7100    16.6130     1.6267 Cl      
  27 S27           -0.3163    12.4180    -0.2006 S.3     
  28 H28            2.2437     1.9488    -0.9081 H       
  29 H29            2.1941     4.3997    -0.7114 H       
  30 H30           -2.0878     4.3140    -0.9518 H       
  31 H31           -2.0171     1.8640    -1.1527 H       
  32 H32            1.8162     9.6847    -0.3008 H       
  33 H33            2.9321    14.3169     0.2382 H       
  34 H34           -0.4246    14.3376    -1.3365 H       
  35 H35           -1.9247    16.2794    -1.4871 H       
  36 H36           -1.3878    18.3536    -0.2796 H       
  37 H37            0.6513    18.5030     1.0875 H       
@<TRIPOS>BOND
   1    1    2 1
   2    2    3 ar
   3    2    7 ar
   4    3    4 ar
   5    3   28 1
   6    4    5 ar
   7    4   29 1
   8    5    6 ar
   9    5    8 1
  10    6    7 ar
  11    6   30 1
  12    7   31 1
  13    8    9 2
  14    8   12 1
  15    9   10 1
  16   10   11 2
  17   11   12 1
  18   11   13 1
  19   13   14 2
  20   14   15 1
  21   14   27 1
  22   15   16 am
  23   15   32 1
  24   16   17 2
  25   16   18 1
  26   18   19 2
  27   18   27 1
  28   19   20 1
  29   19   33 1
  30   20   21 ar
  31   20   25 ar
  32   21   22 ar
  33   21   34 1
  34   22   23 ar
  35   22   35 1
  36   23   24 ar
  37   23   36 1
  38   24   25 ar
  39   24   37 1
  40   25   26 1

#	End of record

