#	Name: ASD10420119
#	Creating user name:	WinNT
#	Creation time:	15. 06. 2019 21:27

#	Modifying user name:	WinNT
#	Modification time:	15. 06. 2019 21:27

#	Program:	/corina/corina34_cracker 3.40 0067  02.08.2006

@<TRIPOS>MOLECULE
ASD10420119
  30   31    0    0    0
SMALL
NO_CHARGES


@<TRIPOS>ATOM
   1 C1            -0.0184     1.5028     0.0103 C.2     
   2 C2             0.0021    -0.0041     0.0020 C.3     
   3 C3             1.4295    -0.4870    -0.0142 C.ar    
   4 C4             2.0945    -0.7146     1.1765 C.ar    
   5 C5             3.4034    -1.1579     1.1646 C.ar    
   6 C6             4.0504    -1.3747    -0.0440 C.ar    
   7 O7             5.3373    -1.8110    -0.0586 O.3     
   8 C8             5.5563    -3.1529    -0.0679 C.ar    
   9 C9             6.8536    -3.6438    -0.0830 C.ar    
  10 C10            7.0762    -5.0076    -0.0919 C.ar    
  11 C11            6.0022    -5.8858    -0.0859 C.ar    
  12 O12            6.2212    -7.2280    -0.0943 O.3     
  13 C13            4.7047    -5.3947    -0.0709 C.ar    
  14 C14            4.4824    -4.0309    -0.0566 C.ar    
  15 C15            3.3803    -1.1454    -1.2377 C.ar    
  16 C16            2.0698    -0.7072    -1.2197 C.ar    
  17 O17            1.0197     2.1211     0.0037 O.2     
  18 O18           -1.1898     2.1580     0.0194 O.3     
  19 I19            3.0828    -6.7207    -0.0618 I       
  20 I20            4.3524    -1.4704    -3.0648 I       
  21 I21            9.0355    -5.7490    -0.1153 I       
  22 I22            4.4104    -1.5017     2.9693 I       
  23 H23           -0.4983    -0.3791     0.8948 H       
  24 H24           -0.5153    -0.3696    -0.8850 H       
  25 H25            1.5907    -0.5454     2.1167 H       
  26 H26            7.6897    -2.9602    -0.0880 H       
  27 H27            6.2929    -7.6203     0.7866 H       
  28 H28            3.4724    -3.6486    -0.0407 H       
  29 H29            1.5465    -0.5329    -2.1483 H       
  30 H30           -1.1523     3.1243     0.0245 H       
@<TRIPOS>BOND
   1    1    2 1
   2    1   17 2
   3    1   18 1
   4    2    3 1
   5    2   23 1
   6    2   24 1
   7    3    4 ar
   8    3   16 ar
   9    4    5 ar
  10    4   25 1
  11    5    6 ar
  12    5   22 1
  13    6    7 1
  14    6   15 ar
  15    7    8 1
  16    8    9 ar
  17    8   14 ar
  18    9   10 ar
  19    9   26 1
  20   10   11 ar
  21   10   21 1
  22   11   12 1
  23   11   13 ar
  24   12   27 1
  25   13   14 ar
  26   13   19 1
  27   14   28 1
  28   15   16 ar
  29   15   20 1
  30   16   29 1
  31   18   30 1

#	End of record

