#	Name: ASD10610107
#	Creating user name:	WinNT
#	Creation time:	15. 06. 2019 21:28

#	Modifying user name:	WinNT
#	Modification time:	15. 06. 2019 21:28

#	Program:	/corina/corina34_cracker 3.40 0067  02.08.2006

@<TRIPOS>MOLECULE
ASD10610107
  49   53    0    0    0
SMALL
NO_CHARGES


@<TRIPOS>ATOM
   1 C1            -0.0168     1.3894     0.0097 C.ar    
   2 C2             0.0021    -0.0041     0.0020 C.ar    
   3 C3             1.2366    -0.6591    -0.0135 C.ar    
   4 C4             2.3903     0.1068    -0.0204 C.ar    
   5 C5             2.2915     1.4867    -0.0117 C.ar    
   6 N6             1.1059     2.0748     0.0026 N.ar    
   7 C7             3.8453    -0.3059    -0.0375 C.3     
   8 C8             4.6169     0.9565    -0.4774 C.3     
   9 C9             3.6796     2.0942    -0.0207 C.3     
  10 C10           -1.2631    -0.7768     0.0107 C.ar    
  11 C11           -1.4661    -1.7965    -0.9146 C.ar    
  12 C12           -2.6466    -2.5151    -0.9041 C.ar    
  13 C13           -3.6334    -2.2268     0.0236 C.ar    
  14 C14           -3.4478    -1.2165     0.9496 C.ar    
  15 C15           -2.2598    -0.4876     0.9557 C.ar    
  16 F16           -4.4149    -0.9404     1.8516 F       
  17 Cl17          -2.8939    -3.7857    -2.0608 Cl      
  18 C18           -2.0556     0.5967     1.9464 C.2     
  19 N19           -2.9051     0.9827     2.8783 N.2     
  20 N20           -2.3595     1.9493     3.5331 N.pl3   
  21 N21           -1.1920     2.1882     3.0463 N.2     
  22 N22           -0.9687     1.3720     2.0729 N.2     
  23 C23           -2.9722     2.6645     4.6553 C.3     
  24 N24            3.7389     3.2118    -0.9660 N.am    
  25 C25            3.4343     4.4588    -0.5552 C.2     
  26 O26            3.1110     4.6557     0.5970 O.2     
  27 C27            3.4953     5.6084    -1.5277 C.3     
  28 N28            3.6851     5.2374    -2.9363 N.3     
  29 C29            2.6263     6.8321    -1.2303 C.3     
  30 C30            4.1440     6.9076    -1.0458 C.3     
  31 H31           -0.9622     1.9116     0.0170 H       
  32 H32            1.2896    -1.7378    -0.0196 H       
  33 H33            4.1625    -0.6153     0.9584 H       
  34 H34            4.0012    -1.1132    -0.7530 H       
  35 H35            5.5789     1.0194     0.0311 H       
  36 H36            4.7477     0.9732    -1.5594 H       
  37 H37            3.9520     2.4296     0.9800 H       
  38 H38           -0.7009    -2.0260    -1.6414 H       
  39 H39           -4.5527    -2.7936     0.0238 H       
  40 H40           -2.7129     2.1657     5.5891 H       
  41 H41           -2.6041     3.6902     4.6768 H       
  42 H42           -4.0555     2.6697     4.5348 H       
  43 H43            3.9975     3.0544    -1.8876 H       
  44 H44            4.2728     4.4214    -3.0193 H       
  45 H45            2.7981     5.0922    -3.3947 H       
  46 H46            2.1958     7.3620    -2.0800 H       
  47 H47            2.0105     6.8056    -0.3314 H       
  48 H48            4.5264     6.9310    -0.0253 H       
  49 H49            4.7114     7.4873    -1.7739 H       
@<TRIPOS>BOND
   1    1    2 ar
   2    1    6 ar
   3    1   31 1
   4    2    3 ar
   5    2   10 1
   6    3    4 ar
   7    3   32 1
   8    4    5 ar
   9    4    7 1
  10    5    6 ar
  11    5    9 1
  12    7    8 1
  13    7   33 1
  14    7   34 1
  15    8    9 1
  16    8   35 1
  17    8   36 1
  18    9   24 1
  19    9   37 1
  20   10   11 ar
  21   10   15 ar
  22   11   12 ar
  23   11   38 1
  24   12   13 ar
  25   12   17 1
  26   13   14 ar
  27   13   39 1
  28   14   15 ar
  29   14   16 1
  30   15   18 1
  31   18   19 2
  32   18   22 1
  33   19   20 1
  34   20   21 1
  35   20   23 1
  36   21   22 2
  37   23   40 1
  38   23   41 1
  39   23   42 1
  40   24   25 am
  41   24   43 1
  42   25   26 2
  43   25   27 1
  44   27   28 1
  45   27   29 1
  46   27   30 1
  47   28   44 1
  48   28   45 1
  49   29   30 1
  50   29   46 1
  51   29   47 1
  52   30   48 1
  53   30   49 1

#	End of record

