#	Name: ASD10160367
#	Creating user name:	WinNT
#	Creation time:	15. 06. 2019 21:25

#	Modifying user name:	WinNT
#	Modification time:	15. 06. 2019 21:25

#	Program:	/corina/corina34_cracker 3.40 0067  02.08.2006

@<TRIPOS>MOLECULE
ASD10160367
  22   22    0    0    0
SMALL
NO_CHARGES


@<TRIPOS>ATOM
   1 C1            -0.0167     1.3812     0.0096 C.ar    
   2 C2             0.0021    -0.0041     0.0020 C.ar    
   3 C3             1.2262    -0.6663    -0.0132 C.ar    
   4 C4             2.3855     0.0912    -0.0202 C.ar    
   5 C5             2.2884     1.4774    -0.0118 C.ar    
   6 N6             1.1077     2.0719     0.0026 N.ar    
   7 O7            -1.1613    -0.7082     0.0098 O.3     
   8 O8             3.4188     2.2296    -0.0181 O.3     
   9 C9             3.2535     3.6490    -0.0089 C.3     
  10 C10            4.4420     4.2962     0.7050 C.3     
  11 C11            3.1814     4.1634    -1.4481 C.3     
  12 F12            2.0311     3.6609    -2.0658 F       
  13 F13            4.4414     3.9148     2.0510 F       
  14 Cl14           3.9402    -0.6810    -0.0386 Cl      
  15 H15           -0.9628     1.9020     0.0169 H       
  16 H16            1.2709    -1.7453    -0.0191 H       
  17 H17           -1.5066    -0.9072    -0.8713 H       
  18 H18            2.3322     3.9042     0.5147 H       
  19 H19            5.3697     3.9697     0.2352 H       
  20 H20            4.3613     5.3809     0.6347 H       
  21 H21            3.1447     5.2528    -1.4432 H       
  22 H22            4.0628     3.8320    -1.9970 H       
@<TRIPOS>BOND
   1    1    2 ar
   2    1    6 ar
   3    1   15 1
   4    2    3 ar
   5    2    7 1
   6    3    4 ar
   7    3   16 1
   8    4    5 ar
   9    4   14 1
  10    5    6 ar
  11    5    8 1
  12    7   17 1
  13    8    9 1
  14    9   10 1
  15    9   11 1
  16    9   18 1
  17   10   13 1
  18   10   19 1
  19   10   20 1
  20   11   12 1
  21   11   21 1
  22   11   22 1

#	End of record

