#	Name: ASD10610005
#	Creating user name:	WinNT
#	Creation time:	15. 06. 2019 21:27

#	Modifying user name:	WinNT
#	Modification time:	15. 06. 2019 21:27

#	Program:	/corina/corina34_cracker 3.40 0067  02.08.2006

@<TRIPOS>MOLECULE
ASD10610005
  53   56    0    0    0
SMALL
NO_CHARGES


@<TRIPOS>ATOM
   1 C1            -0.2421     1.7537     0.0343 C.ar    
   2 C2            -0.3840     0.3677     0.0853 C.ar    
   3 C3             0.7505    -0.4405     0.1241 C.ar    
   4 C4             2.0093     0.1303     0.1125 C.ar    
   5 C5             2.1441     1.5067     0.0618 C.ar    
   6 C6             1.0179     2.3136     0.0226 C.ar    
   7 C7             3.6125     1.8761     0.0596 C.3     
   8 C8            -1.7341    -0.2427     0.0988 C.ar    
   9 C9            -2.0468    -1.2692    -0.7867 C.ar    
  10 C10           -3.3060    -1.8365    -0.7714 C.ar    
  11 C11           -4.2657    -1.3910     0.1210 C.ar    
  12 C12           -3.9760    -0.3726     1.0083 C.ar    
  13 C13           -2.7060     0.2086     1.0113 C.ar    
  14 C14           -2.3896     1.2957     1.9553 C.2     
  15 N15            4.0268     2.3206     1.3927 N.am    
  16 C16            3.8740     3.6110     1.7506 C.2     
  17 O17            3.4795     4.4224     0.9401 O.2     
  18 C18            4.1933     4.0455     3.1578 C.3     
  19 N19            5.3369     3.3756     3.7819 N.am    
  20 C20            6.5451     3.4089     3.1856 C.2     
  21 C21            7.6943     2.6267     3.7673 C.3     
  22 O22            6.7074     4.0684     2.1808 O.2     
  23 F23            8.8345     2.8176     2.9795 F       
  24 F24            7.9480     3.0697     5.0699 F       
  25 F25            7.3673     1.2667     3.7926 F       
  26 O26           -2.6027     2.5785     1.6016 O.3     
  27 C27            3.3776    -0.5165     0.1474 C.3     
  28 C28            4.3549     0.5796    -0.3272 C.3     
  29 C29            3.9532     5.5137     3.5154 C.3     
  30 C30            3.0202     4.4300     4.0617 C.3     
  31 Cl31          -5.1869     0.1792     2.1231 Cl      
  32 O32           -1.9366     1.0352     3.0523 O.2     
  33 C33           -2.2682     3.5967     2.5812 C.3     
  34 H34           -1.1164     2.3868    -0.0005 H       
  35 H35            0.6459    -1.5147     0.1636 H       
  36 H36            1.1279     3.3873    -0.0173 H       
  37 H37            3.8048     2.6575    -0.6756 H       
  38 H38           -1.3044    -1.6225    -1.4869 H       
  39 H39           -3.5437    -2.6331    -1.4609 H       
  40 H40           -5.2470    -1.8420     0.1234 H       
  41 H41            4.4111     1.6862     2.0178 H       
  42 H42            5.2245     2.9079     4.6243 H       
  43 H43            3.6229    -0.8280     1.1628 H       
  44 H44            3.4097    -1.3705    -0.5291 H       
  45 H45            4.5036     0.5255    -1.4057 H       
  46 H46            5.3059     0.5056     0.2003 H       
  47 H47            4.6460     5.9809     4.2153 H       
  48 H48            3.5644     6.1652     2.7328 H       
  49 H49            2.0176     4.3690     3.6385 H       
  50 H50            3.0995     4.1848     5.1208 H       
  51 H51           -2.8583     3.4399     3.4842 H       
  52 H52           -1.2076     3.5323     2.8245 H       
  53 H53           -2.4875     4.5822     2.1704 H       
@<TRIPOS>BOND
   1    1    2 ar
   2    1    6 ar
   3    1   34 1
   4    2    3 ar
   5    2    8 1
   6    3    4 ar
   7    3   35 1
   8    4    5 ar
   9    4   27 1
  10    5    6 ar
  11    5    7 1
  12    6   36 1
  13    7   15 1
  14    7   28 1
  15    7   37 1
  16    8    9 ar
  17    8   13 ar
  18    9   10 ar
  19    9   38 1
  20   10   11 ar
  21   10   39 1
  22   11   12 ar
  23   11   40 1
  24   12   13 ar
  25   12   31 1
  26   13   14 1
  27   14   32 2
  28   14   26 1
  29   15   16 am
  30   15   41 1
  31   16   17 2
  32   16   18 1
  33   18   19 1
  34   18   29 1
  35   18   30 1
  36   19   20 am
  37   19   42 1
  38   20   21 1
  39   20   22 2
  40   21   23 1
  41   21   24 1
  42   21   25 1
  43   26   33 1
  44   27   28 1
  45   27   43 1
  46   27   44 1
  47   28   45 1
  48   28   46 1
  49   29   30 1
  50   29   47 1
  51   29   48 1
  52   30   49 1
  53   30   50 1
  54   33   51 1
  55   33   52 1
  56   33   53 1

#	End of record

