#	Name: ASD13010039
#	Creating user name:	WinNT
#	Creation time:	15. 06. 2019 21:30

#	Modifying user name:	WinNT
#	Modification time:	15. 06. 2019 21:30

#	Program:	/corina/corina34_cracker 3.40 0067  02.08.2006

@<TRIPOS>MOLECULE
ASD13010039
  42   45    0    0    0
SMALL
NO_CHARGES


@<TRIPOS>ATOM
   1 C1            -0.0009     1.3758    -0.0926 C.ar    
   2 C2             0.0230    -0.0002    -0.1364 C.ar    
   3 C3             1.2300    -0.6875    -0.1393 C.ar    
   4 C4             2.4155    -0.0110    -0.0982 C.ar    
   5 C5             1.1952     2.0860    -0.0507 C.ar    
   6 N6             1.5053     3.4238    -0.0035 N.pl3   
   7 C7             2.4165     1.3855    -0.0533 C.ar    
   8 C8             3.4715     2.3995    -0.0040 C.2     
   9 N9             2.8959     3.5713     0.0229 N.2     
  10 C10            0.5813     4.4675     0.0151 C.ar    
  11 O11            4.8092     2.1636     0.0103 O.3     
  12 C12            5.6455     3.2341     0.0579 C.ar    
  13 C13            6.0884     3.8235    -1.1184 C.ar    
  14 C14            6.0539     3.7438     1.2829 C.ar    
  15 C15            6.9041     4.8330     1.3281 C.ar    
  16 C16            7.3477     5.4146     0.1548 C.ar    
  17 C17            6.9385     4.9125    -1.0668 C.ar    
  18 C18           -1.2556     6.5423     0.0520 C.ar    
  19 C19           -1.3855     5.5077    -0.8799 C.ar    
  20 C20           -0.4719     4.4788    -0.8951 C.ar    
  21 C21            0.7107     5.4927     0.9473 C.ar    
  22 C22           -0.1999     6.5248     0.9684 C.ar    
  23 C23           -2.2324     7.6467     0.0710 C.2     
  24 O24           -2.1181     8.5449     0.8813 O.2     
  25 O25           -3.2517     7.6599    -0.8102 O.3     
  26 Cl26           5.5756     3.1934    -2.6526 Cl      
  27 Cl27           5.4970     3.0145     2.7566 Cl      
  28 C28            1.8487     5.4727     1.9350 C.3     
  29 H29           -0.9440     1.9020    -0.0952 H       
  30 H30           -0.9057    -0.5504    -0.1686 H       
  31 H31            1.2309    -1.7670    -0.1740 H       
  32 H32            3.3492    -0.5537    -0.1001 H       
  33 H33            7.2219     5.2302     2.2808 H       
  34 H34            8.0119     6.2654     0.1926 H       
  35 H35            7.2837     5.3713    -1.9816 H       
  36 H36           -2.2001     5.5180    -1.5890 H       
  37 H37           -0.5719     3.6793    -1.6143 H       
  38 H38           -0.0964     7.3224     1.6892 H       
  39 H39           -3.8666     8.4045    -0.7592 H       
  40 H40            2.7351     5.9115     1.4769 H       
  41 H41            1.5732     6.0488     2.8183 H       
  42 H42            2.0608     4.4434     2.2241 H       
@<TRIPOS>BOND
   1    1    2 ar
   2    1    5 ar
   3    1   29 1
   4    2    3 ar
   5    2   30 1
   6    3    4 ar
   7    3   31 1
   8    4    7 ar
   9    4   32 1
  10    5    7 ar
  11    5    6 1
  12    6    9 1
  13    6   10 1
  14    7    8 1
  15    8    9 2
  16    8   11 1
  17   10   21 ar
  18   10   20 ar
  19   11   12 1
  20   12   14 ar
  21   12   13 ar
  22   13   17 ar
  23   13   26 1
  24   14   15 ar
  25   14   27 1
  26   15   16 ar
  27   15   33 1
  28   16   17 ar
  29   16   34 1
  30   17   35 1
  31   18   19 ar
  32   18   22 ar
  33   18   23 1
  34   19   20 ar
  35   19   36 1
  36   20   37 1
  37   21   22 ar
  38   21   28 1
  39   22   38 1
  40   23   24 2
  41   23   25 1
  42   25   39 1
  43   28   40 1
  44   28   41 1
  45   28   42 1

#	End of record

