#	Name: ASD11710009
#	Creating user name:	WinNT
#	Creation time:	15. 06. 2019 21:29

#	Modifying user name:	WinNT
#	Modification time:	15. 06. 2019 21:29

#	Program:	/corina/corina34_cracker 3.40 0067  02.08.2006

@<TRIPOS>MOLECULE
ASD11710009
  47   49    0    0    0
SMALL
NO_CHARGES


@<TRIPOS>ATOM
   1 C1             2.9655     5.4273     2.6488 C.ar    
   2 C2             2.0802     6.4881     2.6922 C.ar    
   3 C3             1.0293     6.5484     1.7963 C.ar    
   4 C4             0.8639     5.5481     0.8566 C.ar    
   5 C5             1.7497     4.4878     0.8125 C.ar    
   6 C6             2.7998     4.4268     1.7094 C.ar    
   7 C7             1.5691     3.3971    -0.2116 C.3     
   8 N8             2.3052     3.7443    -1.4298 N.am    
   9 C9             3.5882     3.3580    -1.5751 C.2     
  10 C10            4.2984     3.6158    -2.8459 C.ar    
  11 O11            4.1614     2.7976    -0.6613 O.2     
  12 C12            4.0325     4.7762    -3.5745 C.ar    
  13 C13            5.2420     2.7026    -3.3192 C.ar    
  14 C14            5.9015     2.9494    -4.5055 C.ar    
  15 C15            5.6297     4.0993    -5.2254 C.ar    
  16 C16            4.6991     5.0109    -4.7593 C.ar    
  17 S17            6.4775     4.4074    -6.7391 S.o2    
  18 N18            5.5077     3.8593    -7.9644 N.am    
  19 C19            5.1747     2.5049    -8.0388 C.ar    
  20 C20            3.8608     2.1236    -8.2783 C.ar    
  21 C21            6.1580     1.5369    -7.8791 C.ar    
  22 C22            5.8268     0.1979    -7.9535 C.ar    
  23 C23            4.5180    -0.1805    -8.1871 C.ar    
  24 C24            3.5349     0.7816    -8.3518 C.ar    
  25 O25            6.5442     5.8197    -6.8813 O.2     
  26 O26            7.6268     3.5718    -6.7326 O.2     
  27 F27            2.2566     0.4087    -8.5799 F       
  28 C28            1.6466     4.5115    -2.4900 C.3     
  29 H29            3.7892     5.3825     3.3459 H       
  30 H30            2.2094     7.2695     3.4264 H       
  31 H31            0.3372     7.3767     1.8307 H       
  32 H32            0.0424     5.5948     0.1570 H       
  33 H33            3.4921     3.5986     1.6747 H       
  34 H34            1.9501     2.4571     0.1876 H       
  35 H35            0.5099     3.2898    -0.4452 H       
  36 H36            3.3063     5.4885    -3.2118 H       
  37 H37            5.4555     1.8050    -2.7579 H       
  38 H38            6.6318     2.2437    -4.8729 H       
  39 H39            4.4915     5.9066    -5.3260 H       
  40 H40            5.1709     4.4789    -8.6305 H       
  41 H41            3.0948     2.8740    -8.4065 H       
  42 H42            7.1812     1.8310    -7.6973 H       
  43 H43            6.5916    -0.5545    -7.8294 H       
  44 H44            4.2620    -1.2282    -8.2452 H       
  45 H45            1.8199     5.5756    -2.3297 H       
  46 H46            2.0546     4.2186    -3.4574 H       
  47 H47            0.5754     4.3110    -2.4716 H       
@<TRIPOS>BOND
   1    1    2 ar
   2    1    6 ar
   3    1   29 1
   4    2    3 ar
   5    2   30 1
   6    3    4 ar
   7    3   31 1
   8    4    5 ar
   9    4   32 1
  10    5    6 ar
  11    5    7 1
  12    6   33 1
  13    7    8 1
  14    7   34 1
  15    7   35 1
  16    8    9 am
  17    8   28 1
  18    9   10 1
  19    9   11 2
  20   10   12 ar
  21   10   13 ar
  22   12   16 ar
  23   12   36 1
  24   13   14 ar
  25   13   37 1
  26   14   15 ar
  27   14   38 1
  28   15   16 ar
  29   15   17 1
  30   16   39 1
  31   17   18 am
  32   17   25 2
  33   17   26 2
  34   18   19 1
  35   18   40 1
  36   19   20 ar
  37   19   21 ar
  38   20   24 ar
  39   20   41 1
  40   21   22 ar
  41   21   42 1
  42   22   23 ar
  43   22   43 1
  44   23   24 ar
  45   23   44 1
  46   24   27 1
  47   28   45 1
  48   28   46 1
  49   28   47 1

#	End of record

