#	Name: ASD10160118
#	Creating user name:	WinNT
#	Creation time:	15. 06. 2019 21:25

#	Modifying user name:	WinNT
#	Modification time:	15. 06. 2019 21:25

#	Program:	/corina/corina34_cracker 3.40 0067  02.08.2006

@<TRIPOS>MOLECULE
ASD10160118
  42   44    0    0    0
SMALL
NO_CHARGES


@<TRIPOS>ATOM
   1 C1            -0.3989     1.1100    -1.9470 C.2     
   2 C2            -0.2786    -0.2695    -1.4403 C.ar    
   3 C3             0.9053    -0.9899    -1.6394 C.ar    
   4 C4             1.0125    -2.2809    -1.1630 C.ar    
   5 C5            -0.0518    -2.8644    -0.4882 C.ar    
   6 C6            -1.2302    -2.1512    -0.2890 C.ar    
   7 C7            -1.3442    -0.8601    -0.7548 C.ar    
   8 O8             0.5310     1.6237    -2.5387 O.2     
   9 N9            -1.5415     1.7997    -1.7591 N.am    
  10 S10           -1.6767     3.3490    -2.3281 S.o2    
  11 O11           -2.9792     3.7556    -1.9314 O.2     
  12 O12           -0.5201     4.0074    -1.8300 O.2     
  13 C13           -1.5848     3.1784    -4.1317 C.3     
  14 F14            1.9404    -0.4228    -2.2967 F       
  15 O15            0.0574    -4.1342    -0.0217 O.3     
  16 C16            1.5471    -5.5231    -1.2616 C.ar    
  17 C17            1.2596    -4.7565    -0.1411 C.ar    
  18 C18            2.2200    -4.6338     0.8580 C.ar    
  19 C19            3.4309    -5.2865     0.6911 C.ar    
  20 C20            3.6435    -6.0321    -0.4532 C.ar    
  21 N21            2.7119    -6.1281    -1.3817 N.ar    
  22 C22            4.5036    -5.1842     1.7446 C.3     
  23 F23            4.0499    -4.3798     2.7955 F       
  24 F24            4.8031    -6.4613     2.2307 F       
  25 F25            5.6535    -4.6164     1.1856 F       
  26 C26            4.9579    -6.7445    -0.6425 C.3     
  27 C27            4.9213    -8.2668    -0.7913 C.3     
  28 C28            5.2235    -7.3865    -2.0056 C.3     
  29 Cl29          -2.5565    -2.8880     0.5546 Cl      
  30 H30            1.9249    -2.8381    -1.3156 H       
  31 H31           -2.2577    -0.3064    -0.5951 H       
  32 H32           -2.2847     1.3885    -1.2906 H       
  33 H33           -2.4010     2.5448    -4.4788 H       
  34 H34           -1.6664     4.1620    -4.5943 H       
  35 H35           -0.6318     2.7259    -4.4058 H       
  36 H36            0.8071    -5.6288    -2.0411 H       
  37 H37            2.0266    -4.0440     1.7418 H       
  38 H38            5.8080    -6.3106    -0.1160 H       
  39 H39            5.7475    -8.8344    -0.3630 H       
  40 H40            3.9465    -8.7530    -0.7522 H       
  41 H41            4.4476    -7.2936    -2.7655 H       
  42 H42            6.2485    -7.3750    -2.3763 H       
@<TRIPOS>BOND
   1    1    2 1
   2    1    8 2
   3    1    9 am
   4    2    3 ar
   5    2    7 ar
   6    3    4 ar
   7    3   14 1
   8    4    5 ar
   9    4   30 1
  10    5    6 ar
  11    5   15 1
  12    6    7 ar
  13    6   29 1
  14    7   31 1
  15    9   10 am
  16    9   32 1
  17   10   11 2
  18   10   12 2
  19   10   13 1
  20   13   33 1
  21   13   34 1
  22   13   35 1
  23   15   17 1
  24   16   17 ar
  25   16   21 ar
  26   16   36 1
  27   17   18 ar
  28   18   19 ar
  29   18   37 1
  30   19   20 ar
  31   19   22 1
  32   20   21 ar
  33   20   26 1
  34   22   23 1
  35   22   24 1
  36   22   25 1
  37   26   27 1
  38   26   28 1
  39   26   38 1
  40   27   28 1
  41   27   39 1
  42   27   40 1
  43   28   41 1
  44   28   42 1

#	End of record

