#	Name: ASD10610019
#	Creating user name:	WinNT
#	Creation time:	15. 06. 2019 21:27

#	Modifying user name:	WinNT
#	Modification time:	15. 06. 2019 21:27

#	Program:	/corina/corina34_cracker 3.40 0067  02.08.2006

@<TRIPOS>MOLECULE
ASD10610019
  56   59    0    0    0
SMALL
NO_CHARGES


@<TRIPOS>ATOM
   1 C1            -0.2375     1.6105    -0.1750 C.ar    
   2 C2            -0.3275     0.2192    -0.1845 C.ar    
   3 C3             0.8349    -0.5431    -0.1157 C.ar    
   4 C4             2.0749     0.0721    -0.0375 C.ar    
   5 C5             2.1581     1.4481    -0.0346 C.ar    
   6 C6             0.9989     2.2124    -0.1009 C.ar    
   7 C7             3.4741     2.1791     0.0315 C.3     
   8 C8            -1.6506    -0.4428    -0.2666 C.ar    
   9 C9            -1.8749    -1.4443    -1.2058 C.ar    
  10 C10           -3.1094    -2.0595    -1.2799 C.ar    
  11 C11           -4.1313    -1.6877    -0.4236 C.ar    
  12 C12           -3.9296    -0.6956     0.5162 C.ar    
  13 C13           -2.6861    -0.0662     0.6091 C.ar    
  14 Cl14          -5.2182    -0.2359     1.5847 Cl      
  15 C15           -2.4633     0.9929     1.6099 C.2     
  16 O16           -2.7102     2.2798     1.2953 O.3     
  17 C17           -2.4683     3.2694     2.3300 C.3     
  18 O18           -2.0571     0.7056     2.7184 O.2     
  19 N19            3.3480     3.3194     0.9426 N.am    
  20 C20            2.8633     4.4929     0.4904 C.2     
  21 O21            2.6173     4.6333    -0.6889 O.2     
  22 C22            2.6271     5.6305     1.4500 C.3     
  23 N23            3.5877     5.7384     2.5509 N.am    
  24 C24            2.0594     6.9310     0.8780 C.3     
  25 C25            1.1764     6.0227     1.7374 C.3     
  26 C26            4.9047     5.8510     2.2875 C.2     
  27 C27            5.9017     5.8530     3.4175 C.3     
  28 O28            5.2874     5.9507     1.1409 O.2     
  29 F29            7.1946     5.9798     2.8985 F       
  30 F30            5.6350     6.9275     4.2728 F       
  31 F31            5.8010     4.6534     4.1304 F       
  32 C32            4.5786     1.2522     0.5348 C.3     
  33 C33            3.2903    -0.8136     0.0506 C.3     
  34 C34            4.5528    -0.0309    -0.3042 C.3     
  35 H35           -1.1322     2.2129    -0.2301 H       
  36 H36            0.7705    -1.6212    -0.1230 H       
  37 H37            1.0687     3.2901    -0.0942 H       
  38 H38            3.7346     2.5409    -0.9631 H       
  39 H39           -1.0832    -1.7407    -1.8779 H       
  40 H40           -3.2785    -2.8359    -2.0114 H       
  41 H41           -5.0923    -2.1759    -0.4909 H       
  42 H42           -3.0972     3.0532     3.1937 H       
  43 H43           -1.4200     3.2362     2.6265 H       
  44 H44           -2.7063     4.2616     1.9466 H       
  45 H45            3.6134     3.2298     1.8713 H       
  46 H46            3.2759     5.7287     3.4694 H       
  47 H47            2.4003     7.8668     1.3209 H       
  48 H48            1.8567     6.9637    -0.1925 H       
  49 H49            0.3928     5.4582     1.2321 H       
  50 H50            0.9367     6.3613     2.7454 H       
  51 H51            5.5464     1.7419     0.4268 H       
  52 H52            4.4045     1.0090     1.5829 H       
  53 H53            3.3806    -1.2000     1.0658 H       
  54 H54            3.1781    -1.6477    -0.6420 H       
  55 H55            4.5410     0.2237    -1.3640 H       
  56 H56            5.4332    -0.6334    -0.0807 H       
@<TRIPOS>BOND
   1    1    2 ar
   2    1    6 ar
   3    1   35 1
   4    2    3 ar
   5    2    8 1
   6    3    4 ar
   7    3   36 1
   8    4    5 ar
   9    4   33 1
  10    5    6 ar
  11    5    7 1
  12    6   37 1
  13    7   19 1
  14    7   32 1
  15    7   38 1
  16    8    9 ar
  17    8   13 ar
  18    9   10 ar
  19    9   39 1
  20   10   11 ar
  21   10   40 1
  22   11   12 ar
  23   11   41 1
  24   12   13 ar
  25   12   14 1
  26   13   15 1
  27   15   16 1
  28   15   18 2
  29   16   17 1
  30   17   42 1
  31   17   43 1
  32   17   44 1
  33   19   20 am
  34   19   45 1
  35   20   21 2
  36   20   22 1
  37   22   23 1
  38   22   24 1
  39   22   25 1
  40   23   26 am
  41   23   46 1
  42   24   25 1
  43   24   47 1
  44   24   48 1
  45   25   49 1
  46   25   50 1
  47   26   27 1
  48   26   28 2
  49   27   29 1
  50   27   30 1
  51   27   31 1
  52   32   34 1
  53   32   51 1
  54   32   52 1
  55   33   34 1
  56   33   53 1
  57   33   54 1
  58   34   55 1
  59   34   56 1

#	End of record

