#	Name: ASD10100006
#	Creating user name:	WinNT
#	Creation time:	15. 06. 2019 21:24

#	Modifying user name:	WinNT
#	Modification time:	15. 06. 2019 21:24

#	Program:	/corina/corina34_cracker 3.40 0067  02.08.2006

@<TRIPOS>MOLECULE
ASD10100006
  41   42    0    0    0
SMALL
NO_CHARGES


@<TRIPOS>ATOM
   1 C1             0.0622     1.3838     0.5927 C.2     
   2 N2             0.1123     0.0563     0.8048 N.am    
   3 C3             1.2566    -0.6275     0.6079 C.2     
   4 C4             2.4082     0.0551     0.1767 C.2     
   5 C5             2.3393     1.4055    -0.0341 C.2     
   6 N6             1.1487     2.0620     0.1801 N.am    
   7 O7            -0.9828     1.9794     0.7720 O.2     
   8 O8             1.2936    -1.8310     0.8028 O.2     
   9 N9             3.6193    -0.6435    -0.0354 N.pl3   
  10 C10            3.6498    -2.1046     0.0670 C.3     
  11 C11            4.8738    -2.6601    -0.6821 C.3     
  12 C12            5.7316    -3.4015     0.3641 C.3     
  13 C13            4.7284    -3.7712     1.4848 C.3     
  14 C14            3.8066    -2.5278     1.5422 C.3     
  15 C15            1.0636     3.5075    -0.0430 C.3     
  16 C16            1.4095     4.2446     1.2524 C.3     
  17 C17            1.3206     5.7542     1.0194 C.3     
  18 C18            1.6665     6.4913     2.3148 C.3     
  19 N19            3.4498     2.1004    -0.4556 N.pl3   
  20 H20           -0.6827    -0.4131     1.1024 H       
  21 H21            4.4299    -0.1553    -0.2488 H       
  22 H22            2.7347    -2.5269    -0.3481 H       
  23 H23            4.5527    -3.3527    -1.4601 H       
  24 H24            5.4451    -1.8426    -1.1218 H       
  25 H25            6.1682    -4.3013    -0.0691 H       
  26 H26            6.5117    -2.7461     0.7513 H       
  27 H27            4.1599    -4.6615     1.2161 H       
  28 H28            5.2449    -3.9133     2.4341 H       
  29 H29            4.2758    -1.7313     2.1197 H       
  30 H30            2.8384    -2.7900     1.9688 H       
  31 H31            1.7666     3.7965    -0.8243 H       
  32 H32            0.0511     3.7687    -0.3505 H       
  33 H33            0.7065     3.9556     2.0337 H       
  34 H34            2.4220     3.9834     1.5598 H       
  35 H35            2.0236     6.0432     0.2381 H       
  36 H36            0.3081     6.0154     0.7119 H       
  37 H37            1.6032     7.5667     2.1488 H       
  38 H38            0.9635     6.2023     3.0961 H       
  39 H39            2.6790     6.2301     2.6222 H       
  40 H40            4.2866     1.6331    -0.6048 H       
  41 H41            3.3957     3.0575    -0.6036 H       
@<TRIPOS>BOND
   1    1    2 am
   2    1    6 am
   3    1    7 2
   4    2    3 am
   5    2   20 1
   6    3    4 1
   7    3    8 2
   8    4    5 2
   9    4    9 1
  10    5    6 1
  11    5   19 1
  12    6   15 1
  13    9   10 1
  14    9   21 1
  15   10   11 1
  16   10   14 1
  17   10   22 1
  18   11   12 1
  19   11   23 1
  20   11   24 1
  21   12   13 1
  22   12   25 1
  23   12   26 1
  24   13   14 1
  25   13   27 1
  26   13   28 1
  27   14   29 1
  28   14   30 1
  29   15   16 1
  30   15   31 1
  31   15   32 1
  32   16   17 1
  33   16   33 1
  34   16   34 1
  35   17   18 1
  36   17   35 1
  37   17   36 1
  38   18   37 1
  39   18   38 1
  40   18   39 1
  41   19   40 1
  42   19   41 1

#	End of record

