#	Name: ASD16730001
#	Creating user name:	WinNT
#	Creation time:	15. 06. 2019 21:31

#	Modifying user name:	WinNT
#	Modification time:	15. 06. 2019 21:31

#	Program:	/corina/corina34_cracker 3.40 0067  02.08.2006

@<TRIPOS>MOLECULE
ASD16730001
  38   41    0    0    0
SMALL
NO_CHARGES


@<TRIPOS>ATOM
   1 C1            -0.0386     1.3549    -0.1299 C.2     
   2 C2            -3.4524     0.4640    -0.0440 C.2     
   3 C3            -3.8371    -4.0681    -0.8882 C.ar    
   4 C4            -3.6402    -3.9416     1.5066 C.ar    
   5 C5            -4.4002    -5.8929     0.5453 C.ar    
   6 C6            -4.2881    -5.3666    -0.7292 C.ar    
   7 C7            -7.3285    -2.4975     0.2058 C.3     
   8 C8            -5.4174    -1.0706     0.0860 C.2     
   9 C9            -3.9667    -0.8312     0.0611 C.2     
  10 C10           -3.0165    -1.9433     0.1451 C.2     
  11 C11           -1.2526    -0.4422     0.0123 C.2     
  12 C12           -4.3548     1.6272    -0.1319 C.ar    
  13 C13           -4.3752     2.5781     0.8917 C.ar    
  14 C14           -5.2228     3.6655     0.8035 C.ar    
  15 C15           -6.0515     3.8142    -0.2970 C.ar    
  16 C16           -6.0359     2.8746    -1.3154 C.ar    
  17 C17           -5.1887     1.7859    -1.2417 C.ar    
  18 C18           -3.5045    -3.3363     0.2574 C.ar    
  19 F19           -5.2440     4.5856     1.7925 F       
  20 F20           -6.8469     3.0266    -2.3852 F       
  21 N21           -1.7203    -1.6910     0.1193 N.2     
  22 N22           -0.0110     0.0327    -0.0251 N.2     
  23 N23           -1.2816     1.7689    -0.1573 N.2     
  24 N24           -2.0958     0.6306    -0.0633 N.pl3   
  25 N25           -4.0736    -5.1813     1.6069 N.ar    
  26 O26           -5.8928    -2.3319     0.0656 O.3     
  27 O27           -6.1878    -0.1312     0.1250 O.2     
  28 H28            0.8311     1.9933    -0.1804 H       
  29 H29           -3.7400    -3.6321    -1.8715 H       
  30 H30           -3.3873    -3.3890     2.3994 H       
  31 H31           -4.7523    -6.9060     0.6726 H       
  32 H32           -4.5501    -5.9627    -1.5908 H       
  33 H33           -7.5768    -3.5583     0.1729 H       
  34 H34           -7.6513    -2.0782     1.1588 H       
  35 H35           -7.8352    -1.9803    -0.6089 H       
  36 H36           -3.7300     2.4631     1.7501 H       
  37 H37           -6.7156     4.6636    -0.3592 H       
  38 H38           -5.1775     1.0542    -2.0361 H       
@<TRIPOS>BOND
   1    1   22 1
   2    1   28 1
   3    1   23 2
   4    2   24 1
   5    2    9 2
   6    2   12 1
   7    3    6 ar
   8    3   29 1
   9    3   18 ar
  10    4   18 ar
  11    4   25 ar
  12    4   30 1
  13    5    6 ar
  14    5   31 1
  15    5   25 ar
  16    6   32 1
  17    7   33 1
  18    7   34 1
  19    7   35 1
  20    7   26 1
  21    8   26 1
  22    8    9 1
  23    8   27 2
  24    9   10 1
  25   10   21 2
  26   10   18 1
  27   11   21 1
  28   11   22 2
  29   11   24 1
  30   12   13 ar
  31   12   17 ar
  32   13   36 1
  33   13   14 ar
  34   14   15 ar
  35   14   19 1
  36   15   16 ar
  37   15   37 1
  38   16   17 ar
  39   16   20 1
  40   17   38 1
  41   23   24 1

#	End of record

