#	Name: ASD10220026
#	Creating user name:	WinNT
#	Creation time:	15. 06. 2019 21:26

#	Modifying user name:	WinNT
#	Modification time:	15. 06. 2019 21:26

#	Program:	/corina/corina34_cracker 3.40 0067  02.08.2006

@<TRIPOS>MOLECULE
ASD10220026
  37   40    0    0    0
SMALL
NO_CHARGES


@<TRIPOS>ATOM
   1 C1             0.0033     1.5137     0.4033 C.2     
   2 C2             0.0491     0.2219     0.9785 C.2     
   3 C3            -1.0785    -0.4296     1.3402 C.2     
   4 C4            -2.4054     0.1575     1.1605 C.2     
   5 C5            -2.5346     1.4203     0.6039 C.2     
   6 C6            -1.3331     2.1680     0.2004 C.2     
   7 O7            -3.6419    -0.2965     1.4406 O.3     
   8 C8            -4.5763     0.5937     1.1008 C.2     
   9 C9            -3.9734     1.7020     0.5677 C.2     
  10 O10           -1.4199     3.2747    -0.2884 O.2     
  11 O11            1.0267     2.0853     0.0839 O.2     
  12 C12           -4.6316     2.9203     0.0639 C.2     
  13 O13           -3.9616     3.8745    -0.2831 O.2     
  14 C14           -6.1035     2.9829    -0.0196 C.ar    
  15 C15           -6.7610     4.2107     0.1036 C.ar    
  16 C16           -8.1344     4.2647     0.0246 C.ar    
  17 C17           -8.8674     3.1007    -0.1773 C.ar    
  18 C18           -8.2175     1.8777    -0.3003 C.ar    
  19 C19           -6.8441     1.8155    -0.2278 C.ar    
  20 O20          -10.2210     3.1582    -0.2541 O.3     
  21 Br21           1.7250    -0.6118     1.2468 Br      
  22 Br22          -0.9355    -2.1545     2.1018 Br      
  23 C23          -10.9120     1.9249    -0.4627 C.3     
  24 C24          -12.3955     2.1839    -0.5206 C.2     
  25 S25          -13.4454     2.1660     0.8287 S.3     
  26 C26          -14.8106     2.5486    -0.2175 C.2     
  27 C27          -14.3532     2.6526    -1.4689 C.2     
  28 N28          -13.0561     2.4566    -1.5948 N.2     
  29 H29           -5.6407     0.4608     1.2260 H       
  30 H30           -6.1924     5.1153     0.2608 H       
  31 H31           -8.6431     5.2126     0.1199 H       
  32 H32           -8.7906     0.9759    -0.4570 H       
  33 H33           -6.3401     0.8651    -0.3234 H       
  34 H34          -10.5841     1.4790    -1.4017 H       
  35 H35          -10.6940     1.2429     0.3591 H       
  36 H36          -15.8359     2.6760     0.0969 H       
  37 H37          -14.9935     2.8825    -2.3078 H       
@<TRIPOS>BOND
   1    1    2 1
   2    1   11 2
   3    1    6 1
   4    2    3 2
   5    2   21 1
   6    3    4 1
   7    3   22 1
   8    4    5 2
   9    4    7 1
  10    5    6 1
  11    5    9 1
  12    6   10 2
  13    7    8 1
  14    8    9 2
  15    8   29 1
  16    9   12 1
  17   12   13 2
  18   12   14 1
  19   14   15 ar
  20   14   19 ar
  21   15   16 ar
  22   15   30 1
  23   16   17 ar
  24   16   31 1
  25   17   18 ar
  26   17   20 1
  27   18   19 ar
  28   18   32 1
  29   19   33 1
  30   20   23 1
  31   23   24 1
  32   23   34 1
  33   23   35 1
  34   24   25 1
  35   24   28 2
  36   25   26 1
  37   26   27 2
  38   26   36 1
  39   27   28 1
  40   27   37 1

#	End of record

