#	Name: ASD10950020
#	Creating user name:	WinNT
#	Creation time:	15. 06. 2019 21:28

#	Modifying user name:	WinNT
#	Modification time:	15. 06. 2019 21:28

#	Program:	/corina/corina34_cracker 3.40 0067  02.08.2006

@<TRIPOS>MOLECULE
ASD10950020
  50   53    0    0    0
SMALL
NO_CHARGES


@<TRIPOS>ATOM
   1 C1            -0.0184     1.5028     0.0103 C.3     
   2 C2             0.0021    -0.0041     0.0020 C.2     
   3 O3             1.0613    -0.5966    -0.0113 O.2     
   4 C4            -1.2136    -0.7282     0.0097 C.2     
   5 C5            -1.3518    -2.0771     0.0043 C.2     
   6 O6            -0.3363    -2.9691    -0.0092 O.3     
   7 C7            -2.7919    -2.4166     0.0160 C.2     
   8 O8            -3.2424    -3.5447     0.0146 O.2     
   9 N9            -3.5285    -1.2909     0.0285 N.am    
  10 C10           -2.6084    -0.1478     0.0322 C.3     
  11 C11           -2.8147     0.6791     1.2751 C.ar    
  12 C12           -2.7756     2.0601     1.1979 C.ar    
  13 C13           -2.9641     2.8230     2.3316 C.ar    
  14 C14           -3.1947     2.1987     3.5590 C.ar    
  15 C15           -3.2328     0.8047     3.6297 C.ar    
  16 C16           -3.0479     0.0540     2.4873 C.ar    
  17 C17           -3.3969     3.0092     4.7774 C.2     
  18 O18           -3.3628     4.2217     4.7128 O.2     
  19 O19           -3.6191     2.4037     5.9600 O.3     
  20 C20           -4.9917    -1.2190     0.0420 C.3     
  21 C21           -5.4881    -1.2009     1.4892 C.3     
  22 C22           -6.9932    -1.1270     1.5031 C.2     
  23 C23           -7.7371    -0.0146     1.6087 C.2     
  24 N24           -9.0663    -0.3383     1.5845 N.pl3   
  25 C25           -9.2139    -1.7015     1.4595 C.ar    
  26 C26           -7.9220    -2.2548     1.3975 C.ar    
  27 C27           -7.7611    -3.6357     1.2677 C.ar    
  28 C28           -8.8610    -4.4435     1.2014 C.ar    
  29 C29          -10.1381    -3.9023     1.2617 C.ar    
  30 C30          -10.3197    -2.5425     1.3863 C.ar    
  31 H31            1.0042     1.8801     0.0026 H       
  32 H32           -0.5455     1.8639    -0.8728 H       
  33 H33           -0.5286     1.8543     0.9071 H       
  34 H34           -0.6238    -3.8924    -0.0112 H       
  35 H35           -2.7671     0.4639    -0.8559 H       
  36 H36           -2.5968     2.5417     0.2479 H       
  37 H37           -2.9330     3.9008     2.2700 H       
  38 H38           -3.4103     0.3154     4.5761 H       
  39 H39           -3.0772    -1.0243     2.5406 H       
  40 H40           -3.7457     2.9758     6.7292 H       
  41 H41           -5.3155    -0.3098    -0.4646 H       
  42 H42           -5.4029    -2.0876    -0.4723 H       
  43 H43           -5.1643    -2.1101     1.9958 H       
  44 H44           -5.0769    -0.3323     2.0035 H       
  45 H45           -7.3446     0.9874     1.6999 H       
  46 H46           -9.7960     0.2978     1.6465 H       
  47 H47           -6.7707    -4.0637     1.2195 H       
  48 H48           -8.7360    -5.5115     1.1010 H       
  49 H49          -10.9978    -4.5537     1.2077 H       
  50 H50          -11.3173    -2.1311     1.4324 H       
@<TRIPOS>BOND
   1    1    2 1
   2    1   31 1
   3    1   32 1
   4    1   33 1
   5    2    3 2
   6    2    4 1
   7    4    5 2
   8    4   10 1
   9    5    6 1
  10    5    7 1
  11    6   34 1
  12    7    8 2
  13    7    9 am
  14    9   10 1
  15    9   20 1
  16   10   11 1
  17   10   35 1
  18   11   12 ar
  19   11   16 ar
  20   12   13 ar
  21   12   36 1
  22   13   14 ar
  23   13   37 1
  24   14   15 ar
  25   14   17 1
  26   15   16 ar
  27   15   38 1
  28   16   39 1
  29   17   18 2
  30   17   19 1
  31   19   40 1
  32   20   21 1
  33   20   41 1
  34   20   42 1
  35   21   22 1
  36   21   43 1
  37   21   44 1
  38   22   23 2
  39   22   26 1
  40   23   24 1
  41   23   45 1
  42   24   25 1
  43   24   46 1
  44   25   26 ar
  45   25   30 ar
  46   26   27 ar
  47   27   28 ar
  48   27   47 1
  49   28   29 ar
  50   28   48 1
  51   29   30 ar
  52   29   49 1
  53   30   50 1

#	End of record

