#	Name: ASD11000079
#	Creating user name:	WinNT
#	Creation time:	15. 06. 2019 21:28

#	Modifying user name:	WinNT
#	Modification time:	15. 06. 2019 21:28

#	Program:	/corina/corina34_cracker 3.40 0067  02.08.2006

@<TRIPOS>MOLECULE
ASD11000079
  41   42    0    0    0
SMALL
NO_CHARGES


@<TRIPOS>ATOM
   1 C1            -0.2860     1.8683     0.7162 C.ar    
   2 C2            -0.1510     0.5326     0.3814 C.ar    
   3 C3            -1.2702    -0.2578     0.2203 C.ar    
   4 C4            -2.5409     0.2929     0.3958 C.ar    
   5 C5            -2.6699     1.6412     0.7336 C.ar    
   6 C6            -1.5423     2.4191     0.8969 C.ar    
   7 C7            -3.7443    -0.5478     0.2243 C.2     
   8 O8            -3.6289    -1.7214    -0.0702 O.2     
   9 N9            -4.9697    -0.0131     0.3946 N.am    
  10 C10           -6.1040    -0.7727     0.1246 C.ar    
  11 C11           -7.1906    -0.2009    -0.5551 C.ar    
  12 C12            0.9411     2.7254     0.8911 C.3     
  13 C13            1.7376     2.7483    -0.4151 C.3     
  14 C14            0.5201     4.1502     1.2567 C.3     
  15 C15            1.8115     2.1480     2.0091 C.3     
  16 C16           -8.3236    -0.9750    -0.8198 C.ar    
  17 C17           -8.3673    -2.2906    -0.4133 C.ar    
  18 C18           -7.2925    -2.8521     0.2577 C.ar    
  19 C19           -6.1643    -2.1022     0.5214 C.ar    
  20 C20           -7.1373     1.2072    -0.9867 C.2     
  21 O21           -8.2132     1.7758    -1.5654 O.3     
  22 O22           -6.1231     1.8556    -0.8206 O.2     
  23 H23            0.8326     0.1079     0.2455 H       
  24 H24           -1.1635    -1.3002    -0.0415 H       
  25 H25           -3.6501     2.0735     0.8705 H       
  26 H26           -1.6407     3.4624     1.1582 H       
  27 H27           -5.0610     0.9013     0.7052 H       
  28 H28            1.1175     3.1597    -1.2116 H       
  29 H29            2.6251     3.3683    -0.2886 H       
  30 H30            2.0375     1.7333    -0.6755 H       
  31 H31           -0.0474     4.1339     2.1872 H       
  32 H32            1.4076     4.7702     1.3832 H       
  33 H33           -0.1000     4.5615     0.4602 H       
  34 H34            2.1114     1.1330     1.7486 H       
  35 H35            2.6990     2.7680     2.1356 H       
  36 H36            1.2440     2.1317     2.9396 H       
  37 H37           -9.1641    -0.5423    -1.3420 H       
  38 H38           -9.2438    -2.8874    -0.6182 H       
  39 H39           -7.3365    -3.8842     0.5727 H       
  40 H40           -5.3310    -2.5473     1.0448 H       
  41 H41           -8.1306     2.7017    -1.8317 H       
@<TRIPOS>BOND
   1    1    2 ar
   2    1   12 1
   3    1    6 ar
   4    2    3 ar
   5    2   23 1
   6    3    4 ar
   7    3   24 1
   8    4    5 ar
   9    4    7 1
  10    5    6 ar
  11    5   25 1
  12    6   26 1
  13    7    8 2
  14    7    9 am
  15    9   10 1
  16    9   27 1
  17   10   11 ar
  18   10   19 ar
  19   11   16 ar
  20   11   20 1
  21   12   13 1
  22   12   14 1
  23   12   15 1
  24   13   28 1
  25   13   29 1
  26   13   30 1
  27   14   31 1
  28   14   32 1
  29   14   33 1
  30   15   34 1
  31   15   35 1
  32   15   36 1
  33   16   17 ar
  34   16   37 1
  35   17   18 ar
  36   17   38 1
  37   18   19 ar
  38   18   39 1
  39   19   40 1
  40   20   21 1
  41   20   22 2
  42   21   41 1

#	End of record

