#	Name: ASD10160262
#	Creating user name:	WinNT
#	Creation time:	15. 06. 2019 21:25

#	Modifying user name:	WinNT
#	Modification time:	15. 06. 2019 21:25

#	Program:	/corina/corina34_cracker 3.40 0067  02.08.2006

@<TRIPOS>MOLECULE
ASD10160262
  41   42    0    0    0
SMALL
NO_CHARGES


@<TRIPOS>ATOM
   1 C1             0.3718     1.0991     1.9659 C.2     
   2 C2             0.2891    -0.2785     1.4424 C.ar    
   3 C3             1.3730    -0.8335     0.7562 C.ar    
   4 C4             1.2916    -2.1206     0.2694 C.ar    
   5 C5             0.1314    -2.8662     0.4607 C.ar    
   6 C6            -0.9471    -2.3163     1.1420 C.ar    
   7 C7            -0.8705    -1.0328     1.6367 C.ar    
   8 O8             1.3837     1.7525     1.8004 O.2     
   9 N9            -0.6763     1.6345     2.6225 N.am    
  10 O10            0.0538    -4.1332    -0.0201 O.3     
  11 C11           -1.4009    -5.5727     1.2035 C.ar    
  12 C12           -1.1325    -4.7865     0.0918 C.ar    
  13 C13           -2.0956    -4.6764    -0.9061 C.ar    
  14 C14           -3.2899    -5.3609    -0.7470 C.ar    
  15 C15           -3.4840    -6.1244     0.3887 C.ar    
  16 N16           -2.5503    -6.2078     1.3163 N.ar    
  17 C17           -4.7801    -6.8719     0.5693 C.3     
  18 C18           -4.4852    -8.3546     0.8049 C.3     
  19 C19           -5.8011    -9.1134     0.9883 C.3     
  20 S20           -0.5835     3.1801     3.2098 S.o2    
  21 O21           -1.8355     3.3879     3.8489 O.2     
  22 O22            0.6294     3.2015     3.9499 O.2     
  23 C23           -0.4442     4.2193     1.7295 C.3     
  24 F24            2.3382    -2.6588    -0.3941 F       
  25 H25            2.2726    -0.2547     0.6073 H       
  26 H26           -1.8455    -2.8976     1.2881 H       
  27 H27           -1.7082    -0.6083     2.1700 H       
  28 H28           -1.4851     1.1146     2.7510 H       
  29 H29           -0.6585    -5.6688     1.9820 H       
  30 H30           -1.9170    -4.0721    -1.7832 H       
  31 H31           -4.0603    -5.2981    -1.5013 H       
  32 H32           -5.3163    -6.4672     1.4277 H       
  33 H33           -5.3914    -6.7608    -0.3263 H       
  34 H34           -3.9490    -8.7592    -0.0535 H       
  35 H35           -3.8739    -8.4656     1.7005 H       
  36 H36           -6.3373    -8.7087     1.8467 H       
  37 H37           -6.4124    -9.0023     0.0927 H       
  38 H38           -5.5910   -10.1697     1.1562 H       
  39 H39           -1.3226     4.0751     1.1004 H       
  40 H40           -0.3772     5.2662     2.0254 H       
  41 H41            0.4508     3.9409     1.1731 H       
@<TRIPOS>BOND
   1    1    2 1
   2    1    8 2
   3    1    9 am
   4    2    3 ar
   5    2    7 ar
   6    3    4 ar
   7    3   25 1
   8    4    5 ar
   9    4   24 1
  10    5    6 ar
  11    5   10 1
  12    6    7 ar
  13    6   26 1
  14    7   27 1
  15    9   20 am
  16    9   28 1
  17   10   12 1
  18   11   12 ar
  19   11   16 ar
  20   11   29 1
  21   12   13 ar
  22   13   14 ar
  23   13   30 1
  24   14   15 ar
  25   14   31 1
  26   15   16 ar
  27   15   17 1
  28   17   18 1
  29   17   32 1
  30   17   33 1
  31   18   19 1
  32   18   34 1
  33   18   35 1
  34   19   36 1
  35   19   37 1
  36   19   38 1
  37   20   21 2
  38   20   22 2
  39   20   23 1
  40   23   39 1
  41   23   40 1
  42   23   41 1

#	End of record

