#	Name: ASD13490041
#	Creating user name:	WinNT
#	Creation time:	15. 06. 2019 21:30

#	Modifying user name:	WinNT
#	Modification time:	15. 06. 2019 21:30

#	Program:	/corina/corina34_cracker 3.40 0067  02.08.2006

@<TRIPOS>MOLECULE
ASD13490041
  47   51    0    0    0
SMALL
NO_CHARGES


@<TRIPOS>ATOM
   1 C1            -0.0167     1.3830     0.0096 C.ar    
   2 C2             0.0021    -0.0041     0.0020 C.ar    
   3 C3             1.2114    -0.6863    -0.0137 C.ar    
   4 C4             2.3982     0.0198    -0.0148 C.ar    
   5 C5             2.3707     1.4100     0.0001 C.ar    
   6 C6             1.1758     2.0904     0.0021 C.ar    
   7 N7            -1.2052    -0.7202     0.0106 N.pl3   
   8 C8            -2.4564    -0.1928     0.0259 C.2     
   9 N9            -3.3202    -1.1716     0.0293 N.2     
  10 C10           -2.6654    -2.3419     0.0165 C.2     
  11 C11           -1.3437    -2.0838    -0.0008 C.2     
  12 C12           -3.2990    -3.7092     0.0162 C.3     
  13 C13            1.1403     3.5882    -0.0211 C.3     
  14 N14            3.5622     2.1337     0.0345 N.pl3   
  15 C15            1.6032     4.1583    -1.3429 C.3     
  16 C16            3.9020     3.0290    -1.0045 C.2     
  17 C17            3.0599     3.8662    -1.6274 C.2     
  18 S18            3.9469     4.6550    -2.9415 S.3     
  19 N19            5.1528     3.0907    -1.4709 N.2     
  20 C20            5.3807     3.8578    -2.4737 C.2     
  21 C21            6.7207     4.0291    -3.1417 C.3     
  22 C22            6.8623     3.0180    -4.2501 C.ar    
  23 C23            7.5359     0.8472    -5.0029 C.ar    
  24 C24            7.4059     1.7747    -3.9862 C.ar    
  25 C25            6.4435     3.3317    -5.5296 C.ar    
  26 C26            6.5735     2.4042    -6.5463 C.ar    
  27 C27            7.1227     1.1632    -6.2837 C.ar    
  28 H28           -0.9588     1.9111     0.0170 H       
  29 H29            1.2237    -1.7662    -0.0246 H       
  30 H30            3.3422    -0.5047    -0.0268 H       
  31 H31           -2.6967     0.8601     0.0342 H       
  32 H32           -0.5459    -2.8116    -0.0183 H       
  33 H33           -3.4622    -4.0339    -1.0114 H       
  34 H34           -2.6392    -4.4156     0.5200 H       
  35 H35           -4.2540    -3.6672     0.5399 H       
  36 H36            0.1191     3.9196     0.1674 H       
  37 H37            1.7843     3.9685     0.7717 H       
  38 H38            4.1678     2.0204     0.7837 H       
  39 H39            0.9964     3.7320    -2.1418 H       
  40 H40            1.4568     5.2383    -1.3309 H       
  41 H41            6.7943     5.0348    -3.5557 H       
  42 H42            7.5137     3.8788    -2.4092 H       
  43 H43            7.9609    -0.1240    -4.7968 H       
  44 H44            7.7294     1.5281    -2.9857 H       
  45 H45            6.0144     4.3013    -5.7348 H       
  46 H46            6.2456     2.6491    -7.5458 H       
  47 H47            7.2242     0.4385    -7.0781 H       
@<TRIPOS>BOND
   1    1    2 ar
   2    1    6 ar
   3    1   28 1
   4    2    3 ar
   5    2    7 1
   6    3    4 ar
   7    3   29 1
   8    4    5 ar
   9    4   30 1
  10    5    6 ar
  11    5   14 1
  12    6   13 1
  13    7    8 1
  14    7   11 1
  15    8    9 2
  16    8   31 1
  17    9   10 1
  18   10   11 2
  19   10   12 1
  20   11   32 1
  21   12   33 1
  22   12   34 1
  23   12   35 1
  24   13   15 1
  25   13   36 1
  26   13   37 1
  27   14   16 1
  28   14   38 1
  29   15   17 1
  30   15   39 1
  31   15   40 1
  32   16   19 1
  33   16   17 2
  34   17   18 1
  35   18   20 1
  36   19   20 2
  37   20   21 1
  38   21   22 1
  39   21   41 1
  40   21   42 1
  41   22   25 ar
  42   22   24 ar
  43   23   24 ar
  44   23   27 ar
  45   23   43 1
  46   24   44 1
  47   25   26 ar
  48   25   45 1
  49   26   27 ar
  50   26   46 1
  51   27   47 1

#	End of record

