#	Name: ASD10160012
#	Creating user name:	WinNT
#	Creation time:	15. 06. 2019 21:25

#	Modifying user name:	WinNT
#	Modification time:	15. 06. 2019 21:25

#	Program:	/corina/corina34_cracker 3.40 0067  02.08.2006

@<TRIPOS>MOLECULE
ASD10160012
  35   38    0    0    0
SMALL
NO_CHARGES


@<TRIPOS>ATOM
   1 C1            -0.0167     1.3823     0.0096 C.ar    
   2 C2             0.0021    -0.0041     0.0020 C.ar    
   3 C3            -1.1847    -0.7125     0.0085 C.ar    
   4 C4            -2.3969    -0.0398     0.0220 C.ar    
   5 C5            -2.4182     1.3501     0.0326 C.ar    
   6 C6            -1.2267     2.0590     0.0306 C.ar    
   7 O7             1.1515     2.0782     0.0022 O.3     
   8 C8             1.3176    -0.7391    -0.0139 C.3     
   9 C9             2.1139    -0.3729    -1.2451 C.ar    
  10 C10            3.2892     0.2125    -0.7906 C.ar    
  11 N11            3.3029     0.2468     0.6042 N.am    
  12 C12            2.1913    -0.2878     1.1372 C.2     
  13 C13            1.8734    -0.5171    -2.5926 C.ar    
  14 C14            2.8095    -0.0757    -3.5121 C.ar    
  15 C15            3.9830     0.5085    -3.0723 C.ar    
  16 C16            4.2265     0.6542    -1.7220 C.ar    
  17 O17            1.9360    -0.3900     2.3185 O.2     
  18 O18            1.1017    -2.1506     0.0413 O.3     
  19 O19           -3.5567    -0.7540     0.0199 O.3     
  20 C20           -4.7437    -0.0551     0.4102 C.3     
  21 C21           -4.7691     1.2945    -0.3199 C.3     
  22 O22           -3.5980     2.0285     0.0538 O.3     
  23 H23           -1.1677    -1.7924     0.0028 H       
  24 H24           -1.2412     3.1389     0.0372 H       
  25 H25            1.4809     2.2843    -0.8833 H       
  26 H26            4.0312     0.6144     1.1289 H       
  27 H27            0.9558    -0.9742    -2.9322 H       
  28 H28            2.6239    -0.1877    -4.5701 H       
  29 H29            4.7131     0.8527    -3.7898 H       
  30 H30            5.1454     1.1119    -1.3864 H       
  31 H31            0.6204    -2.4445     0.8268 H       
  32 H32           -5.6217    -0.6390     0.1340 H       
  33 H33           -4.7355     0.1100     1.4876 H       
  34 H34           -4.7712     1.1295    -1.3974 H       
  35 H35           -5.6601     1.8520    -0.0311 H       
@<TRIPOS>BOND
   1    1    2 ar
   2    1    7 1
   3    1    6 ar
   4    2    3 ar
   5    2    8 1
   6    3    4 ar
   7    3   23 1
   8    4    5 ar
   9    4   19 1
  10    5    6 ar
  11    5   22 1
  12    6   24 1
  13    7   25 1
  14    8    9 1
  15    8   18 1
  16    8   12 1
  17    9   10 ar
  18    9   13 ar
  19   10   11 1
  20   10   16 ar
  21   11   12 am
  22   11   26 1
  23   12   17 2
  24   13   14 ar
  25   13   27 1
  26   14   15 ar
  27   14   28 1
  28   15   16 ar
  29   15   29 1
  30   16   30 1
  31   18   31 1
  32   19   20 1
  33   20   21 1
  34   20   32 1
  35   20   33 1
  36   21   22 1
  37   21   34 1
  38   21   35 1

#	End of record

