#	Name: ASD10100023
#	Creating user name:	WinNT
#	Creation time:	15. 06. 2019 21:24

#	Modifying user name:	WinNT
#	Modification time:	15. 06. 2019 21:24

#	Program:	/corina/corina34_cracker 3.40 0067  02.08.2006

@<TRIPOS>MOLECULE
ASD10100023
  54   56    0    0    0
SMALL
NO_CHARGES


@<TRIPOS>ATOM
   1 C1            -0.0460     1.4370     0.0430 C.3     
   2 C2            -0.1284    -0.0989    -0.0015 C.3     
   3 C3            -0.7735    -0.5443     1.3271 C.3     
   4 C4            -0.6440     1.8713     1.3972 C.3     
   5 C5            -1.5718     0.6971     1.7968 C.3     
   6 C6             1.8317     2.5399    -1.2594 C.3     
   7 C7             2.1698     4.0083    -0.9473 C.3     
   8 C8             3.6703     4.1901    -1.2558 C.3     
   9 C9             3.1386     1.8807    -1.7466 C.3     
  10 C10            3.9885     3.0646    -2.2712 C.3     
  11 C11            8.9818     0.6649     0.7087 C.3     
  12 C12            8.0902     1.7427     1.3286 C.3     
  13 C13            6.6445     1.2440     1.3751 C.3     
  14 C14            5.7529     2.3218     1.9950 C.3     
  15 C15            3.9266     1.1740     3.1194 C.2     
  16 C16            3.5275     2.0840     0.9768 C.2     
  17 C17            1.8020     0.9366     2.1699 C.2     
  18 C18            2.2361     1.6341     1.0284 C.2     
  19 N19            4.3687     1.8442     2.0396 N.am    
  20 N20            3.9809     2.7692    -0.1272 N.pl3   
  21 N21            2.6604     0.7247     3.1868 N.am    
  22 N22            1.3512     1.8676    -0.0497 N.pl3   
  23 O23            4.6853     0.9668     4.0471 O.2     
  24 O24            0.6557     0.5256     2.2388 O.2     
  25 H25           -0.6237     1.8658    -0.7758 H       
  26 H26           -0.7468    -0.4154    -0.8415 H       
  27 H27            0.8712    -0.5239    -0.0922 H       
  28 H28           -1.4432    -1.3884     1.1619 H       
  29 H29           -0.0056    -0.8024     2.0564 H       
  30 H30            0.1448     2.0033     2.1378 H       
  31 H31           -1.2191     2.7902     1.2831 H       
  32 H32           -2.5258     0.7635     1.2738 H       
  33 H33           -1.7224     0.6739     2.8761 H       
  34 H34            1.0739     2.4893    -2.0413 H       
  35 H35            1.5761     4.6702    -1.5777 H       
  36 H36            1.9764     4.2206     0.1041 H       
  37 H37            3.8524     5.1683    -1.7010 H       
  38 H38            4.2638     4.0658    -0.3500 H       
  39 H39            3.6462     1.3834    -0.9201 H       
  40 H40            2.9326     1.1735    -2.5501 H       
  41 H41            3.6750     3.3502    -3.2753 H       
  42 H42            5.0497     2.8163    -2.2527 H       
  43 H43            8.9294    -0.2413     1.3121 H       
  44 H44            8.6396     0.4480    -0.3032 H       
  45 H45           10.0118     1.0203     0.6755 H       
  46 H46            8.4325     1.9596     2.3404 H       
  47 H47            8.1427     2.6490     0.7252 H       
  48 H48            6.3023     1.0270     0.3632 H       
  49 H49            6.5921     0.3377     1.9785 H       
  50 H50            6.0952     2.5387     3.0069 H       
  51 H51            5.8054     3.2280     1.3916 H       
  52 H52            3.3861     2.9298    -0.8764 H       
  53 H53            4.8953     3.0915    -0.1562 H       
  54 H54            2.3625     0.2438     3.9748 H       
@<TRIPOS>BOND
   1    1    2 1
   2    1   22 1
   3    1    4 1
   4    1   25 1
   5    2    3 1
   6    2   26 1
   7    2   27 1
   8    3    5 1
   9    3   28 1
  10    3   29 1
  11    4    5 1
  12    4   30 1
  13    4   31 1
  14    5   32 1
  15    5   33 1
  16    6    7 1
  17    6    9 1
  18    6   22 1
  19    6   34 1
  20    7    8 1
  21    7   35 1
  22    7   36 1
  23    8   10 1
  24    8   37 1
  25    8   38 1
  26    9   10 1
  27    9   39 1
  28    9   40 1
  29   10   41 1
  30   10   42 1
  31   11   12 1
  32   11   43 1
  33   11   44 1
  34   11   45 1
  35   12   13 1
  36   12   46 1
  37   12   47 1
  38   13   14 1
  39   13   48 1
  40   13   49 1
  41   14   19 1
  42   14   50 1
  43   14   51 1
  44   15   19 am
  45   15   21 am
  46   15   23 2
  47   16   18 2
  48   16   19 1
  49   16   20 1
  50   17   18 1
  51   17   21 am
  52   17   24 2
  53   18   22 1
  54   20   52 1
  55   20   53 1
  56   21   54 1

#	End of record

