#	Name: ASD11000318
#	Creating user name:	WinNT
#	Creation time:	15. 06. 2019 21:29

#	Modifying user name:	WinNT
#	Modification time:	15. 06. 2019 21:29

#	Program:	/corina/corina34_cracker 3.40 0067  02.08.2006

@<TRIPOS>MOLECULE
ASD11000318
  68   71    0    0    0
SMALL
NO_CHARGES


@<TRIPOS>ATOM
   1 N1            -0.0322     1.3425     0.1987 N.am    
   2 C2            -0.0034     0.0021     0.1020 C.2     
   3 C3             1.2130    -0.7130     0.0704 C.2     
   4 C4             2.3950    -0.0521     0.1375 C.2     
   5 C5             2.3746     1.4086     0.2426 C.ar    
   6 C6             3.5608     2.1422     0.3156 C.ar    
   7 C7             3.5000     3.5290     0.4151 C.ar    
   8 C8             2.2568     4.1781     0.4419 C.ar    
   9 C9             1.0970     3.4634     0.3708 C.ar    
  10 C10            1.1335     2.0747     0.2707 C.ar    
  11 O11           -1.0547    -0.6115     0.0404 O.2     
  12 C12           -1.3223     2.0363     0.2219 C.3     
  13 O13           -1.5474     2.6657    -1.0411 O.3     
  14 C14           -2.0201     1.7784    -2.0566 C.3     
  15 C15           -2.2251     2.5560    -3.3583 C.3     
  16 Si16          -2.8415     1.3992    -4.6822 Si      
  17 C17           -4.4598     0.6479    -4.1462 C.3     
  18 C18           -3.0911     2.3461    -6.2671 C.3     
  19 C19           -1.5898     0.0470    -4.9572 C.3     
  20 C20            4.7433     4.3165     0.4929 C.2     
  21 C21            4.6856     5.6546     0.5890 C.2     
  22 C22            8.1915     7.8752     0.8092 C.ar    
  23 N23            7.0267     8.5078     0.8352 N.ar    
  24 C24            5.8900     7.8392     0.7674 C.ar    
  25 C25            5.9287     6.4420     0.6667 C.ar    
  26 C26            7.1810     5.8134     0.6425 C.ar    
  27 N27            8.2710     6.5551     0.7148 N.ar    
  28 N28            9.3592     8.6151     0.8768 N.pl3   
  29 C29           10.5955     7.9649     0.9726 C.ar    
  30 C30           11.7185     8.5151     0.3684 C.ar    
  31 C31           12.9380     7.8729     0.4639 C.ar    
  32 C32           13.0405     6.6781     1.1636 C.ar    
  33 C33           11.9193     6.1287     1.7664 C.ar    
  34 C34           10.7005     6.7727     1.6765 C.ar    
  35 O35           14.2412     6.0461     1.2575 O.3     
  36 C36           14.2738     4.8210     1.9924 C.3     
  37 F37           13.8693     5.0572     3.3107 F       
  38 F38           13.4082     3.8970     1.3973 F       
  39 Cl39          14.3422     8.5596    -0.2915 Cl      
  40 H40            1.2023    -1.7902    -0.0072 H       
  41 H41            3.3307    -0.5908     0.1144 H       
  42 H42            4.5158     1.6382     0.2953 H       
  43 H43            2.2174     5.2545     0.5200 H       
  44 H44            0.1468     3.9764     0.3929 H       
  45 H45           -2.1181     1.3173     0.4165 H       
  46 H46           -1.3146     2.7914     1.0079 H       
  47 H47           -1.2879     0.9872    -2.2175 H       
  48 H48           -2.9670     1.3388    -1.7431 H       
  49 H49           -2.9574     3.3472    -3.1974 H       
  50 H50           -1.2783     2.9956    -3.6719 H       
  51 H51           -5.1921     1.4391    -3.9853 H       
  52 H52           -4.8204    -0.0289    -4.9208 H       
  53 H53           -4.3138     0.0939    -3.2189 H       
  54 H54           -2.1442     2.7856    -6.5807 H       
  55 H55           -3.4517     1.6693    -7.0417 H       
  56 H56           -3.8233     3.1372    -6.1062 H       
  57 H57           -1.4438    -0.5070    -4.0299 H       
  58 H58           -1.9504    -0.6298    -5.7318 H       
  59 H59           -0.6430     0.4866    -5.2708 H       
  60 H60            5.7009     3.8173     0.4726 H       
  61 H61            3.7281     6.1538     0.6092 H       
  62 H62            4.9448     8.3612     0.7895 H       
  63 H63            7.2534     4.7385     0.5661 H       
  64 H64            9.3211     9.5842     0.8579 H       
  65 H65           11.6384     9.4443    -0.1762 H       
  66 H66           11.9997     5.1989     2.3099 H       
  67 H67            9.8284     6.3468     2.1503 H       
  68 H68           15.2884     4.4225     1.9896 H       
@<TRIPOS>BOND
   1    1    2 am
   2    1   10 1
   3    1   12 1
   4    2    3 1
   5    2   11 2
   6    3    4 2
   7    3   40 1
   8    4    5 1
   9    4   41 1
  10    5    6 ar
  11    5   10 ar
  12    6    7 ar
  13    6   42 1
  14    7    8 ar
  15    7   20 1
  16    8    9 ar
  17    8   43 1
  18    9   10 ar
  19    9   44 1
  20   12   13 1
  21   12   45 1
  22   12   46 1
  23   13   14 1
  24   14   15 1
  25   14   47 1
  26   14   48 1
  27   15   16 1
  28   15   49 1
  29   15   50 1
  30   16   17 1
  31   16   18 1
  32   16   19 1
  33   17   51 1
  34   17   52 1
  35   17   53 1
  36   18   54 1
  37   18   55 1
  38   18   56 1
  39   19   57 1
  40   19   58 1
  41   19   59 1
  42   20   21 2
  43   20   60 1
  44   21   25 1
  45   21   61 1
  46   22   23 ar
  47   22   27 ar
  48   22   28 1
  49   23   24 ar
  50   24   25 ar
  51   24   62 1
  52   25   26 ar
  53   26   27 ar
  54   26   63 1
  55   28   29 1
  56   28   64 1
  57   29   30 ar
  58   29   34 ar
  59   30   31 ar
  60   30   65 1
  61   31   32 ar
  62   31   39 1
  63   32   33 ar
  64   32   35 1
  65   33   34 ar
  66   33   66 1
  67   34   67 1
  68   35   36 1
  69   36   37 1
  70   36   38 1
  71   36   68 1

#	End of record

