#	Name: ASD11870002
#	Creating user name:	WinNT
#	Creation time:	15. 06. 2019 21:29

#	Modifying user name:	WinNT
#	Modification time:	15. 06. 2019 21:29

#	Program:	/corina/corina34_cracker 3.40 0067  02.08.2006

@<TRIPOS>MOLECULE
ASD11870002
  61   65    0    0    0
SMALL
NO_CHARGES


@<TRIPOS>ATOM
   1 N1             2.0162     3.6871     0.9509 N.2     
   2 C2             4.7140     6.2334     1.1731 C.3     
   3 O3             3.3009     4.2794     1.0145 O.3     
   4 C4             3.2795     5.7049     1.1112 C.3     
   5 N5             0.4012     0.4817     0.7060 N.2     
   6 O6             4.1954     2.0691     0.5535 O.2     
   7 S7             5.5653    -2.5023     2.0749 S.3     
   8 C8             1.8995     2.3939     0.8607 C.2     
   9 N9            -0.5234     2.4794     1.1671 N.2     
  10 O10            3.9210    -1.0775    -1.9651 O.2     
  11 S11            5.8929    -6.2476    -0.1334 S.3     
  12 C12            0.5591     1.7659     0.9121 C.2     
  13 N13           -2.9226     2.3578     1.4340 N.pl3   
  14 O14            4.7501    -5.6170    -2.0884 O.2     
  15 S15            8.3838    -4.5685     0.5413 S.3     
  16 C16           -1.6666     1.8330     1.1912 C.2     
  17 N17            2.9993     0.2071     0.7363 N.am    
  18 O18            3.9977    -3.6622    -2.8367 O.3     
  19 C19            3.1073     1.5503     0.7066 C.2     
  20 N20            4.3032    -2.6050    -0.2586 N.am    
  21 C21            4.1736    -0.6281     0.4725 C.3     
  22 N22            8.5321    -6.8833    -0.3248 N.2     
  23 C23            4.1094    -2.0124     1.0916 C.3     
  24 N24           13.3077    -6.0362    -1.0591 N.pl3   
  25 C25            4.1016    -1.4161    -0.8143 C.2     
  26 C26            4.7165    -3.9169    -0.5658 C.2     
  27 C27            5.3233    -4.6603     0.3771 C.2     
  28 C28            5.5712    -4.3003     1.8052 C.3     
  29 C29            7.6334    -6.0022    -0.0105 C.2     
  30 C30            9.7942    -6.5304    -0.1694 C.2     
  31 C31            9.9711    -5.2931     0.2982 C.2     
  32 C32           10.9429    -7.4504    -0.4938 C.3     
  33 C33           11.4228    -7.1665    -1.8877 C.2     
  34 C34           12.5334    -6.4989    -2.1148 C.2     
  35 C35           13.1321    -6.5704     0.2104 C.2     
  36 C36           12.0403    -7.2406     0.5092 C.2     
  37 C37           14.3106    -4.9925    -1.2852 C.3     
  38 C38            4.4940    -4.4494    -1.8587 C.2     
  39 S39           -1.2663     0.1916     0.8554 S.3     
  40 H40            4.6978     7.3208     1.2469 H       
  41 H41            5.2171     5.8175     2.0461 H       
  42 H42            5.2492     5.9385     0.2705 H       
  43 H43            2.7444     5.9999     2.0138 H       
  44 H44            2.7765     6.1208     0.2382 H       
  45 H45           -3.0260     3.3056     1.6125 H       
  46 H46           -3.7004     1.7782     1.4258 H       
  47 H47            2.1441    -0.2065     0.9323 H       
  48 H48            3.8086    -4.1311    -3.6610 H       
  49 H49            5.1187    -0.1084     0.6300 H       
  50 H50            3.1597    -2.2608     1.5653 H       
  51 H51            6.5393    -4.6998     2.1073 H       
  52 H52            4.7958    -4.7529     2.4233 H       
  53 H53           10.9215    -4.8186     0.4931 H       
  54 H54           10.6004    -8.4836    -0.4370 H       
  55 H55           10.8411    -7.5200    -2.7262 H       
  56 H56           12.8453    -6.3087    -3.1312 H       
  57 H57           13.8987    -6.4348     0.9590 H       
  58 H58           11.9302    -7.6505     1.5023 H       
  59 H59           13.8547    -4.0131    -1.1402 H       
  60 H60           15.1319    -5.1190    -0.5798 H       
  61 H61           14.6913    -5.0689    -2.3037 H       
@<TRIPOS>BOND
   1    1    3 1
   2    1    8 2
   3    2    4 1
   4    2   40 1
   5    2   41 1
   6    2   42 1
   7    3    4 1
   8    4   43 1
   9    4   44 1
  10    5   12 2
  11    5   39 1
  12    6   19 2
  13    7   23 1
  14    7   28 1
  15    8   12 1
  16    8   19 1
  17    9   12 1
  18    9   16 2
  19   10   25 2
  20   11   27 1
  21   11   29 1
  22   13   16 1
  23   13   45 1
  24   13   46 1
  25   14   38 2
  26   15   29 1
  27   15   31 1
  28   16   39 1
  29   17   19 am
  30   17   21 1
  31   17   47 1
  32   18   38 1
  33   18   48 1
  34   20   23 1
  35   20   25 am
  36   20   26 1
  37   21   23 1
  38   21   25 1
  39   21   49 1
  40   22   29 2
  41   22   30 1
  42   23   50 1
  43   24   34 1
  44   24   35 1
  45   24   37 1
  46   26   27 2
  47   26   38 1
  48   27   28 1
  49   28   51 1
  50   28   52 1
  51   30   31 2
  52   30   32 1
  53   31   53 1
  54   32   33 1
  55   32   36 1
  56   32   54 1
  57   33   34 2
  58   33   55 1
  59   34   56 1
  60   35   36 2
  61   35   57 1
  62   36   58 1
  63   37   59 1
  64   37   60 1
  65   37   61 1

#	End of record

