#	Name: ASD10160248
#	Creating user name:	WinNT
#	Creation time:	15. 06. 2019 21:25

#	Modifying user name:	WinNT
#	Modification time:	15. 06. 2019 21:25

#	Program:	/corina/corina34_cracker 3.40 0067  02.08.2006

@<TRIPOS>MOLECULE
ASD10160248
  39   41    0    0    0
SMALL
NO_CHARGES


@<TRIPOS>ATOM
   1 C1             0.0378     1.4725     0.0014 C.2     
   2 C2             0.0431    -0.0040    -0.0054 C.ar    
   3 C3             1.2435    -0.6958    -0.1559 C.ar    
   4 C4             1.2427    -2.0884    -0.1616 C.ar    
   5 C5             0.0323    -2.7852    -0.0156 C.ar    
   6 C6            -1.1577    -2.0856     0.1337 C.ar    
   7 C7            -1.1561    -0.7084     0.1450 C.ar    
   8 O8             1.0806     2.0847    -0.1244 O.2     
   9 N9            -1.1238     2.1415     0.1414 N.am    
  10 O10            0.0256    -4.1407    -0.0209 O.3     
  11 N11            0.5444    -4.0788     2.2233 N.ar    
  12 C12            0.2477    -4.7828     1.1524 C.ar    
  13 C13            0.1553    -6.1796     1.1950 C.ar    
  14 C14            0.3757    -6.8395     2.3670 C.ar    
  15 C15            0.6937    -6.0799     3.5109 C.ar    
  16 C16            0.9333    -6.6938     4.7498 C.ar    
  17 C17            1.2384    -5.9271     5.8337 C.ar    
  18 C18            1.3155    -4.5405     5.7287 C.ar    
  19 C19            1.0888    -3.9126     4.5421 C.ar    
  20 C20            0.7718    -4.6698     3.4017 C.ar    
  21 S21           -1.1298     3.7975     0.1490 S.o2    
  22 O22           -2.4954     4.1421     0.3376 O.2     
  23 O23           -0.1460     4.1471     1.1130 O.2     
  24 C24           -0.5809     4.2598    -1.5171 C.3     
  25 C25            2.4715    -2.8072    -0.3162 C.1     
  26 N26            3.4464    -3.3774    -0.4389 N.1     
  27 H27            2.1710    -0.1539    -0.2681 H       
  28 H28           -2.0876    -2.6235     0.2458 H       
  29 H29           -2.0846    -0.1703     0.2663 H       
  30 H30           -1.9563     1.6531     0.2377 H       
  31 H31           -0.0907    -6.7329     0.3006 H       
  32 H32            0.3082    -7.9162     2.4179 H       
  33 H33            0.8757    -7.7682     4.8436 H       
  34 H34            1.4227    -6.4006     6.7867 H       
  35 H35            1.5585    -3.9541     6.6025 H       
  36 H36            1.1522    -2.8363     4.4777 H       
  37 H37           -1.2742     3.8537    -2.2537 H       
  38 H38           -0.5549     5.3461    -1.6027 H       
  39 H39            0.4161     3.8573    -1.6959 H       
@<TRIPOS>BOND
   1    1    2 1
   2    1    8 2
   3    1    9 am
   4    2    3 ar
   5    2    7 ar
   6    3    4 ar
   7    3   27 1
   8    4    5 ar
   9    4   25 1
  10    5    6 ar
  11    5   10 1
  12    6    7 ar
  13    6   28 1
  14    7   29 1
  15    9   21 am
  16    9   30 1
  17   10   12 1
  18   11   12 ar
  19   11   20 ar
  20   12   13 ar
  21   13   14 ar
  22   13   31 1
  23   14   15 ar
  24   14   32 1
  25   15   16 ar
  26   15   20 ar
  27   16   17 ar
  28   16   33 1
  29   17   18 ar
  30   17   34 1
  31   18   19 ar
  32   18   35 1
  33   19   20 ar
  34   19   36 1
  35   21   22 2
  36   21   23 2
  37   21   24 1
  38   24   37 1
  39   24   38 1
  40   24   39 1
  41   25   26 3

#	End of record

