#	Name: ASD11920018
#	Creating user name:	WinNT
#	Creation time:	15. 06. 2019 21:29

#	Modifying user name:	WinNT
#	Modification time:	15. 06. 2019 21:29

#	Program:	/corina/corina34_cracker 3.40 0067  02.08.2006

@<TRIPOS>MOLECULE
ASD11920018
  44   47    0    0    0
SMALL
NO_CHARGES


@<TRIPOS>ATOM
   1 C1            -0.0168     1.3898     0.0097 C.ar    
   2 C2             0.0021    -0.0041     0.0020 C.ar    
   3 C3             1.2216    -0.6792    -0.0133 C.ar    
   4 C4             2.4025     0.0349    -0.0207 C.ar    
   5 C5             2.3776     1.4180    -0.0130 C.ar    
   6 C6             1.1703     2.0933     0.0021 C.ar    
   7 C7             3.6705     2.1921    -0.0212 C.3     
   8 C8             4.0880     2.4577    -1.4447 C.ar    
   9 C9             3.6620     3.6104    -2.0851 C.ar    
  10 C10            4.0443     3.8504    -3.3827 C.ar    
  11 C11            4.8602     2.9401    -4.0617 C.ar    
  12 C12            5.2853     1.7822    -3.4102 C.ar    
  13 C13            4.8999     1.5523    -2.1052 C.ar    
  14 C14            3.6032     5.0931    -4.1194 C.3     
  15 C15            4.0798     5.2612    -5.5459 C.2     
  16 N16            4.8635     4.3218    -6.1026 N.am    
  17 C17            5.2575     3.2172    -5.4538 C.2     
  18 O18            5.9668     2.4179    -6.0322 O.2     
  19 O19            5.2932     4.5079    -7.4390 O.3     
  20 O20            3.7556     6.2396    -6.1843 O.2     
  21 C21           -1.2701    -0.7657     0.0106 C.ar    
  22 C22           -1.2474    -2.1605     0.0029 C.ar    
  23 C23           -2.4277    -2.8688     0.0108 C.ar    
  24 C24           -3.6492    -2.1899     0.0270 C.ar    
  25 C25           -3.6705    -0.7925     0.0352 C.ar    
  26 C26           -2.4886    -0.0867     0.0321 C.ar    
  27 C27           -4.8779    -2.9254     0.0348 C.1     
  28 N28           -5.8525    -3.5089     0.0410 N.1     
  29 H29           -0.9588     1.9181     0.0170 H       
  30 H30            1.2423    -1.7590    -0.0189 H       
  31 H31            3.3479    -0.4870    -0.0322 H       
  32 H32            1.1569     3.1732     0.0084 H       
  33 H33            3.5301     3.1395     0.4991 H       
  34 H34            4.4443     1.6123     0.4821 H       
  35 H35            3.0315     4.3172    -1.5662 H       
  36 H36            5.9157     1.0710    -3.9233 H       
  37 H37            5.2278     0.6566    -1.5986 H       
  38 H38            2.5133     5.1085    -4.1269 H       
  39 H39            3.9421     5.9581    -3.5493 H       
  40 H40            5.8531     3.7947    -7.7750 H       
  41 H41           -0.3033    -2.6849    -0.0097 H       
  42 H42           -2.4098    -3.9486     0.0041 H       
  43 H43           -4.6138    -0.2666     0.0477 H       
  44 H44           -2.5048     0.9931     0.0388 H       
@<TRIPOS>BOND
   1    1    2 ar
   2    1    6 ar
   3    1   29 1
   4    2    3 ar
   5    2   21 1
   6    3    4 ar
   7    3   30 1
   8    4    5 ar
   9    4   31 1
  10    5    6 ar
  11    5    7 1
  12    6   32 1
  13    7    8 1
  14    7   33 1
  15    7   34 1
  16    8    9 ar
  17    8   13 ar
  18    9   10 ar
  19    9   35 1
  20   10   11 ar
  21   10   14 1
  22   11   12 ar
  23   11   17 1
  24   12   13 ar
  25   12   36 1
  26   13   37 1
  27   14   15 1
  28   14   38 1
  29   14   39 1
  30   15   16 am
  31   15   20 2
  32   16   17 am
  33   16   19 1
  34   17   18 2
  35   19   40 1
  36   21   22 ar
  37   21   26 ar
  38   22   23 ar
  39   22   41 1
  40   23   24 ar
  41   23   42 1
  42   24   27 1
  43   24   25 ar
  44   25   26 ar
  45   25   43 1
  46   26   44 1
  47   27   28 3

#	End of record

