#	Name: ASD17090001
#	Creating user name:	WinNT
#	Creation time:	15. 06. 2019 21:31

#	Modifying user name:	WinNT
#	Modification time:	15. 06. 2019 21:31

#	Program:	/corina/corina34_cracker 3.40 0067  02.08.2006

@<TRIPOS>MOLECULE
ASD17090001
  96   96    0    0    0
SMALL
NO_CHARGES


@<TRIPOS>ATOM
   1 C1            -0.0173     1.4248     0.0099 C.3     
   2 O2             0.0021    -0.0041     0.0020 O.3     
   3 P3            -0.6722    -0.8838    -1.1657 P.3     
   4 C4             1.4181     1.9544    -0.0010 C.3     
   5 O5             2.1092     1.4810     1.1567 O.3     
   6 C6             1.3973     3.4842     0.0074 C.3     
   7 O7             2.7380     3.9788    -0.0027 O.3     
   8 C8             0.6812     3.9776     1.2662 C.3     
   9 O9             0.6618     5.4065     1.2741 O.3     
  10 P10            1.3361     6.2861     2.4418 P.3     
  11 C11           -0.7542     3.4480     1.2771 C.3     
  12 O12           -1.4231     3.9089     2.4528 O.3     
  13 P13           -2.7496     4.8201     2.4067 P.3     
  14 C14           -0.7334     1.9182     1.2687 C.3     
  15 O15           -2.0741     1.4236     1.2788 O.3     
  16 O16           -2.2665    -0.6597    -1.1538 O.3     
  17 O17           -0.1252    -0.4665    -2.4761 O.2     
  18 O18           -0.3473    -2.4413    -0.9198 O.3     
  19 C19            1.7475    -5.6262    -0.3004 C.2     
  20 O20            1.0467    -6.2449     0.4652 O.2     
  21 C21           -0.8105    -8.3168    -2.3450 C.2     
  22 O22           -1.3984    -8.1925    -3.3933 O.2     
  23 C23           -0.7189    -3.4687    -1.8410 C.3     
  24 C24            3.2477    -5.7128    -0.1863 C.3     
  25 C25           -0.4999    -9.6924    -1.8137 C.3     
  26 C26           -0.2608    -4.8259    -1.3033 C.3     
  27 O27            1.1898    -4.8618    -1.2524 O.3     
  28 C28            3.6183    -6.6429     0.9707 C.3     
  29 C29           -1.0337   -10.7469    -2.7854 C.3     
  30 C30           -0.7664    -5.9369    -2.2257 C.3     
  31 O31           -0.4340    -7.2295    -1.6538 O.3     
  32 O32            0.5611     6.0223     3.8281 O.3     
  33 O33            2.7577     5.9020     2.5905 O.2     
  34 O34            1.2391     7.8476     2.0615 O.3     
  35 C35            5.1414    -6.7308     1.0865 C.3     
  36 C36           -0.7184   -12.1435    -2.2459 C.3     
  37 O37           -3.9559     3.9789     1.7515 O.3     
  38 O38           -3.1517     5.2585     3.9028 O.3     
  39 O39           -2.4905     6.0278     1.5915 O.2     
  40 C40            5.5120    -7.6608     2.2435 C.3     
  41 C41           -1.2521   -13.1980    -3.2176 C.3     
  42 C42            7.0351    -7.7488     2.3593 C.3     
  43 C43           -0.9368   -14.5946    -2.6781 C.3     
  44 C44            7.4057    -8.6788     3.5163 C.3     
  45 C45           -1.4706   -15.6491    -3.6498 C.3     
  46 C46            8.9288    -8.7668     3.6321 C.3     
  47 C47           -1.1553   -17.0457    -3.1103 C.3     
  48 H48           -0.5445     1.7859    -0.8732 H       
  49 H49            1.9283     1.6028    -0.8978 H       
  50 H50            0.8701     3.8453    -0.8756 H       
  51 H51            1.2084     3.6165     2.1493 H       
  52 H52           -1.2814     3.8091     0.3940 H       
  53 H53           -0.2063     1.5571     2.1517 H       
  54 H54           -1.8020    -3.4730    -1.9630 H       
  55 H55           -0.2454    -3.2812    -2.8047 H       
  56 H56           -1.8479    -5.8550    -2.3342 H       
  57 H57           -0.2947    -5.8401    -3.2035 H       
  58 H58            3.6606    -6.1061    -1.1152 H       
  59 H59            3.2054    -6.2496     1.8996 H       
  60 H60            5.5543    -7.1241     0.1576 H       
  61 H61            5.0991    -7.2675     3.1724 H       
  62 H62            7.4480    -8.1421     1.4304 H       
  63 H63            6.9928    -8.2855     4.4452 H       
  64 H64            9.1928    -9.4293     4.4564 H       
  65 H65            3.6558    -4.7196     0.0009 H       
  66 H66            3.2102    -7.6361     0.7835 H       
  67 H67            5.5495    -5.7376     1.2737 H       
  68 H68            5.1039    -8.6541     2.0563 H       
  69 H69            7.4432    -6.7555     2.5465 H       
  70 H70            6.9976    -9.6720     3.3291 H       
  71 H71            9.3417    -9.1601     2.7032 H       
  72 H72            9.3369    -7.7735     3.8193 H       
  73 H73            0.5791    -9.8068    -1.7101 H       
  74 H74           -2.1127   -10.6324    -2.8890 H       
  75 H75            0.3606   -12.2579    -2.1423 H       
  76 H76           -2.3311   -13.0835    -3.3212 H       
  77 H77            0.1422   -14.7090    -2.5745 H       
  78 H78           -2.5496   -15.5346    -3.7534 H       
  79 H79           -1.6295   -17.1750    -2.1374 H       
  80 H80           -0.9741    -9.8217    -0.8408 H       
  81 H81           -0.5595   -10.6176    -3.7583 H       
  82 H82           -1.1926   -12.2728    -1.2730 H       
  83 H83           -0.7780   -13.0687    -4.1905 H       
  84 H84           -1.4110   -14.7239    -1.7052 H       
  85 H85           -0.9964   -15.5198    -4.6227 H       
  86 H86           -1.5355   -17.7969    -3.8026 H       
  87 H87           -0.0763   -17.1601    -3.0067 H       
  88 H88           -0.6633    -4.9743    -0.3012 H       
  89 H89            3.0274     1.7785     1.2157 H       
  90 H90            3.2525     3.7047    -0.7742 H       
  91 H91           -2.1373     0.4587     1.2742 H       
  92 H92           -0.3779     6.2522     3.8037 H       
  93 H93            1.6266     8.4381     2.7220 H       
  94 H94           -4.1807     3.1720     2.2347 H       
  95 H95           -3.9440     5.8109     3.9512 H       
  96 H96           -2.6930    -0.9126    -0.3236 H       
@<TRIPOS>BOND
   1    1    2 1
   2    1    4 1
   3    1   48 1
   4    1   14 1
   5    2    3 1
   6    3   16 1
   7    3   17 2
   8    3   18 1
   9    4    5 1
  10    4    6 1
  11    4   49 1
  12    5   89 1
  13    6    7 1
  14    6    8 1
  15    6   50 1
  16    7   90 1
  17    8    9 1
  18    8   11 1
  19    8   51 1
  20    9   10 1
  21   10   32 1
  22   10   33 2
  23   10   34 1
  24   11   12 1
  25   11   14 1
  26   11   52 1
  27   12   13 1
  28   13   37 1
  29   13   38 1
  30   13   39 2
  31   14   15 1
  32   14   53 1
  33   15   91 1
  34   16   96 1
  35   18   23 1
  36   19   20 2
  37   19   24 1
  38   19   27 1
  39   21   22 2
  40   21   25 1
  41   21   31 1
  42   23   26 1
  43   23   54 1
  44   23   55 1
  45   24   28 1
  46   24   58 1
  47   24   65 1
  48   25   29 1
  49   25   73 1
  50   25   80 1
  51   26   27 1
  52   26   30 1
  53   26   88 1
  54   28   35 1
  55   28   59 1
  56   28   66 1
  57   29   36 1
  58   29   74 1
  59   29   81 1
  60   30   31 1
  61   30   56 1
  62   30   57 1
  63   32   92 1
  64   34   93 1
  65   35   40 1
  66   35   60 1
  67   35   67 1
  68   36   41 1
  69   36   75 1
  70   36   82 1
  71   37   94 1
  72   38   95 1
  73   40   42 1
  74   40   61 1
  75   40   68 1
  76   41   43 1
  77   41   76 1
  78   41   83 1
  79   42   44 1
  80   42   62 1
  81   42   69 1
  82   43   45 1
  83   43   77 1
  84   43   84 1
  85   44   46 1
  86   44   63 1
  87   44   70 1
  88   45   47 1
  89   45   78 1
  90   45   85 1
  91   46   64 1
  92   46   71 1
  93   46   72 1
  94   47   79 1
  95   47   86 1
  96   47   87 1

#	End of record

