#	Name: ASD11000120
#	Creating user name:	WinNT
#	Creation time:	15. 06. 2019 21:28

#	Modifying user name:	WinNT
#	Modification time:	15. 06. 2019 21:28

#	Program:	/corina/corina34_cracker 3.40 0067  02.08.2006

@<TRIPOS>MOLECULE
ASD11000120
  30   31    0    0    0
SMALL
NO_CHARGES


@<TRIPOS>ATOM
   1 C1            -0.0173     1.4248     0.0099 C.3     
   2 O2             0.0021    -0.0041     0.0020 O.3     
   3 C3             2.0393     2.1942    -1.1973 C.ar    
   4 C4             1.3965     1.9464    -0.0008 C.ar    
   5 C5             2.0657     2.1831     1.1924 C.ar    
   6 C6             3.3623     2.6624     1.1384 C.ar    
   7 C7             3.9483     2.8896    -0.1024 C.ar    
   8 N8             3.2767     2.6517    -1.2186 N.ar    
   9 N9             5.2506     3.3710    -0.1713 N.pl3   
  10 C10            5.9994     3.6368     1.0594 C.3     
  11 C11            7.3738     4.1474     0.7109 C.ar    
  12 C12            7.5890     5.5047     0.5609 C.ar    
  13 C13            8.8503     5.9737     0.2415 C.ar    
  14 C14            9.8970     5.0829     0.0721 C.ar    
  15 C15            9.6799     3.7254     0.2226 C.ar    
  16 C16            8.4197     3.2587     0.5470 C.ar    
  17 Cl17          11.4807     5.6699    -0.3293 Cl      
  18 Cl18           9.1210     7.6780     0.0525 Cl      
  19 H19           -0.5445     1.7859    -0.8732 H       
  20 H20           -0.5275     1.7763     0.9067 H       
  21 H21           -0.8759    -0.4094     0.0082 H       
  22 H22            1.5241     2.0072    -2.1279 H       
  23 H23            1.5846     1.9976     2.1414 H       
  24 H24            3.9119     2.8578     2.0474 H       
  25 H25            5.6635     3.5310    -1.0344 H       
  26 H26            5.4726     4.3859     1.6506 H       
  27 H27            6.0892     2.7162     1.6361 H       
  28 H28            6.7722     6.1988     0.6928 H       
  29 H29           10.4958     3.0301     0.0906 H       
  30 H30            8.2514     2.1988     0.6685 H       
@<TRIPOS>BOND
   1    1    2 1
   2    1    4 1
   3    1   19 1
   4    1   20 1
   5    2   21 1
   6    3    4 ar
   7    3    8 ar
   8    3   22 1
   9    4    5 ar
  10    5    6 ar
  11    5   23 1
  12    6    7 ar
  13    6   24 1
  14    7    8 ar
  15    7    9 1
  16    9   10 1
  17    9   25 1
  18   10   11 1
  19   10   26 1
  20   10   27 1
  21   11   12 ar
  22   11   16 ar
  23   12   13 ar
  24   12   28 1
  25   13   14 ar
  26   13   18 1
  27   14   15 ar
  28   14   17 1
  29   15   16 ar
  30   15   29 1
  31   16   30 1

#	End of record

