#	Name: ASD13370003
#	Creating user name:	WinNT
#	Creation time:	15. 06. 2019 21:30

#	Modifying user name:	WinNT
#	Modification time:	15. 06. 2019 21:30

#	Program:	/corina/corina34_cracker 3.40 0067  02.08.2006

@<TRIPOS>MOLECULE
ASD13370003
  76   78    0    0    0
SMALL
NO_CHARGES


@<TRIPOS>ATOM
   1 C1             5.3910     3.2498     0.6717 C.3     
   2 C2             5.4232     1.7762     0.2654 C.3     
   3 C3             5.8994     0.9117     1.4331 C.3     
   4 C4             7.3297     1.3213     1.8167 C.3     
   5 C5             6.8107     3.7052     1.0422 C.3     
   6 C6             8.2021     1.1962     0.5865 C.2     
   7 C7             8.3307     2.2678    -0.3056 C.2     
   8 C8             7.7149     3.4496    -0.1416 C.2     
   9 C9             7.2880     2.8025     2.1723 C.2     
  10 O10            7.6057     3.2247     3.2582 O.2     
  11 C11            9.2093     2.0848    -1.5162 C.3     
  12 C12           10.6348     2.4167    -1.1573 C.2     
  13 C13           11.5833     1.5361    -1.3598 C.2     
  14 C14           11.2623     0.2224    -2.0248 C.3     
  15 C15           12.9953     1.8368    -0.9277 C.3     
  16 O16            8.7957     0.1583     0.3715 O.2     
  17 C17            4.9707     1.1157     2.6318 C.3     
  18 C18            5.8836    -0.5609     1.0183 C.3     
  19 C19            7.8558     0.4785     2.9499 C.2     
  20 O20            7.1612    -0.3902     3.4325 O.2     
  21 C21            9.2127     0.7100     3.4706 C.ar    
  22 C22            9.7045    -0.0700     4.5221 C.ar    
  23 C23           10.9768     0.1531     5.0045 C.ar    
  24 C24           11.7664     1.1461     4.4512 C.ar    
  25 C25           11.2869     1.9222     3.4104 C.ar    
  26 C26           10.0190     1.7073     2.9128 C.ar    
  27 C27            4.0185     1.3352    -0.1509 C.3     
  28 C28            6.8298     5.1594     1.4372 C.2     
  29 C29            7.9671     5.7488     1.7115 C.2     
  30 C30            9.2649     5.0058     1.5255 C.3     
  31 C31            7.9776     7.1698     2.2132 C.3     
  32 C32            3.6040     2.0838    -1.3914 C.2     
  33 C33            2.5272     2.8298    -1.3772 C.2     
  34 C34            1.7386     2.9903    -0.1031 C.3     
  35 C35            2.0772     3.5274    -2.6349 C.3     
  36 O36            7.9065     4.4257    -1.0492 O.3     
  37 H37            5.0224     3.8489    -0.1609 H       
  38 H38            4.7325     3.3760     1.5311 H       
  39 H39            6.1025     1.6494    -0.5776 H       
  40 H40            9.1512     1.0501    -1.8542 H       
  41 H41            8.8718     2.7469    -2.3135 H       
  42 H42           10.8744     3.3806    -0.7331 H       
  43 H43           11.2771     0.3500    -3.1072 H       
  44 H44           12.0048    -0.5217    -1.7364 H       
  45 H45           10.2730    -0.1112    -1.7117 H       
  46 H46           13.0326     2.8253    -0.4700 H       
  47 H47           13.3210     1.0891    -0.2045 H       
  48 H48           13.6538     1.8134    -1.7960 H       
  49 H49            3.9555     0.8286     2.3579 H       
  50 H50            5.3107     0.4992     3.4639 H       
  51 H51            4.9843     2.1647     2.9276 H       
  52 H52            6.5469    -0.7053     0.1656 H       
  53 H53            6.2231    -1.1767     1.8512 H       
  54 H54            4.8693    -0.8499     0.7427 H       
  55 H55            9.0893    -0.8447     4.9553 H       
  56 H56           11.3581    -0.4484     5.8164 H       
  57 H57           12.7619     1.3164     4.8339 H       
  58 H58           11.9090     2.6951     2.9839 H       
  59 H59            9.6479     2.3104     2.0974 H       
  60 H60            4.0196     0.2647    -0.3559 H       
  61 H61            3.3165     1.5502     0.6547 H       
  62 H62            5.9058     5.7157     1.4941 H       
  63 H63            9.5892     5.0949     0.4886 H       
  64 H64           10.0244     5.4312     2.1815 H       
  65 H65            9.1199     3.9539     1.7717 H       
  66 H66            7.9235     7.1712     3.3019 H       
  67 H67            8.8970     7.6609     1.8945 H       
  68 H68            7.1198     7.7052     1.8061 H       
  69 H69            4.1946     2.0052    -2.2922 H       
  70 H70            2.1799     3.7839     0.4998 H       
  71 H71            0.7073     3.2480    -0.3442 H       
  72 H72            1.7581     2.0552     0.4566 H       
  73 H73            2.7669     3.2945    -3.4462 H       
  74 H74            1.0761     3.1878    -2.9004 H       
  75 H75            2.0632     4.6044    -2.4679 H       
  76 H76            8.5486     4.2525    -1.7513 H       
@<TRIPOS>BOND
   1    1    2 1
   2    1    5 1
   3    1   37 1
   4    1   38 1
   5    2    3 1
   6    2   27 1
   7    2   39 1
   8    3    4 1
   9    3   17 1
  10    3   18 1
  11    4    6 1
  12    4   19 1
  13    4    9 1
  14    5    8 1
  15    5    9 1
  16    5   28 1
  17    6    7 1
  18    6   16 2
  19    7    8 2
  20    7   11 1
  21    8   36 1
  22    9   10 2
  23   11   12 1
  24   11   40 1
  25   11   41 1
  26   12   13 2
  27   12   42 1
  28   13   14 1
  29   13   15 1
  30   14   43 1
  31   14   44 1
  32   14   45 1
  33   15   46 1
  34   15   47 1
  35   15   48 1
  36   17   49 1
  37   17   50 1
  38   17   51 1
  39   18   52 1
  40   18   53 1
  41   18   54 1
  42   19   20 2
  43   19   21 1
  44   21   22 ar
  45   21   26 ar
  46   22   23 ar
  47   22   55 1
  48   23   24 ar
  49   23   56 1
  50   24   25 ar
  51   24   57 1
  52   25   26 ar
  53   25   58 1
  54   26   59 1
  55   27   32 1
  56   27   60 1
  57   27   61 1
  58   28   29 2
  59   28   62 1
  60   29   30 1
  61   29   31 1
  62   30   63 1
  63   30   64 1
  64   30   65 1
  65   31   66 1
  66   31   67 1
  67   31   68 1
  68   32   33 2
  69   32   69 1
  70   33   34 1
  71   33   35 1
  72   34   70 1
  73   34   71 1
  74   34   72 1
  75   35   73 1
  76   35   74 1
  77   35   75 1
  78   36   76 1

#	End of record

