#	Name: ASD10420044
#	Creating user name:	WinNT
#	Creation time:	15. 06. 2019 21:27

#	Modifying user name:	WinNT
#	Modification time:	15. 06. 2019 21:27

#	Program:	/corina/corina34_cracker 3.40 0067  02.08.2006

@<TRIPOS>MOLECULE
ASD10420044
  80   84    0    0    0
SMALL
NO_CHARGES


@<TRIPOS>ATOM
   1 N1             2.2489    -2.8943     1.8361 N.am    
   2 C2             1.8925    -3.5583     0.5744 C.3     
   3 C3             1.5342    -2.4844    -0.4604 C.3     
   4 N4             2.5962    -1.4686    -0.4700 N.am    
   5 C5             2.9527    -0.8046     0.7917 C.3     
   6 C6             3.3110    -1.8785     1.8265 C.3     
   7 C7             1.6094    -3.2073     2.9805 C.2     
   8 O8             0.7294    -4.0452     2.9751 O.2     
   9 O9             1.9457    -2.5915     4.1296 O.3     
  10 C10            3.2322    -1.1520    -1.6153 C.2     
  11 O11            2.9963    -1.7744    -2.6347 O.2     
  12 C12            6.1286     1.0867    -1.4853 C.2     
  13 C13            5.5586    -0.1799    -1.3590 C.2     
  14 C14            4.2064    -0.0602    -1.6335 C.2     
  15 N15            3.9310     1.2560    -1.9267 N.pl3   
  16 C16            2.7585     1.8764    -2.2597 C.2     
  17 C17            2.7183     3.1990    -2.5101 C.2     
  18 C18            3.9011     3.9740    -2.4320 C.2     
  19 C19            5.0938     3.3511    -2.0949 C.2     
  20 C20            5.0956     1.9733    -1.8410 C.2     
  21 C21            7.5530     1.4345    -1.2776 C.ar    
  22 C22            8.3376     1.8467    -2.3549 C.ar    
  23 C23            9.6640     2.1698    -2.1549 C.ar    
  24 C24           10.2161     2.0857    -0.8891 C.ar    
  25 C25            9.4433     1.6771     0.1833 C.ar    
  26 C26            8.1142     1.3568    -0.0028 C.ar    
  27 C27            3.8653     5.4246    -2.7062 C.2     
  28 N28            2.7013     6.0200    -3.0334 N.am    
  29 O29            4.8858     6.0818    -2.6367 O.2     
  30 C30            2.6657     7.4591    -3.3053 C.3     
  31 C31            6.2830    -1.4492    -0.9913 C.3     
  32 C32            6.7338    -2.1517    -2.2460 C.ar    
  33 C33            8.0622    -2.1045    -2.6250 C.ar    
  34 C34            8.4760    -2.7504    -3.7774 C.ar    
  35 C35            7.5584    -3.4432    -4.5492 C.ar    
  36 C36            6.2309    -3.4890    -4.1683 C.ar    
  37 C37            5.8197    -2.8479    -3.0143 C.ar    
  38 C38            9.0595    -1.3498    -1.7843 C.3     
  39 F39            9.7741    -2.7046    -4.1490 F       
  40 C40            1.2150    -2.9786     5.3231 C.3     
  41 C41            1.4173    -4.4727     5.5829 C.3     
  42 C42            1.7325    -2.1782     6.5200 C.3     
  43 C43           -0.2749    -2.6926     5.1242 C.3     
  44 H44            2.7400    -4.1429     0.2165 H       
  45 H45            1.0353    -4.2123     0.7346 H       
  46 H46            1.4545    -2.9397    -1.4475 H       
  47 H47            0.5857    -2.0194    -0.1916 H       
  48 H48            3.8098    -0.1506     0.6315 H       
  49 H49            2.1052    -0.2201     1.1496 H       
  50 H50            3.3907    -1.4232     2.8136 H       
  51 H51            4.2595    -2.3435     1.5577 H       
  52 H52            1.8499     1.2961    -2.3231 H       
  53 H53            1.7821     3.6697    -2.7714 H       
  54 H54            6.0091     3.9207    -2.0293 H       
  55 H55            7.9078     1.9124    -3.3435 H       
  56 H56           10.2725     2.4886    -2.9882 H       
  57 H57           11.2548     2.3396    -0.7376 H       
  58 H58            9.8803     1.6128     1.1689 H       
  59 H59            7.5108     1.0424     0.8359 H       
  60 H60            1.8871     5.4957    -3.0888 H       
  61 H61            3.0014     8.0040    -2.4230 H       
  62 H62            3.3229     7.6866    -4.1446 H       
  63 H63            1.6465     7.7574    -3.5507 H       
  64 H64            7.1513    -1.2074    -0.3784 H       
  65 H65            5.6127    -2.1008    -0.4309 H       
  66 H66            7.8800    -3.9472    -5.4486 H       
  67 H67            5.5151    -4.0292    -4.7701 H       
  68 H68            4.7828    -2.8880    -2.7151 H       
  69 H69            9.4663    -2.0126    -1.0206 H       
  70 H70            9.8683    -0.9866    -2.4185 H       
  71 H71            8.5653    -0.5042    -1.3058 H       
  72 H72            2.4786    -4.6764     5.7246 H       
  73 H73            0.8687    -4.7633     6.4789 H       
  74 H74            1.0486    -5.0429     4.7302 H       
  75 H75            1.5884    -1.1137     6.3349 H       
  76 H76            1.1840    -2.4687     7.4160 H       
  77 H77            2.7939    -2.3819     6.6617 H       
  78 H78           -0.6436    -3.2629     4.2715 H       
  79 H79           -0.8234    -2.9832     6.0202 H       
  80 H80           -0.4190    -1.6282     4.9391 H       
@<TRIPOS>BOND
   1    1    2 1
   2    1    6 1
   3    1    7 am
   4    2    3 1
   5    2   44 1
   6    2   45 1
   7    3    4 1
   8    3   46 1
   9    3   47 1
  10    4    5 1
  11    4   10 am
  12    5    6 1
  13    5   48 1
  14    5   49 1
  15    6   50 1
  16    6   51 1
  17    7    8 2
  18    7    9 1
  19    9   40 1
  20   10   11 2
  21   10   14 1
  22   12   13 1
  23   12   20 2
  24   12   21 1
  25   13   14 2
  26   13   31 1
  27   14   15 1
  28   15   16 1
  29   15   20 1
  30   16   17 2
  31   16   52 1
  32   17   18 1
  33   17   53 1
  34   18   19 2
  35   18   27 1
  36   19   20 1
  37   19   54 1
  38   21   22 ar
  39   21   26 ar
  40   22   23 ar
  41   22   55 1
  42   23   24 ar
  43   23   56 1
  44   24   25 ar
  45   24   57 1
  46   25   26 ar
  47   25   58 1
  48   26   59 1
  49   27   28 am
  50   27   29 2
  51   28   30 1
  52   28   60 1
  53   30   61 1
  54   30   62 1
  55   30   63 1
  56   31   32 1
  57   31   64 1
  58   31   65 1
  59   32   33 ar
  60   32   37 ar
  61   33   34 ar
  62   33   38 1
  63   34   35 ar
  64   34   39 1
  65   35   36 ar
  66   35   66 1
  67   36   37 ar
  68   36   67 1
  69   37   68 1
  70   38   69 1
  71   38   70 1
  72   38   71 1
  73   40   41 1
  74   40   43 1
  75   40   42 1
  76   41   72 1
  77   41   73 1
  78   41   74 1
  79   42   75 1
  80   42   76 1
  81   42   77 1
  82   43   78 1
  83   43   79 1
  84   43   80 1

#	End of record

