#	Name: ASD10340016
#	Creating user name:	WinNT
#	Creation time:	15. 06. 2019 21:26

#	Modifying user name:	WinNT
#	Modification time:	15. 06. 2019 21:26

#	Program:	/corina/corina34_cracker 3.40 0067  02.08.2006

@<TRIPOS>MOLECULE
ASD10340016
  70   74    0    0    0
SMALL
NO_CHARGES


@<TRIPOS>ATOM
   1 C1            -0.0182     1.4108    -0.0708 C.ar    
   2 C2             0.0140     0.0160     0.0497 C.ar    
   3 C3             1.2143    -0.6355     0.0524 C.ar    
   4 C4             2.4160     0.0765    -0.0638 C.ar    
   5 C5             2.4115     1.4488    -0.1831 C.ar    
   6 C6             1.1920     2.1371    -0.1891 C.ar    
   7 N7             1.1353     3.4736    -0.3040 N.ar    
   8 C8            -0.0283     4.0948    -0.3061 C.ar    
   9 N9            -1.1871     3.4513    -0.1969 N.ar    
  10 C10           -1.2371     2.1315    -0.0846 C.ar    
  11 C11           -4.8537     1.6156    -0.1646 C.ar    
  12 C12           -3.6330     2.2109     0.1367 C.ar    
  13 C13           -3.5935     3.5346     0.5521 C.ar    
  14 C14           -4.7657     4.2576     0.6655 C.ar    
  15 C15           -5.9788     3.6639     0.3659 C.ar    
  16 C16           -6.0230     2.3441    -0.0488 C.ar    
  17 N17           -0.0440     5.4734    -0.4265 N.3     
  18 C18            1.3196     6.0077    -0.5349 C.3     
  19 C19            1.2722     7.5372    -0.5197 C.3     
  20 C20            0.4169     8.0282    -1.6911 C.3     
  21 C21           -0.9835     7.4189    -1.5809 C.3     
  22 C22           -0.8707     5.8928    -1.5653 C.3     
  23 O23            1.2439    -1.9904     0.1695 O.3     
  24 O24            3.5976    -0.5938    -0.0581 O.3     
  25 C25           -0.0136    -2.6592     0.2848 C.3     
  26 C26            4.7876     0.1881    -0.1798 C.3     
  27 N27            0.3199     9.4894    -1.6478 N.am    
  28 C28            0.7716    10.2256    -2.6823 C.2     
  29 C29            0.6718    11.7287    -2.6378 C.3     
  30 O30            1.2584     9.6786    -3.6492 O.2     
  31 C31           -0.2680    10.1502    -0.4799 C.3     
  32 N32            1.5956    12.3221    -3.6219 N.3     
  33 C33            0.8042    13.0881    -4.6082 C.3     
  34 C34           -0.5070    13.4507    -3.8674 C.3     
  35 C35           -0.7548    12.1718    -3.0248 C.3     
  36 H36            0.9155    12.0868    -1.6376 H       
  37 N37           -2.4471     1.4763     0.0216 N.pl3   
  38 F38           -4.8960     0.3290    -0.5747 F       
  39 Cl39          -7.4487     4.5760     0.5110 Cl      
  40 H40           -0.9062    -0.5420     0.1404 H       
  41 H41            3.3419     1.9901    -0.2714 H       
  42 H42           -2.6473     3.9991     0.7870 H       
  43 H43           -4.7347     5.2876     0.9888 H       
  44 H44           -6.9714     1.8832    -0.2823 H       
  45 H45            1.9160     5.6544     0.3062 H       
  46 H46            1.7698     5.6675    -1.4675 H       
  47 H47            0.8346     7.8785     0.4185 H       
  48 H48            2.2830     7.9336    -0.6159 H       
  49 H49            0.8752     7.7203    -2.6309 H       
  50 H50           -1.4565     7.7583    -0.6594 H       
  51 H51           -1.5842     7.7308    -2.4352 H       
  52 H52           -0.4102     5.5532    -2.4931 H       
  53 H53           -1.8651     5.4561    -1.4726 H       
  54 H54           -0.5363    -2.3000     1.1713 H       
  55 H55           -0.6164    -2.4548    -0.6001 H       
  56 H56            0.1525    -3.7330     0.3712 H       
  57 H57            4.8462     0.8921     0.6502 H       
  58 H58            5.6573    -0.4687    -0.1614 H       
  59 H59            4.7668     0.7372    -1.1212 H       
  60 H60            0.5138    10.3626     0.2493 H       
  61 H61           -0.7395    11.0830    -0.7893 H       
  62 H62           -1.0158     9.4966    -0.0308 H       
  63 H63            2.2770    12.9121    -3.1683 H       
  64 H64            1.3368    13.9927    -4.9017 H       
  65 H65            0.5889    12.4731    -5.4820 H       
  66 H66           -0.3652    14.3199    -3.2253 H       
  67 H67           -1.3209    13.6170    -4.5731 H       
  68 H68           -1.2474    11.4054    -3.6233 H       
  69 H69           -1.3409    12.4037    -2.1355 H       
  70 H70           -2.4757     0.5068     0.0164 H       
@<TRIPOS>BOND
   1    1    2 ar
   2    1    6 ar
   3    1   10 ar
   4    2    3 ar
   5    2   40 1
   6    3    4 ar
   7    3   23 1
   8    4    5 ar
   9    4   24 1
  10    5    6 ar
  11    5   41 1
  12    6    7 ar
  13    7    8 ar
  14    8    9 ar
  15    8   17 1
  16    9   10 ar
  17   10   37 1
  18   11   12 ar
  19   11   16 ar
  20   11   38 1
  21   12   13 ar
  22   12   37 1
  23   13   14 ar
  24   13   42 1
  25   14   15 ar
  26   14   43 1
  27   15   16 ar
  28   15   39 1
  29   16   44 1
  30   17   18 1
  31   17   22 1
  32   18   19 1
  33   18   45 1
  34   18   46 1
  35   19   20 1
  36   19   47 1
  37   19   48 1
  38   20   21 1
  39   20   27 1
  40   20   49 1
  41   21   22 1
  42   21   50 1
  43   21   51 1
  44   22   52 1
  45   22   53 1
  46   23   25 1
  47   24   26 1
  48   25   54 1
  49   25   55 1
  50   25   56 1
  51   26   57 1
  52   26   58 1
  53   26   59 1
  54   27   28 am
  55   27   31 1
  56   28   30 2
  57   28   29 1
  58   29   32 1
  59   29   35 1
  60   29   36 1
  61   31   60 1
  62   31   61 1
  63   31   62 1
  64   32   33 1
  65   32   63 1
  66   33   34 1
  67   33   64 1
  68   33   65 1
  69   34   35 1
  70   34   66 1
  71   34   67 1
  72   35   68 1
  73   35   69 1
  74   37   70 1

#	End of record

