#	Name: ASD10160346
#	Creating user name:	WinNT
#	Creation time:	15. 06. 2019 21:25

#	Modifying user name:	WinNT
#	Modification time:	15. 06. 2019 21:25

#	Program:	/corina/corina34_cracker 3.40 0067  02.08.2006

@<TRIPOS>MOLECULE
ASD10160346
  19   20    0    0    0
SMALL
NO_CHARGES


@<TRIPOS>ATOM
   1 C1            -0.0167     1.3834     0.0096 C.ar    
   2 C2             0.0021    -0.0041     0.0020 C.ar    
   3 C3             1.2267    -0.6631    -0.0133 C.ar    
   4 C4             2.3851     0.0993    -0.0203 C.ar    
   5 C5             2.2850     1.4791    -0.0119 C.ar    
   6 N6             1.1072     2.0719     0.0026 N.ar    
   7 O7            -1.1599    -0.7091     0.0098 O.3     
   8 C8             3.5385     2.3156    -0.0194 C.3     
   9 C9             3.7382     3.2785    -1.1916 C.3     
  10 C10            3.3833     3.8227     0.1936 C.3     
  11 Cl11           3.9420    -0.6684    -0.0388 Cl      
  12 H12           -0.9625     1.9047     0.0170 H       
  13 H13            1.2743    -1.7420    -0.0192 H       
  14 H14           -1.5049    -0.9084    -0.8713 H       
  15 H15            4.4256     1.8370     0.3955 H       
  16 H16            4.7567     3.4337    -1.5475 H       
  17 H17            2.9629     3.3069    -1.9573 H       
  18 H18            2.3746     4.2092     0.3392 H       
  19 H19            4.1683     4.3360     0.7490 H       
@<TRIPOS>BOND
   1    1    2 ar
   2    1    6 ar
   3    1   12 1
   4    2    3 ar
   5    2    7 1
   6    3    4 ar
   7    3   13 1
   8    4    5 ar
   9    4   11 1
  10    5    6 ar
  11    5    8 1
  12    7   14 1
  13    8    9 1
  14    8   10 1
  15    8   15 1
  16    9   10 1
  17    9   16 1
  18    9   17 1
  19   10   18 1
  20   10   19 1

#	End of record

