#	Name: ASD14420001
#	Creating user name:	WinNT
#	Creation time:	15. 06. 2019 21:31

#	Modifying user name:	WinNT
#	Modification time:	15. 06. 2019 21:31

#	Program:	/corina/corina34_cracker 3.40 0067  02.08.2006

@<TRIPOS>MOLECULE
ASD14420001
  38   38    0    0    0
SMALL
NO_CHARGES


@<TRIPOS>ATOM
   1 C1            -0.0167     1.3795     0.0096 C.ar    
   2 C2             0.0021    -0.0041     0.0020 C.ar    
   3 C3             1.2041    -0.6806    -0.0131 C.ar    
   4 C4             2.4037     0.0340    -0.0207 C.ar    
   5 C5             2.3774     1.4300    -0.0129 C.ar    
   6 C6             1.1683     2.0938     0.0021 C.ar    
   7 C7             3.6948    -0.6838    -0.0363 C.2     
   8 O8             3.7145    -1.8983    -0.0426 O.2     
   9 O9             4.8503     0.0087    -0.0436 O.3     
  10 S10           -1.5567     2.2356     0.0215 S.o2    
  11 O11           -1.3027     3.5258    -0.5171 O.2     
  12 O12           -2.5172     1.3412    -0.5232 O.2     
  13 N13           -1.9777     2.4651     1.6066 N.am    
  14 C14           -1.5474     3.6756     2.3108 C.3     
  15 C15           -2.7803     1.4578     2.3046 C.3     
  16 C16           -2.6575     4.7263     2.2440 C.3     
  17 C17           -2.2082     5.9904     2.9795 C.3     
  18 C18           -1.8552     0.5079     3.0680 C.3     
  19 C19           -2.6935    -0.5441     3.7970 C.3     
  20 H20           -0.9265    -0.5555     0.0083 H       
  21 H21            1.2174    -1.7605    -0.0186 H       
  22 H22            3.3016     1.9887    -0.0184 H       
  23 H23            1.1465     3.1736     0.0081 H       
  24 H24            5.6697    -0.5047    -0.0539 H       
  25 H25           -1.3376     3.4344     3.3529 H       
  26 H26           -0.6462     4.0687     1.8404 H       
  27 H27           -3.4531     1.9514     3.0059 H       
  28 H28           -3.3638     0.8914     1.5788 H       
  29 H29           -2.8673     4.9674     1.2019 H       
  30 H30           -3.5587     4.3332     2.7145 H       
  31 H31           -1.9984     5.7493     4.0216 H       
  32 H32           -1.3070     6.3836     2.5090 H       
  33 H33           -2.9990     6.7390     2.9319 H       
  34 H34           -1.1824     0.0143     2.3668 H       
  35 H35           -1.2717     1.0743     3.7939 H       
  36 H36           -3.3663    -0.0505     4.4983 H       
  37 H37           -3.2770    -1.1105     3.0712 H       
  38 H38           -2.0344    -1.2208     4.3409 H       
@<TRIPOS>BOND
   1    1    2 ar
   2    1    6 ar
   3    1   10 1
   4    2    3 ar
   5    2   20 1
   6    3    4 ar
   7    3   21 1
   8    4    5 ar
   9    4    7 1
  10    5    6 ar
  11    5   22 1
  12    6   23 1
  13    7    8 2
  14    7    9 1
  15    9   24 1
  16   10   11 2
  17   10   12 2
  18   10   13 am
  19   13   14 1
  20   13   15 1
  21   14   16 1
  22   14   25 1
  23   14   26 1
  24   15   18 1
  25   15   27 1
  26   15   28 1
  27   16   17 1
  28   16   29 1
  29   16   30 1
  30   17   31 1
  31   17   32 1
  32   17   33 1
  33   18   19 1
  34   18   34 1
  35   18   35 1
  36   19   36 1
  37   19   37 1
  38   19   38 1

#	End of record

