#	Name: ASD10220053
#	Creating user name:	WinNT
#	Creation time:	15. 06. 2019 21:26

#	Modifying user name:	WinNT
#	Modification time:	15. 06. 2019 21:26

#	Program:	/corina/corina34_cracker 3.40 0067  02.08.2006

@<TRIPOS>MOLECULE
ASD10220053
  36   39    0    0    0
SMALL
NO_CHARGES


@<TRIPOS>ATOM
   1 C1             0.1252     1.5377     0.4921 C.2     
   2 C2             0.1509     0.0606     0.3982 C.ar    
   3 C3            -1.0175    -0.6874     0.6715 C.ar    
   4 C4            -2.2557     0.0353     1.0135 C.2     
   5 C5            -2.3498     1.4237     0.8662 C.2     
   6 C6            -1.2216     2.2189     0.3758 C.2     
   7 O7            -3.4223    -0.4031     1.4806 O.3     
   8 C8            -4.2907     0.6051     1.6519 C.2     
   9 C9            -3.6977     1.7850     1.2898 C.2     
  10 O10           -1.3550     3.3310    -0.0939 O.2     
  11 O11            1.1427     2.1767     0.6608 O.2     
  12 C12           -4.2936     3.1304     1.3208 C.2     
  13 O13           -4.9384     3.5320     0.3708 O.2     
  14 C14           -4.1085     3.9932     2.5060 C.ar    
  15 C15            1.3222    -0.6043     0.0442 C.ar    
  16 C16           -0.9823    -2.0738     0.6037 C.ar    
  17 C17           -4.5787     5.3084     2.4961 C.ar    
  18 C18           -4.4034     6.1084     3.6053 C.ar    
  19 C19           -3.7621     5.6104     4.7277 C.ar    
  20 C20           -3.2935     4.3068     4.7436 C.ar    
  21 C21           -3.4678     3.4951     3.6428 C.ar    
  22 C22            0.1946    -2.7162     0.2551 C.ar    
  23 C23            1.3356    -1.9861    -0.0255 C.ar    
  24 C24           -5.7008     0.4613     2.1638 C.3     
  25 Cl25          -3.5442     6.6243     6.1199 Cl      
  26 H26            2.2180    -0.0426    -0.1757 H       
  27 H27           -1.8695    -2.6495     0.8223 H       
  28 H28           -5.0782     5.6980     1.6214 H       
  29 H29           -4.7665     7.1255     3.5989 H       
  30 H30           -2.7944     3.9242     5.6216 H       
  31 H31           -3.1024     2.4789     3.6565 H       
  32 H32            0.2215    -3.7946     0.2020 H       
  33 H33            2.2447    -2.4992    -0.3021 H       
  34 H34           -5.9357    -0.5956     2.2896 H       
  35 H35           -5.7928     0.9706     3.1231 H       
  36 H36           -6.3939     0.9050     1.4490 H       
@<TRIPOS>BOND
   1    1    2 1
   2    1   11 2
   3    1    6 1
   4    2    3 ar
   5    2   15 ar
   6    3    4 1
   7    3   16 ar
   8    4    5 2
   9    4    7 1
  10    5    6 1
  11    5    9 1
  12    6   10 2
  13    7    8 1
  14    8    9 2
  15    8   24 1
  16    9   12 1
  17   12   13 2
  18   12   14 1
  19   14   17 ar
  20   14   21 ar
  21   15   23 ar
  22   15   26 1
  23   16   22 ar
  24   16   27 1
  25   17   18 ar
  26   17   28 1
  27   18   19 ar
  28   18   29 1
  29   19   20 ar
  30   19   25 1
  31   20   21 ar
  32   20   30 1
  33   21   31 1
  34   22   23 ar
  35   22   32 1
  36   23   33 1
  37   24   34 1
  38   24   35 1
  39   24   36 1

#	End of record

