#	Name: ASD11030034
#	Creating user name:	WinNT
#	Creation time:	15. 06. 2019 21:29

#	Modifying user name:	WinNT
#	Modification time:	15. 06. 2019 21:29

#	Program:	/corina/corina34_cracker 3.40 0067  02.08.2006

@<TRIPOS>MOLECULE
ASD11030034
  79   84    0    0    0
SMALL
NO_CHARGES


@<TRIPOS>ATOM
   1 C1             2.7475     4.0543    -5.9903 C.ar    
   2 C2             1.7746     3.1450    -5.5998 C.ar    
   3 C3             1.8771     2.5291    -4.3653 C.ar    
   4 N4             2.8836     2.7942    -3.5585 N.ar    
   5 C5             3.8356     3.6579    -3.8938 C.ar    
   6 C6             3.7946     4.3150    -5.1237 C.ar    
   7 C7             4.9472     3.9249    -2.9563 C.2     
   8 C8             5.4226     3.0510    -2.0334 C.2     
   9 C9             6.4818     3.6861    -1.3412 C.ar    
  10 C10            6.6147     4.9761    -1.8937 C.ar    
  11 N11            5.6655     5.0957    -2.8868 N.pl3   
  12 C12            7.3314     3.2789    -0.3024 C.ar    
  13 C13            8.2829     4.1286     0.1721 C.ar    
  14 C14            8.4225     5.4140    -0.3715 C.ar    
  15 C15            7.5873     5.8348    -1.4037 C.ar    
  16 C16            5.4510     6.2788    -3.7237 C.3     
  17 C17            4.9139     1.6537    -1.7888 C.3     
  18 C18            9.4588     6.3248     0.1528 C.2     
  19 N19           10.2683     5.9208     1.1517 N.am    
  20 O20            9.5821     7.4397    -0.3165 O.2     
  21 C21           11.3718     6.7777     1.5924 C.3     
  22 C22           10.8994     8.0668     2.2138 C.2     
  23 N23            9.7823     8.0819     2.9676 N.am    
  24 O24           11.5246     9.0907     2.0357 O.2     
  25 C25            9.3947     9.2539     3.6167 C.ar    
  26 C26            9.6834    10.4902     3.0471 C.ar    
  27 C27            9.3026    11.6494     3.6838 C.ar    
  28 C28            8.6237    11.5834     4.9064 C.ar    
  29 C29            8.3353    10.3370     5.4758 C.ar    
  30 C30            8.7153     9.1833     4.8295 C.ar    
  31 C31           12.4275     6.0396     2.4322 C.3     
  32 C32           13.4876     6.8540     1.6722 C.3     
  33 C33           12.4644     6.9712     0.5278 C.3     
  34 C34            8.2154    12.8182     5.5903 C.2     
  35 C35            8.4950    14.0196     5.0393 C.2     
  36 C36            6.0425     0.6338    -2.0206 C.3     
  37 C37            6.2517    -0.1037    -0.6818 C.3     
  38 C38            4.8997     0.0581     0.0563 C.3     
  39 C39            4.4767     1.5005    -0.3174 C.3     
  40 C40            8.4055     7.8413     5.4412 C.3     
  41 C41            8.1011    15.2111     5.6991 C.2     
  42 O42            7.5113    15.1516     6.7614 O.2     
  43 O43            8.3804    16.4110     5.1488 O.3     
  44 H44            2.6911     4.5444    -6.9511 H       
  45 H45            0.9448     2.9205    -6.2535 H       
  46 H46            1.1211     1.8213    -4.0589 H       
  47 H47            4.5688     5.0170    -5.3957 H       
  48 H48            7.2303     2.2907     0.1216 H       
  49 H49            8.9345     3.8111     0.9727 H       
  50 H50            7.6965     6.8251    -1.8205 H       
  51 H51            5.9965     6.1649    -4.6605 H       
  52 H52            4.3869     6.3872    -3.9338 H       
  53 H53            5.8100     7.1645    -3.1996 H       
  54 H54            4.0757     1.4404    -2.4523 H       
  55 H55           10.1202     5.0626     1.5790 H       
  56 H56            9.2477     7.2776     3.0587 H       
  57 H57           10.2075    10.5403     2.1041 H       
  58 H58            9.5274    12.6086     3.2412 H       
  59 H59            7.8121    10.2813     6.4190 H       
  60 H60           12.3790     6.2712     3.4962 H       
  61 H61           12.4736     4.9690     2.2327 H       
  62 H62           13.7254     7.8080     2.1428 H       
  63 H63           14.3747     6.2780     1.4087 H       
  64 H64           12.5202     6.1555    -0.1930 H       
  65 H65           12.4476     7.9537     0.0561 H       
  66 H66            7.6918    12.7653     6.5333 H       
  67 H67            9.0187    14.0725     4.0962 H       
  68 H68            5.7517    -0.0751    -2.7958 H       
  69 H69            6.9581     1.1494    -2.3099 H       
  70 H70            6.4672    -1.1578    -0.8566 H       
  71 H71            7.0557     0.3616    -0.1116 H       
  72 H72            4.1709    -0.6652    -0.3094 H       
  73 H73            5.0339    -0.0382     1.1338 H       
  74 H74            4.9940     2.2249     0.3117 H       
  75 H75            3.3968     1.6171    -0.2261 H       
  76 H76            7.4310     7.4993     5.0926 H       
  77 H77            9.1698     7.1223     5.1461 H       
  78 H78            8.3917     7.9316     6.5274 H       
  79 H79            8.0728    17.1644     5.6712 H       
@<TRIPOS>BOND
   1    1    2 ar
   2    1    6 ar
   3    1   44 1
   4    2    3 ar
   5    2   45 1
   6    3    4 ar
   7    3   46 1
   8    4    5 ar
   9    5    6 ar
  10    5    7 1
  11    6   47 1
  12    7    8 2
  13    7   11 1
  14    8    9 1
  15    8   17 1
  16    9   10 ar
  17    9   12 ar
  18   10   11 1
  19   10   15 ar
  20   11   16 1
  21   12   13 ar
  22   12   48 1
  23   13   14 ar
  24   13   49 1
  25   14   15 ar
  26   14   18 1
  27   15   50 1
  28   16   51 1
  29   16   52 1
  30   16   53 1
  31   17   36 1
  32   17   39 1
  33   17   54 1
  34   18   19 am
  35   18   20 2
  36   19   21 1
  37   19   55 1
  38   21   22 1
  39   21   31 1
  40   21   33 1
  41   22   23 am
  42   22   24 2
  43   23   25 1
  44   23   56 1
  45   25   26 ar
  46   25   30 ar
  47   26   27 ar
  48   26   57 1
  49   27   28 ar
  50   27   58 1
  51   28   29 ar
  52   28   34 1
  53   29   30 ar
  54   29   59 1
  55   30   40 1
  56   31   32 1
  57   31   60 1
  58   31   61 1
  59   32   33 1
  60   32   62 1
  61   32   63 1
  62   33   64 1
  63   33   65 1
  64   34   35 2
  65   34   66 1
  66   35   41 1
  67   35   67 1
  68   36   37 1
  69   36   68 1
  70   36   69 1
  71   37   38 1
  72   37   70 1
  73   37   71 1
  74   38   39 1
  75   38   72 1
  76   38   73 1
  77   39   74 1
  78   39   75 1
  79   40   76 1
  80   40   77 1
  81   40   78 1
  82   41   42 2
  83   41   43 1
  84   43   79 1

#	End of record

