#	Name: ASD10410082
#	Creating user name:	WinNT
#	Creation time:	15. 06. 2019 21:26

#	Modifying user name:	WinNT
#	Modification time:	15. 06. 2019 21:26

#	Program:	/corina/corina34_cracker 3.40 0067  02.08.2006

@<TRIPOS>MOLECULE
ASD10410082
  55   59    0    0    0
SMALL
NO_CHARGES


@<TRIPOS>ATOM
   1 C1            -0.0548     1.3774    -0.2342 C.ar    
   2 C2            -0.0206     0.0048    -0.0345 C.ar    
   3 C3             1.1905    -0.6311     0.2172 C.ar    
   4 C4             2.3591     0.1049     0.2681 C.ar    
   5 C5             2.3232     1.4790     0.0679 C.ar    
   6 C6             1.1138     2.1128    -0.1831 C.ar    
   7 F7             1.2244    -1.9676     0.4122 F       
   8 N8             3.5070     2.2252     0.1199 N.pl3   
   9 C9             3.6337     3.3853    -0.6427 C.2     
  10 N10            4.6484     4.2150    -0.6010 N.2     
  11 N11            2.7419     3.8263    -1.5379 N.2     
  12 C12            3.1710     4.9470    -2.0770 C.2     
  13 N13            4.3771     5.2419    -1.5196 N.pl3   
  14 C14            5.1794     6.3391    -1.8031 C.ar    
  15 N15            2.5163     5.6895    -3.0399 N.pl3   
  16 N16           -1.2062    -0.7406    -0.0859 N.3     
  17 C17           -2.1612    -0.2819     0.9325 C.3     
  18 C18           -3.4685    -1.0652     0.7916 C.3     
  19 N19           -3.1945    -2.5014     0.9396 N.3     
  20 C20           -2.2395    -2.9600    -0.0788 C.3     
  21 C21           -0.9321    -2.1768     0.0621 C.3     
  22 C22           -4.4373    -3.2828     0.8858 C.3     
  23 N23            4.6676     7.5608    -1.8559 N.ar    
  24 C24            5.4205     8.6153    -2.1249 C.ar    
  25 N25            6.7094     8.5314    -2.3559 N.ar    
  26 C26            7.3285     7.3422    -2.3271 C.ar    
  27 C27            6.5640     6.1837    -2.0372 C.ar    
  28 C28            8.7026     7.2172    -2.5685 C.ar    
  29 C29            9.2863     5.9820    -2.5272 C.ar    
  30 C30            8.5275     4.8363    -2.2465 C.ar    
  31 C31            7.1872     4.9293    -2.0013 C.ar    
  32 O32            9.1342     3.6199    -2.2127 O.3     
  33 O33           10.6191     5.8624    -2.7615 O.3     
  34 H34           -0.9946     1.8706    -0.4341 H       
  35 H35            3.2999    -0.3881     0.4638 H       
  36 H36            1.0865     3.1811    -0.3391 H       
  37 H37            4.2388     1.9349     0.6865 H       
  38 H38            1.6568     5.3943    -3.3788 H       
  39 H39            2.9161     6.5064    -3.3773 H       
  40 H40           -1.7425    -0.4487     1.9250 H       
  41 H41           -2.3576     0.7813     0.7943 H       
  42 H42           -4.1682    -0.7470     1.5645 H       
  43 H43           -3.9012    -0.8769    -0.1909 H       
  44 H44           -2.0431    -4.0233     0.0594 H       
  45 H45           -2.6581    -2.7933    -1.0713 H       
  46 H46           -0.2325    -2.4950    -0.7107 H       
  47 H47           -0.4995    -2.3651     1.0447 H       
  48 H48           -4.9289    -3.1178    -0.0729 H       
  49 H49           -4.2056    -4.3420     0.9978 H       
  50 H50           -5.0994    -2.9684     1.6925 H       
  51 H51            4.9531     9.5884    -2.1562 H       
  52 H52            9.2974     8.0919    -2.7864 H       
  53 H53            6.6109     4.0417    -1.7860 H       
  54 H54            9.4710     3.3724    -1.3407 H       
  55 H55           11.1659     5.9327    -1.9671 H       
@<TRIPOS>BOND
   1    1    2 ar
   2    1    6 ar
   3    1   34 1
   4    2    3 ar
   5    2   16 1
   6    3    4 ar
   7    3    7 1
   8    4    5 ar
   9    4   35 1
  10    5    6 ar
  11    5    8 1
  12    6   36 1
  13    8    9 1
  14    8   37 1
  15    9   10 2
  16    9   11 1
  17   10   13 1
  18   11   12 2
  19   12   13 1
  20   12   15 1
  21   13   14 1
  22   14   23 ar
  23   14   27 ar
  24   15   38 1
  25   15   39 1
  26   16   17 1
  27   16   21 1
  28   17   18 1
  29   17   40 1
  30   17   41 1
  31   18   19 1
  32   18   42 1
  33   18   43 1
  34   19   20 1
  35   19   22 1
  36   20   21 1
  37   20   44 1
  38   20   45 1
  39   21   46 1
  40   21   47 1
  41   22   48 1
  42   22   49 1
  43   22   50 1
  44   23   24 ar
  45   24   25 ar
  46   24   51 1
  47   25   26 ar
  48   26   27 ar
  49   26   28 ar
  50   27   31 ar
  51   28   29 ar
  52   28   52 1
  53   29   30 ar
  54   29   33 1
  55   30   31 ar
  56   30   32 1
  57   31   53 1
  58   32   54 1
  59   33   55 1

#	End of record

