#	Name: ASD13110094
#	Creating user name:	WinNT
#	Creation time:	15. 06. 2019 21:30

#	Modifying user name:	WinNT
#	Modification time:	15. 06. 2019 21:30

#	Program:	/corina/corina34_cracker 3.40 0067  02.08.2006

@<TRIPOS>MOLECULE
ASD13110094
  45   48    0    0    0
SMALL
NO_CHARGES


@<TRIPOS>ATOM
   1 C1            -0.0169     1.3930     0.0097 C.ar    
   2 C2             0.0021    -0.0041     0.0020 C.ar    
   3 C3             1.2343    -0.6793    -0.0134 C.ar    
   4 C4             2.4197     0.0423    -0.0208 C.ar    
   5 C5             2.3841     1.4204    -0.0131 C.ar    
   6 C6             1.1693     2.0928     0.0021 C.ar    
   7 N7             0.9300    -2.0266    -0.0173 N.pl3   
   8 C8            -0.4258    -2.1352    -0.0047 C.2     
   9 N9            -0.9691    -0.9531     0.0066 N.2     
  10 C10           -1.1877    -3.4354    -0.0034 C.3     
  11 N11           -1.5251    -3.8024     1.3742 N.am    
  12 C12           -2.7853    -3.3464     1.9660 C.3     
  13 C13           -0.6761    -4.5595     2.0971 C.2     
  14 O14            0.3671    -4.9370     1.6072 O.2     
  15 C15           -1.0232    -4.9370     3.5142 C.3     
  16 N16            0.0526    -5.7554     4.0789 N.am    
  17 C17            1.1067    -5.1759     4.7417 C.2     
  18 C18            2.0155    -6.0337     5.2056 C.2     
  19 S19            1.4605    -7.6476     4.7530 S.3     
  20 C20            0.0327    -7.0896     3.9682 C.2     
  21 C21            3.2664    -5.6874     5.9645 C.3     
  22 C22            3.5417    -4.1879     5.7944 C.3     
  23 C23            2.2481    -3.4152     6.0701 C.3     
  24 C24            1.2472    -3.6723     4.9425 C.3     
  25 O25           -0.8191    -7.7689     3.4230 O.2     
  26 Cl26           1.1456     3.8286     0.0111 Cl      
  27 H27           -0.9583     1.9222     0.0170 H       
  28 H28            3.3679    -0.4746    -0.0323 H       
  29 H29            3.3073     1.9808    -0.0189 H       
  30 H30            1.5654    -2.7595    -0.0276 H       
  31 H31           -2.1033    -3.3206    -0.5835 H       
  32 H32           -0.5720    -4.2177    -0.4474 H       
  33 H33           -3.5652    -4.0828     1.7720 H       
  34 H34           -2.6588    -3.2260     3.0419 H       
  35 H35           -3.0694    -2.3913     1.5243 H       
  36 H36           -1.1442    -4.0334     4.1116 H       
  37 H37           -1.9537    -5.5046     3.5214 H       
  38 H38            3.1287    -5.9167     7.0212 H       
  39 H39            4.1049    -6.2607     5.5692 H       
  40 H40            4.3115    -3.8753     6.4999 H       
  41 H41            3.8750    -3.9908     4.7755 H       
  42 H42            1.8217    -3.7472     7.0167 H       
  43 H43            2.4670    -2.3488     6.1251 H       
  44 H44            1.6082    -3.2132     4.0221 H       
  45 H45            0.2795    -3.2476     5.2093 H       
@<TRIPOS>BOND
   1    1    2 ar
   2    1    6 ar
   3    1   27 1
   4    2    9 1
   5    2    3 ar
   6    3    4 ar
   7    3    7 1
   8    4    5 ar
   9    4   28 1
  10    5    6 ar
  11    5   29 1
  12    6   26 1
  13    7    8 1
  14    7   30 1
  15    8   10 1
  16    8    9 2
  17   10   11 1
  18   10   31 1
  19   10   32 1
  20   11   12 1
  21   11   13 am
  22   12   33 1
  23   12   34 1
  24   12   35 1
  25   13   14 2
  26   13   15 1
  27   15   16 1
  28   15   36 1
  29   15   37 1
  30   16   17 1
  31   16   20 am
  32   17   24 1
  33   17   18 2
  34   18   19 1
  35   18   21 1
  36   19   20 1
  37   20   25 2
  38   21   22 1
  39   21   38 1
  40   21   39 1
  41   22   23 1
  42   22   40 1
  43   22   41 1
  44   23   24 1
  45   23   42 1
  46   23   43 1
  47   24   44 1
  48   24   45 1

#	End of record

