#	Name: ASD11000101
#	Creating user name:	WinNT
#	Creation time:	15. 06. 2019 21:28

#	Modifying user name:	WinNT
#	Modification time:	15. 06. 2019 21:28

#	Program:	/corina/corina34_cracker 3.40 0067  02.08.2006

@<TRIPOS>MOLECULE
ASD11000101
  54   58    0    0    0
SMALL
NO_CHARGES


@<TRIPOS>ATOM
   1 C1             0.0991     1.2916     0.1354 C.3     
   2 C2            -0.4214    -0.1184    -0.1508 C.3     
   3 N3             0.0297    -0.5448    -1.4797 N.am    
   4 C4             0.1058    -1.0698     0.8942 C.ar    
   5 C5             0.6854    -2.2758     0.5671 C.ar    
   6 C6            -0.0102    -0.6948     2.2259 C.ar    
   7 C7             1.1381    -3.1168     1.5766 C.ar    
   8 C8             1.0225    -2.7502     2.9045 C.ar    
   9 C9             0.4449    -1.5261     3.2328 C.ar    
  10 C10           -0.0658    -1.9793    -1.7974 C.3     
  11 C11            0.8723    -2.7327    -0.8560 C.3     
  12 C12            0.5119     0.3407    -2.3741 C.2     
  13 O13            0.4708     1.5314    -2.1331 O.2     
  14 C14            1.0908    -0.1361    -3.6482 C.ar    
  15 C15            1.0425     0.6715    -4.7856 C.ar    
  16 O16            1.5275     1.2896     0.0938 O.3     
  17 C17            2.1536     2.4736     0.3286 C.ar    
  18 C18            3.5386     2.5427     0.3035 C.ar    
  19 C19            1.4070     3.6134     0.5878 C.ar    
  20 C20            2.0430     4.8162     0.8264 C.ar    
  21 C21            3.4282     4.8839     0.8073 C.ar    
  22 C22            4.1746     3.7454     0.5421 C.ar    
  23 O23            4.0543     6.0682     1.0413 O.3     
  24 C24            5.4828     6.0648     1.0062 C.3     
  25 C25            1.6928    -1.3933    -3.7173 C.ar    
  26 C26            2.2313    -1.8330    -4.9092 C.ar    
  27 C27            2.1761    -1.0308    -6.0346 C.ar    
  28 C28            1.5849     0.2201    -5.9722 C.ar    
  29 Cl29           1.5204     1.2196    -7.3901 Cl      
  30 O30            0.4474    -1.3924     4.5912 O.3     
  31 C31            1.3973    -2.3621     5.0713 C.3     
  32 O32            1.3837    -3.3848     4.0579 O.3     
  33 H33           -0.2853     1.9804    -0.6168 H       
  34 H34           -0.2352     1.6087     1.1232 H       
  35 H35           -1.5110    -0.1158    -0.1213 H       
  36 H36           -0.4594     0.2545     2.4775 H       
  37 H37            1.5845    -4.0665     1.3211 H       
  38 H38           -1.0899    -2.3223    -1.6497 H       
  39 H39            0.2350    -2.1489    -2.8313 H       
  40 H40            1.9039    -2.5520    -1.1579 H       
  41 H41            0.6627    -3.8004    -0.9200 H       
  42 H42            0.5816     1.6470    -4.7376 H       
  43 H43            4.1199     1.6560     0.0976 H       
  44 H44            0.3284     3.5606     0.6027 H       
  45 H45            1.4617     5.7038     1.0275 H       
  46 H46            5.2532     3.7981     0.5276 H       
  47 H47            5.8633     5.3779     1.7622 H       
  48 H48            5.8213     5.7443     0.0209 H       
  49 H49            5.8536     7.0696     1.2087 H       
  50 H50            1.7374    -2.0207    -2.8393 H       
  51 H51            2.6974    -2.8057    -4.9633 H       
  52 H52            2.5997    -1.3795    -6.9648 H       
  53 H53            2.3894    -1.9181     5.1540 H       
  54 H54            1.0776    -2.7691     6.0306 H       
@<TRIPOS>BOND
   1    1    2 1
   2    1   16 1
   3    1   33 1
   4    1   34 1
   5    2    3 1
   6    2    4 1
   7    2   35 1
   8    3   10 1
   9    3   12 am
  10    4    5 ar
  11    4    6 ar
  12    5    7 ar
  13    5   11 1
  14    6    9 ar
  15    6   36 1
  16    7    8 ar
  17    7   37 1
  18    8    9 ar
  19    8   32 1
  20    9   30 1
  21   10   11 1
  22   10   38 1
  23   10   39 1
  24   11   40 1
  25   11   41 1
  26   12   13 2
  27   12   14 1
  28   14   15 ar
  29   14   25 ar
  30   15   28 ar
  31   15   42 1
  32   16   17 1
  33   17   18 ar
  34   17   19 ar
  35   18   22 ar
  36   18   43 1
  37   19   20 ar
  38   19   44 1
  39   20   21 ar
  40   20   45 1
  41   21   22 ar
  42   21   23 1
  43   22   46 1
  44   23   24 1
  45   24   47 1
  46   24   48 1
  47   24   49 1
  48   25   26 ar
  49   25   50 1
  50   26   27 ar
  51   26   51 1
  52   27   28 ar
  53   27   52 1
  54   28   29 1
  55   30   31 1
  56   31   32 1
  57   31   53 1
  58   31   54 1

#	End of record

