#	Name: ASD11000111
#	Creating user name:	WinNT
#	Creation time:	15. 06. 2019 21:28

#	Modifying user name:	WinNT
#	Modification time:	15. 06. 2019 21:28

#	Program:	/corina/corina34_cracker 3.40 0067  02.08.2006

@<TRIPOS>MOLECULE
ASD11000111
  59   62    0    0    0
SMALL
NO_CHARGES


@<TRIPOS>ATOM
   1 O1             0.8597     1.7107    -0.1800 O.3     
   2 C2             0.3083     0.4091     0.0298 C.3     
   3 N3             0.6534    -0.0556     1.3775 N.am    
   4 C4            -1.1915     0.4696    -0.1184 C.ar    
   5 C5            -2.0433     0.3527     0.9577 C.ar    
   6 C6            -1.7073     0.6518    -1.3945 C.ar    
   7 C7            -3.4166     0.4324     0.7591 C.ar    
   8 C8            -3.9350     0.6173    -0.5090 C.ar    
   9 C9            -3.0734     0.7261    -1.5964 C.ar    
  10 C10           -0.0898     0.5305     2.5053 C.3     
  11 C11           -1.5555     0.1231     2.3642 C.3     
  12 C12            1.6119    -0.9821     1.5755 C.2     
  13 O13            2.1600    -1.5026     0.6236 O.2     
  14 C14            1.9968    -1.3655     2.9506 C.ar    
  15 C15            1.0177    -1.7270     3.8771 C.ar    
  16 C16            2.2711     1.7148    -0.4037 C.3     
  17 C17            2.7426     3.1310    -0.6117 C.ar    
  18 C18            3.1449     3.8905     0.4713 C.ar    
  19 C19            2.7775     3.6666    -1.8859 C.ar    
  20 C20            3.2097     4.9644    -2.0793 C.ar    
  21 C21            3.6089     5.7303    -0.9937 C.ar    
  22 C22            3.5775     5.1890     0.2833 C.ar    
  23 O23            4.0349     7.0071    -1.1813 O.3     
  24 C24            4.4306     7.7366    -0.0180 C.3     
  25 C25            3.3410    -1.3728     3.3256 C.ar    
  26 C26            3.6943    -1.7323     4.6112 C.ar    
  27 C27            2.7181    -2.0853     5.5273 C.ar    
  28 C28            1.3833    -2.0846     5.1598 C.ar    
  29 C29           -6.1019     0.5725     0.4701 C.3     
  30 O30           -5.2804     0.6927    -0.6929 O.3     
  31 Cl31           5.3659    -1.7420     5.0796 Cl      
  32 Cl32           0.1663    -2.5281     6.3156 Cl      
  33 O33           -3.5715     0.9038    -2.8493 O.3     
  34 C34           -2.6252     1.0067    -3.9151 C.3     
  35 H35            0.7174    -0.2813    -0.7077 H       
  36 H36           -1.0361     0.7365    -2.2364 H       
  37 H37           -4.0849     0.3486     1.6033 H       
  38 H38            0.3092     0.1520     3.4464 H       
  39 H39           -0.0047     1.6168     2.4783 H       
  40 H40           -2.1594     0.7129     3.0538 H       
  41 H41           -1.6593    -0.9334     2.6116 H       
  42 H42           -0.0239    -1.7268     3.5916 H       
  43 H43            2.7773     1.2867     0.4615 H       
  44 H44            2.5004     1.1218    -1.2890 H       
  45 H45            3.1206     3.4685     1.4652 H       
  46 H46            2.4669     3.0698    -2.7308 H       
  47 H47            3.2371     5.3822    -3.0748 H       
  48 H48            3.8878     5.7832     1.1300 H       
  49 H49            5.2573     7.2209     0.4705 H       
  50 H50            4.7477     8.7384    -0.3078 H       
  51 H51            3.5886     7.8070     0.6705 H       
  52 H52            4.1035    -1.0983     2.6117 H       
  53 H53            2.9993    -2.3660     6.5315 H       
  54 H54           -5.9245    -0.3938     0.9421 H       
  55 H55           -5.8571     1.3700     1.1718 H       
  56 H56           -7.1507     0.6499     0.1837 H       
  57 H57           -1.9690     1.8587    -3.7373 H       
  58 H58           -2.0310     0.0942    -3.9628 H       
  59 H59           -3.1538     1.1459    -4.8581 H       
@<TRIPOS>BOND
   1    1    2 1
   2    1   16 1
   3    2    3 1
   4    2    4 1
   5    2   35 1
   6    3   10 1
   7    3   12 am
   8    4    5 ar
   9    4    6 ar
  10    5    7 ar
  11    5   11 1
  12    6    9 ar
  13    6   36 1
  14    7    8 ar
  15    7   37 1
  16    8    9 ar
  17    8   30 1
  18    9   33 1
  19   10   11 1
  20   10   38 1
  21   10   39 1
  22   11   40 1
  23   11   41 1
  24   12   13 2
  25   12   14 1
  26   14   15 ar
  27   14   25 ar
  28   15   28 ar
  29   15   42 1
  30   16   17 1
  31   16   43 1
  32   16   44 1
  33   17   18 ar
  34   17   19 ar
  35   18   22 ar
  36   18   45 1
  37   19   20 ar
  38   19   46 1
  39   20   21 ar
  40   20   47 1
  41   21   22 ar
  42   21   23 1
  43   22   48 1
  44   23   24 1
  45   24   49 1
  46   24   50 1
  47   24   51 1
  48   25   26 ar
  49   25   52 1
  50   26   27 ar
  51   26   31 1
  52   27   28 ar
  53   27   53 1
  54   28   32 1
  55   29   30 1
  56   29   54 1
  57   29   55 1
  58   29   56 1
  59   33   34 1
  60   34   57 1
  61   34   58 1
  62   34   59 1

#	End of record

