#	Name: ASD10610144
#	Creating user name:	WinNT
#	Creation time:	15. 06. 2019 21:28

#	Modifying user name:	WinNT
#	Modification time:	15. 06. 2019 21:28

#	Program:	/corina/corina34_cracker 3.40 0067  02.08.2006

@<TRIPOS>MOLECULE
ASD10610144
  29   31    0    0    0
SMALL
NO_CHARGES


@<TRIPOS>ATOM
   1 S1            -0.0219     1.7619     0.0117 S.3     
   2 C2             0.0021    -0.0041     0.0020 C.2     
   3 S3             0.8948    -0.8372    -1.2740 S.3     
   4 C4             2.5156    -0.0584    -1.0648 C.3     
   5 C5             2.3924     1.4520    -1.2370 C.3     
   6 C6             1.7589     2.0869    -0.0035 C.3     
   7 C7            -0.6510    -0.7057     0.9548 C.2     
   8 C8            -0.7110    -2.2102     1.0625 C.3     
   9 C9            -1.5680    -2.4944     2.3037 C.3     
  10 C10           -1.9669    -1.1489     2.8606 C.ar    
  11 C11           -2.7342    -0.8259     3.9637 C.ar    
  12 C12           -2.9712     0.4984     4.2864 C.ar    
  13 C13           -2.4403     1.5113     3.5049 C.ar    
  14 C14           -1.6739     1.2052     2.4029 C.ar    
  15 C15           -1.4223    -0.1359     2.0713 C.ar    
  16 Br16          -4.0233     0.9269     5.7981 Br      
  17 H17            2.8973    -0.2791    -0.0680 H       
  18 H18            3.2056    -0.4527    -1.8107 H       
  19 H19            3.3840     1.8776    -1.3905 H       
  20 H20            1.7728     1.6644    -2.1082 H       
  21 H21            1.9303     3.1632    -0.0219 H       
  22 H22            2.2116     1.6649     0.8938 H       
  23 H23           -1.1801    -2.6340     0.1746 H       
  24 H24            0.2906    -2.6197     1.1934 H       
  25 H25           -2.4556    -3.0619     2.0239 H       
  26 H26           -0.9867    -3.0475     3.0414 H       
  27 H27           -3.1512    -1.6112     4.5768 H       
  28 H28           -2.6283     2.5436     3.7605 H       
  29 H29           -1.2621     1.9975     1.7953 H       
@<TRIPOS>BOND
   1    1    2 1
   2    1    6 1
   3    2    3 1
   4    2    7 2
   5    3    4 1
   6    4    5 1
   7    4   17 1
   8    4   18 1
   9    5    6 1
  10    5   19 1
  11    5   20 1
  12    6   21 1
  13    6   22 1
  14    7    8 1
  15    7   15 1
  16    8    9 1
  17    8   23 1
  18    8   24 1
  19    9   10 1
  20    9   25 1
  21    9   26 1
  22   10   11 ar
  23   10   15 ar
  24   11   12 ar
  25   11   27 1
  26   12   13 ar
  27   12   16 1
  28   13   14 ar
  29   13   28 1
  30   14   15 ar
  31   14   29 1

#	End of record

