#	Name: ASD10950061
#	Creating user name:	WinNT
#	Creation time:	15. 06. 2019 21:28

#	Modifying user name:	WinNT
#	Modification time:	15. 06. 2019 21:28

#	Program:	/corina/corina34_cracker 3.40 0067  02.08.2006

@<TRIPOS>MOLECULE
ASD10950061
  58   61    0    0    0
SMALL
NO_CHARGES


@<TRIPOS>ATOM
   1 C1            -0.8333     1.3030    -0.2379 C.3     
   2 O2            -0.6807    -0.1405    -0.2002 O.3     
   3 C3             0.0319    -0.6536     0.8213 C.2     
   4 O4             0.5126     0.0845     1.6577 O.2     
   5 C5             0.2288    -2.1141     0.9244 C.ar    
   6 C6             0.9669    -2.6493     1.9819 C.ar    
   7 C7             1.1469    -4.0140     2.0720 C.ar    
   8 C8             0.5980    -4.8520     1.1175 C.ar    
   9 C9            -0.1345    -4.3282     0.0669 C.ar    
  10 C10           -0.3271    -2.9659    -0.0322 C.ar    
  11 C11            0.7993    -6.3418     1.2223 C.3     
  12 N12           -0.4367    -7.0446     0.8588 N.am    
  13 C13           -1.7292    -6.9219     1.5374 C.3     
  14 C14           -2.5379    -5.7936     0.8941 C.3     
  15 C15           -3.8675    -5.6674     1.5921 C.2     
  16 C16           -5.0249    -6.2322     1.2135 C.2     
  17 N17           -6.0180    -5.8945     2.0921 N.pl3   
  18 C18           -5.5110    -5.0837     3.0827 C.ar    
  19 C19           -4.1407    -4.9103     2.8161 C.ar    
  20 C20           -3.3595    -4.1252     3.6664 C.ar    
  21 C21           -3.9311    -3.5286     4.7545 C.ar    
  22 C22           -5.2829    -3.6971     5.0222 C.ar    
  23 C23           -6.0712    -4.4700     4.1985 C.ar    
  24 C24           -0.1735    -7.8211    -0.2079 C.2     
  25 O25           -0.9807    -8.5384    -0.7643 O.2     
  26 C26            1.2440    -7.6723    -0.6029 C.2     
  27 C27            1.8486    -6.7948     0.2342 C.2     
  28 C28            3.2032    -6.3816     0.1909 C.2     
  29 O29            3.9697    -6.8963    -0.5967 O.2     
  30 C30            3.6921    -5.3030     1.1229 C.3     
  31 O31            1.8419    -8.3110    -1.6352 O.3     
  32 C32            1.4214    -7.9974    -2.8723 C.2     
  33 O33            0.4962    -7.2346    -3.0207 O.2     
  34 C34            2.1038    -8.5972    -4.0747 C.3     
  35 H35            0.1491     1.7707    -0.3020 H       
  36 H36           -1.4266     1.5830    -1.1083 H       
  37 H37           -1.3371     1.6388     0.6685 H       
  38 H38            1.3961    -1.9964     2.7274 H       
  39 H39            1.7178    -4.4293     2.8893 H       
  40 H40           -0.5599    -4.9879    -0.6749 H       
  41 H41           -0.8991    -2.5584    -0.8526 H       
  42 H42            1.0978    -6.6088     2.2361 H       
  43 H43           -2.2777    -7.8595     1.4465 H       
  44 H44           -1.5663    -6.6970     2.5914 H       
  45 H45           -1.9894    -4.8560     0.9850 H       
  46 H46           -2.7008    -6.0185    -0.1599 H       
  47 H47           -5.1534    -6.8596     0.3439 H       
  48 H48           -6.9418    -6.1832     2.0267 H       
  49 H49           -2.3071    -3.9903     3.4648 H       
  50 H50           -3.3264    -2.9215     5.4119 H       
  51 H51           -5.7202    -3.2194     5.8865 H       
  52 H52           -7.1219    -4.5950     4.4152 H       
  53 H53            3.5468    -5.6214     2.1551 H       
  54 H54            4.7520    -5.1215     0.9443 H       
  55 H55            3.1312    -4.3859     0.9432 H       
  56 H56            2.0204    -9.6833    -4.0356 H       
  57 H57            1.6283    -8.2288    -4.9837 H       
  58 H58            3.1562    -8.3133    -4.0744 H       
@<TRIPOS>BOND
   1    1    2 1
   2    1   35 1
   3    1   36 1
   4    1   37 1
   5    2    3 1
   6    3    4 2
   7    3    5 1
   8    5    6 ar
   9    5   10 ar
  10    6    7 ar
  11    6   38 1
  12    7    8 ar
  13    7   39 1
  14    8    9 ar
  15    8   11 1
  16    9   10 ar
  17    9   40 1
  18   10   41 1
  19   11   12 1
  20   11   27 1
  21   11   42 1
  22   12   13 1
  23   12   24 am
  24   13   14 1
  25   13   43 1
  26   13   44 1
  27   14   15 1
  28   14   45 1
  29   14   46 1
  30   15   16 2
  31   15   19 1
  32   16   17 1
  33   16   47 1
  34   17   18 1
  35   17   48 1
  36   18   19 ar
  37   18   23 ar
  38   19   20 ar
  39   20   21 ar
  40   20   49 1
  41   21   22 ar
  42   21   50 1
  43   22   23 ar
  44   22   51 1
  45   23   52 1
  46   24   25 2
  47   24   26 1
  48   26   27 2
  49   26   31 1
  50   27   28 1
  51   28   29 2
  52   28   30 1
  53   30   53 1
  54   30   54 1
  55   30   55 1
  56   31   32 1
  57   32   33 2
  58   32   34 1
  59   34   56 1
  60   34   57 1
  61   34   58 1

#	End of record

