#	Name: ASD11910004
#	Creating user name:	WinNT
#	Creation time:	15. 06. 2019 21:29

#	Modifying user name:	WinNT
#	Modification time:	15. 06. 2019 21:29

#	Program:	/corina/corina34_cracker 3.40 0067  02.08.2006

@<TRIPOS>MOLECULE
ASD11910004
  19   20    0    0    0
SMALL
NO_CHARGES


@<TRIPOS>ATOM
   1 C1            -0.0168     1.3906     0.0097 C.ar    
   2 C2             0.0021    -0.0041     0.0020 C.ar    
   3 C3             1.2276    -0.6877    -0.0134 C.ar    
   4 C4             2.4143     0.0346    -0.0212 C.ar    
   5 C5             2.3809     1.4125    -0.0139 C.ar    
   6 C6             1.1700     2.0890     0.0021 C.ar    
   7 C7            -1.0483    -1.0339     0.0070 C.2     
   8 N8            -0.4521    -2.1938    -0.0047 N.2     
   9 O9             0.9489    -2.0076    -0.0174 O.3     
  10 C10            1.1532     3.5959     0.0096 C.3     
  11 F11            2.4668     4.0770    -0.0019 F       
  12 F12            0.4766     4.0603    -1.1235 F       
  13 F13            0.5006     4.0493     1.1609 F       
  14 N14           -2.4181    -0.8126     0.0218 N.pl3   
  15 H15           -0.9580     1.9203     0.0170 H       
  16 H16            3.3621    -0.4831    -0.0327 H       
  17 H17            3.3057     1.9704    -0.0200 H       
  18 H18           -2.7628     0.0941     0.0301 H       
  19 H19           -3.0309    -1.5645     0.0239 H       
@<TRIPOS>BOND
   1    1    2 ar
   2    1    6 ar
   3    1   15 1
   4    2    3 ar
   5    2    7 1
   6    3    4 ar
   7    3    9 1
   8    4    5 ar
   9    4   16 1
  10    5    6 ar
  11    5   17 1
  12    6   10 1
  13    7    8 2
  14    7   14 1
  15    8    9 1
  16   10   11 1
  17   10   12 1
  18   10   13 1
  19   14   18 1
  20   14   19 1

#	End of record

