#	Name: ASD10160249
#	Creating user name:	WinNT
#	Creation time:	15. 06. 2019 21:25

#	Modifying user name:	WinNT
#	Modification time:	15. 06. 2019 21:25

#	Program:	/corina/corina34_cracker 3.40 0067  02.08.2006

@<TRIPOS>MOLECULE
ASD10160249
  39   41    0    0    0
SMALL
NO_CHARGES


@<TRIPOS>ATOM
   1 C1             0.3838     1.0779     2.0150 C.2     
   2 C2             0.2976    -0.2941     1.4765 C.ar    
   3 C3             1.3770    -0.8401     0.7844 C.ar    
   4 C4             1.2903    -2.1347     0.2786 C.ar    
   5 C5             0.1156    -2.8803     0.4696 C.ar    
   6 C6            -0.9538    -2.3261     1.1608 C.ar    
   7 C7            -0.8656    -1.0480     1.6658 C.ar    
   8 O8             1.3965     1.7313     1.8548 O.2     
   9 N9            -0.6622     1.6080     2.6795 N.am    
  10 O10            0.0255    -4.1404    -0.0209 O.3     
  11 N11           -2.5711    -6.2076     1.3550 N.ar    
  12 C12           -1.4332    -5.5736     1.2149 C.ar    
  13 C13           -1.1655    -4.7849     0.0912 C.ar    
  14 C14           -2.1080    -4.6638    -0.8962 C.ar    
  15 C15           -3.3267    -5.3485    -0.7375 C.ar    
  16 C16           -4.3388    -5.2717    -1.7079 C.ar    
  17 C17           -5.5048    -5.9491    -1.5192 C.ar    
  18 C18           -5.7076    -6.7178    -0.3751 C.ar    
  19 C19           -4.7481    -6.8144     0.5856 C.ar    
  20 C20           -3.5306    -6.1302     0.4271 C.ar    
  21 S21           -0.5654     3.1468     3.2835 S.o2    
  22 O22           -1.8159     3.3498     3.9273 O.2     
  23 O23            0.6488     3.1579     4.0215 O.2     
  24 C24           -0.4272     4.2019     1.8144 C.3     
  25 C25            2.3946    -2.7033    -0.4342 C.1     
  26 N26            3.2706    -3.1543    -0.9995 N.1     
  27 H27            2.2774    -0.2612     0.6407 H       
  28 H28           -1.8562    -2.9011     1.3066 H       
  29 H29           -1.6992    -0.6244     2.2063 H       
  30 H30           -1.4716     1.0881     2.8038 H       
  31 H31           -0.6834    -5.6612     1.9872 H       
  32 H32           -1.9206    -4.0593    -1.7714 H       
  33 H33           -4.1934    -4.6785    -2.5986 H       
  34 H34           -6.2827    -5.8895    -2.2660 H       
  35 H35           -6.6414    -7.2453    -0.2481 H       
  36 H36           -4.9219    -7.4144     1.4666 H       
  37 H37           -1.3070     4.0662     1.1855 H       
  38 H38           -0.3577     5.2454     2.1217 H       
  39 H39            0.4663     3.9281     1.2533 H       
@<TRIPOS>BOND
   1    1    2 1
   2    1    8 2
   3    1    9 am
   4    2    3 ar
   5    2    7 ar
   6    3    4 ar
   7    3   27 1
   8    4    5 ar
   9    4   25 1
  10    5    6 ar
  11    5   10 1
  12    6    7 ar
  13    6   28 1
  14    7   29 1
  15    9   21 am
  16    9   30 1
  17   10   13 1
  18   11   12 ar
  19   11   20 ar
  20   12   13 ar
  21   12   31 1
  22   13   14 ar
  23   14   15 ar
  24   14   32 1
  25   15   16 ar
  26   15   20 ar
  27   16   17 ar
  28   16   33 1
  29   17   18 ar
  30   17   34 1
  31   18   19 ar
  32   18   35 1
  33   19   20 ar
  34   19   36 1
  35   21   22 2
  36   21   23 2
  37   21   24 1
  38   24   37 1
  39   24   38 1
  40   24   39 1
  41   25   26 3

#	End of record

