#	Name: ASD10410125
#	Creating user name:	WinNT
#	Creation time:	15. 06. 2019 21:26

#	Modifying user name:	WinNT
#	Modification time:	15. 06. 2019 21:26

#	Program:	/corina/corina34_cracker 3.40 0067  02.08.2006

@<TRIPOS>MOLECULE
ASD10410125
  69   76    0    0    0
SMALL
NO_CHARGES


@<TRIPOS>ATOM
   1 C1            -0.0184     1.3942    -0.0800 C.ar    
   2 C2            -0.0058     0.0095     0.0248 C.ar    
   3 C3             1.2025    -0.6691     0.1149 C.ar    
   4 C4             2.3914     0.0330     0.1003 C.ar    
   5 C5             2.3788     1.4177    -0.0049 C.ar    
   6 C6             1.1705     2.0963    -0.0951 C.ar    
   7 N7             3.5846     2.1297    -0.0193 N.pl3   
   8 C8             3.6715     3.3400    -0.7067 C.2     
   9 N9             4.7099     4.1409    -0.7075 N.2     
  10 N10            2.7107     3.8664    -1.4751 N.2     
  11 C11            3.1194     5.0136    -1.9732 C.2     
  12 N12            4.3813     5.2384    -1.5195 N.pl3   
  13 C13            5.1879     6.3386    -1.8039 C.ar    
  14 N14            2.3963     5.8408    -2.8109 N.pl3   
  15 N15           -1.2110    -0.7021     0.0400 N.3     
  16 C16           -0.9681    -2.1468     0.1566 C.3     
  17 C17           -2.3079    -2.8808     0.2498 C.3     
  18 N18           -3.1125    -2.5795    -0.9424 N.3     
  19 C19           -3.3554    -1.1348    -1.0590 C.3     
  20 C20           -2.0156    -0.4008    -1.1522 C.3     
  21 N21            4.7483     7.3095    -2.5922 N.ar    
  22 C22            5.5068     8.3544    -2.8653 C.ar    
  23 N23            6.7173     8.4864    -2.3791 N.ar    
  24 C24            7.2478     7.5495    -1.5689 C.ar    
  25 C25            6.4797     6.4389    -1.2539 C.ar    
  26 C26           -4.3773    -3.3264    -0.9264 C.3     
  27 C27           -5.2740    -2.9028    -2.1296 C.3     
  28 C28           -4.1157    -4.8340    -1.1457 C.3     
  29 C29           -4.8790    -5.1793    -2.4608 C.3     
  30 C30           -6.6480    -3.5857    -1.8521 C.3     
  31 C31           -6.3864    -5.0934    -2.0714 C.3     
  32 C32           -4.7079    -3.8373    -3.2564 C.3     
  33 C33            8.5729     7.5233    -0.9342 C.ar    
  34 C34            8.7775     6.3878    -0.1569 C.ar    
  35 S35            7.3572     5.3526    -0.1931 S.3     
  36 C36            9.6070     8.4771    -1.0244 C.ar    
  37 C37           10.7817     8.2483    -0.3389 C.ar    
  38 C38           10.9126     7.0942     0.4152 C.ar    
  39 N39            9.9371     6.2182     0.4871 N.ar    
  40 H40           -0.9579     1.9216    -0.1542 H       
  41 H41            1.2122    -1.7459     0.1967 H       
  42 H42            3.3310    -0.4947     0.1710 H       
  43 H43            1.1607     3.1731    -0.1772 H       
  44 H44            4.3593     1.7812     0.4489 H       
  45 H45            1.4990     5.5917    -3.0824 H       
  46 H46            2.7860     6.6708    -3.1276 H       
  47 H47           -0.4225    -2.4957    -0.7201 H       
  48 H48           -0.3813    -2.3457     1.0534 H       
  49 H49           -2.1309    -3.9548     0.3072 H       
  50 H50           -2.8415    -2.5516     1.1414 H       
  51 H51           -3.9422    -0.9359    -1.9558 H       
  52 H52           -3.9010    -0.7859    -0.1823 H       
  53 H53           -2.1925     0.6732    -1.2096 H       
  54 H54           -1.4819    -0.7300    -2.0438 H       
  55 H55            5.1172     9.1270    -3.5116 H       
  56 H56           -4.9023    -3.1630     0.0148 H       
  57 H57           -5.3078    -1.8350    -2.3460 H       
  58 H58           -3.0486    -5.0210    -1.2654 H       
  59 H59           -4.5129    -5.4137    -0.3125 H       
  60 H60           -4.5687    -6.0942    -2.9656 H       
  61 H61           -6.9640    -3.4003    -0.8255 H       
  62 H62           -7.4004    -3.2247    -2.5533 H       
  63 H63           -7.0101    -5.4735    -2.8804 H       
  64 H64           -6.5737    -5.6492    -1.1526 H       
  65 H65           -5.3242    -3.8135    -4.1552 H       
  66 H66           -3.6622    -3.6236    -3.4776 H       
  67 H67            9.4819     9.3698    -1.6193 H       
  68 H68           11.5911     8.9615    -0.3900 H       
  69 H69           11.8312     6.9121     0.9532 H       
@<TRIPOS>BOND
   1    1    2 ar
   2    1    6 ar
   3    1   40 1
   4    2    3 ar
   5    2   15 1
   6    3    4 ar
   7    3   41 1
   8    4    5 ar
   9    4   42 1
  10    5    6 ar
  11    5    7 1
  12    6   43 1
  13    7    8 1
  14    7   44 1
  15    8    9 2
  16    8   10 1
  17    9   12 1
  18   10   11 2
  19   11   12 1
  20   11   14 1
  21   12   13 1
  22   13   21 ar
  23   13   25 ar
  24   14   45 1
  25   14   46 1
  26   15   16 1
  27   15   20 1
  28   16   17 1
  29   16   47 1
  30   16   48 1
  31   17   18 1
  32   17   49 1
  33   17   50 1
  34   18   19 1
  35   18   26 1
  36   19   20 1
  37   19   51 1
  38   19   52 1
  39   20   53 1
  40   20   54 1
  41   21   22 ar
  42   22   23 ar
  43   22   55 1
  44   23   24 ar
  45   24   25 ar
  46   24   33 1
  47   25   35 1
  48   26   27 1
  49   26   28 1
  50   26   56 1
  51   27   30 1
  52   27   32 1
  53   27   57 1
  54   28   29 1
  55   28   58 1
  56   28   59 1
  57   29   31 1
  58   29   32 1
  59   29   60 1
  60   30   31 1
  61   30   61 1
  62   30   62 1
  63   31   63 1
  64   31   64 1
  65   32   65 1
  66   32   66 1
  67   33   34 ar
  68   33   36 ar
  69   34   35 1
  70   34   39 ar
  71   36   37 ar
  72   36   67 1
  73   37   38 ar
  74   37   68 1
  75   38   39 ar
  76   38   69 1

#	End of record

