#	Name: ASD11000131
#	Creating user name:	WinNT
#	Creation time:	15. 06. 2019 21:28

#	Modifying user name:	WinNT
#	Modification time:	15. 06. 2019 21:28

#	Program:	/corina/corina34_cracker 3.40 0067  02.08.2006

@<TRIPOS>MOLECULE
ASD11000131
  29   30    0    0    0
SMALL
NO_CHARGES


@<TRIPOS>ATOM
   1 C1            -0.0168     1.3872     0.0097 C.ar    
   2 C2             0.0021    -0.0041     0.0020 C.ar    
   3 C3             1.2195    -0.6601    -0.0132 C.ar    
   4 C4             2.3819     0.0999    -0.0202 C.ar    
   5 C5             2.2894     1.4770    -0.0120 C.ar    
   6 N6             1.1137     2.0763     0.0026 N.ar    
   7 N7            -1.2334     2.0595     0.0191 N.pl3   
   8 C8            -2.4881     1.3034     0.0209 C.3     
   9 C9            -3.6517     2.2610     0.0316 C.ar    
  10 C10           -4.1907     2.7066    -1.1610 C.ar    
  11 C11           -5.2589     3.5851    -1.1516 C.ar    
  12 C12           -5.7878     4.0180     0.0529 C.ar    
  13 C13           -5.2473     3.5713     1.2450 C.ar    
  14 C14           -4.1830     2.6890     1.2337 C.ar    
  15 Cl15          -7.1281     5.1212     0.0664 Cl      
  16 Cl16          -5.9358     4.1453    -2.6488 Cl      
  17 C17            3.7306    -0.5722    -0.0363 C.3     
  18 Cl18           4.2526    -0.8316    -1.7425 Cl      
  19 H19           -0.9214    -0.5640     0.0082 H       
  20 H20            1.2652    -1.7391    -0.0191 H       
  21 H21            3.1908     2.0718    -0.0174 H       
  22 H22           -1.2515     3.0293     0.0244 H       
  23 H23           -2.5384     0.6806    -0.8723 H       
  24 H24           -2.5300     0.6709     0.9077 H       
  25 H25           -3.7775     2.3688    -2.0999 H       
  26 H26           -5.6593     3.9085     2.1846 H       
  27 H27           -3.7638     2.3372     2.1648 H       
  28 H28            4.4576     0.0597     0.4740 H       
  29 H29            3.6637    -1.5334     0.4734 H       
@<TRIPOS>BOND
   1    1    2 ar
   2    1    6 ar
   3    1    7 1
   4    2    3 ar
   5    2   19 1
   6    3    4 ar
   7    3   20 1
   8    4    5 ar
   9    4   17 1
  10    5    6 ar
  11    5   21 1
  12    7    8 1
  13    7   22 1
  14    8    9 1
  15    8   23 1
  16    8   24 1
  17    9   10 ar
  18    9   14 ar
  19   10   11 ar
  20   10   25 1
  21   11   12 ar
  22   11   16 1
  23   12   13 ar
  24   12   15 1
  25   13   14 ar
  26   13   26 1
  27   14   27 1
  28   17   18 1
  29   17   28 1
  30   17   29 1

#	End of record

