#	Name: ASD13680024
#	Creating user name:	WinNT
#	Creation time:	15. 06. 2019 21:30

#	Modifying user name:	WinNT
#	Modification time:	15. 06. 2019 21:30

#	Program:	/corina/corina34_cracker 3.40 0067  02.08.2006

@<TRIPOS>MOLECULE
ASD13680024
  51   54    0    0    0
SMALL
NO_CHARGES


@<TRIPOS>ATOM
   1 C1            -0.0193     1.5123     0.0250 C.3     
   2 C2             0.0023    -0.0020     0.0103 C.2     
   3 C3             0.7555    -0.7679     0.8052 C.2     
   4 C4             1.7291    -0.2383     1.8439 C.3     
   5 C5             1.8869     2.2209     1.4608 C.3     
   6 C6             1.4085     2.0562     0.0211 C.3     
   7 C7             1.2750     1.1316     2.3387 C.3     
   8 C8             0.5453    -2.1873     0.5659 C.2     
   9 C9            -0.3623    -2.4431    -0.4222 C.2     
  10 S10           -0.9724    -0.9919    -1.0682 S.3     
  11 N11           -0.7347    -3.7100    -0.8412 N.am    
  12 C12            1.2397    -3.2402     1.3124 C.2     
  13 O13            0.7525    -3.6829     2.3361 O.2     
  14 N14            2.4178    -3.7182     0.8652 N.am    
  15 C15           -1.6419    -3.8540    -1.8275 C.2     
  16 C16           -2.0392    -5.2055    -2.2744 C.ar    
  17 C17           -2.9785    -5.3583    -3.2958 C.ar    
  18 C18           -3.3449    -6.6227    -3.7082 C.ar    
  19 C19           -2.7840    -7.7380    -3.1116 C.ar    
  20 C20           -1.8527    -7.5937    -2.0985 C.ar    
  21 C21           -1.4725    -6.3350    -1.6811 C.ar    
  22 O22           -2.1333    -2.8723    -2.3494 O.2     
  23 C23            3.1304    -4.6403     1.6286 C.ar    
  24 C24            4.2897    -5.2110     1.1146 C.ar    
  25 C25            4.9879    -6.1248     1.8836 C.ar    
  26 C26            4.5007    -6.4380     3.1455 C.ar    
  27 C27            3.3430    -5.8330     3.5925 C.ar    
  28 N28            2.7007    -4.9611     2.8388 N.ar    
  29 N29           -3.1822    -9.0916    -3.5589 N.pl3   
  30 O30           -4.0021    -9.2218    -4.4503 O.2     
  31 O31           -2.6901   -10.0752    -3.0357 O.2     
  32 H32           -0.5469     1.8751    -0.8571 H       
  33 H33           -0.5355     1.8579     0.9206 H       
  34 H34            1.7720    -0.9303     2.6850 H       
  35 H35            2.7203    -0.1515     1.3990 H       
  36 H36            2.9737     2.1437     1.4923 H       
  37 H37            1.5836     3.1992     1.8336 H       
  38 H38            2.0624     1.3587    -0.5024 H       
  39 H39            1.4285     3.0229    -0.4821 H       
  40 H40            0.1879     1.1935     2.2892 H       
  41 H41            1.5998     1.2711     3.3698 H       
  42 H42           -0.3426    -4.4933    -0.4247 H       
  43 H43            2.7696    -3.4203     0.0117 H       
  44 H44           -3.4177    -4.4886    -3.7618 H       
  45 H45           -4.0715    -6.7423    -4.4982 H       
  46 H46           -1.4189    -8.4684    -1.6368 H       
  47 H47           -0.7416    -6.2237    -0.8938 H       
  48 H48            4.6401    -4.9446     0.1284 H       
  49 H49            5.8912    -6.5845     1.5106 H       
  50 H50            5.0218    -7.1478     3.7709 H       
  51 H51            2.9603    -6.0736     4.5734 H       
@<TRIPOS>BOND
   1    1    2 1
   2    1    6 1
   3    1   32 1
   4    1   33 1
   5    2   10 1
   6    2    3 2
   7    3    4 1
   8    3    8 1
   9    4    7 1
  10    4   34 1
  11    4   35 1
  12    5    6 1
  13    5    7 1
  14    5   36 1
  15    5   37 1
  16    6   38 1
  17    6   39 1
  18    7   40 1
  19    7   41 1
  20    8    9 2
  21    8   12 1
  22    9   10 1
  23    9   11 1
  24   11   15 am
  25   11   42 1
  26   12   13 2
  27   12   14 am
  28   14   23 1
  29   14   43 1
  30   15   16 1
  31   15   22 2
  32   16   17 ar
  33   16   21 ar
  34   17   18 ar
  35   17   44 1
  36   18   19 ar
  37   18   45 1
  38   19   20 ar
  39   19   29 1
  40   20   21 ar
  41   20   46 1
  42   21   47 1
  43   23   24 ar
  44   23   28 ar
  45   24   25 ar
  46   24   48 1
  47   25   26 ar
  48   25   49 1
  49   26   27 ar
  50   26   50 1
  51   27   28 ar
  52   27   51 1
  53   29   30 2
  54   29   31 2

#	End of record

