#	Name: ASD11000328
#	Creating user name:	WinNT
#	Creation time:	15. 06. 2019 21:29

#	Modifying user name:	WinNT
#	Modification time:	15. 06. 2019 21:29

#	Program:	/corina/corina34_cracker 3.40 0067  02.08.2006

@<TRIPOS>MOLECULE
ASD11000328
  59   63    0    0    0
SMALL
NO_CHARGES


@<TRIPOS>ATOM
   1 C1            -0.0342     1.3773     0.1720 C.ar    
   2 C2             0.0103     0.0022    -0.0580 C.ar    
   3 C3             1.2259    -0.6431     0.1024 C.ar    
   4 C4             2.3235     0.1175     0.4817 C.ar    
   5 N5             2.1910     1.4141     0.6783 N.ar    
   6 N6             1.0683     2.0185     0.5316 N.ar    
   7 N7            -1.2289     2.0731     0.0192 N.pl3   
   8 C8             3.6668    -0.5394     0.6693 C.3     
   9 C9             4.7065     0.1679    -0.2022 C.3     
  10 N10            9.6568    -2.4456     0.2971 N.pl3   
  11 N11            9.5099    -3.3858    -0.7280 N.2     
  12 C12            8.3522    -3.2396    -1.3066 C.2     
  13 C13            7.6597    -2.1381    -0.6459 C.ar    
  14 C14            6.4123    -1.5284    -0.8212 C.ar    
  15 C15            6.0498    -0.4890    -0.0146 C.ar    
  16 C16            6.9077    -0.0303     0.9777 C.ar    
  17 C17            8.1305    -0.6085     1.1676 C.ar    
  18 C18            8.5278    -1.6715     0.3600 C.ar    
  19 C19           10.8273    -2.3138     1.1681 C.3     
  20 C20           10.8289    -3.4480     2.1964 C.3     
  21 C21           12.0864    -3.3382     3.0642 C.3     
  22 C22           13.3221    -3.3719     2.1596 C.3     
  23 C23           13.2242    -2.2406     1.1328 C.3     
  24 O24           12.0177    -2.3849     0.3807 O.3     
  25 C25           -1.2458     3.4683     0.1325 C.ar    
  26 C26           -0.1459     4.2119    -0.2750 C.ar    
  27 C27           -0.1634     5.5881    -0.1628 C.ar    
  28 C28           -1.2791     6.2279     0.3567 C.ar    
  29 C29           -2.3780     5.4860     0.7644 C.ar    
  30 C30           -2.3646     4.1101     0.6472 C.ar    
  31 O31           -1.2955     7.5833     0.4669 O.3     
  32 C32           -2.4768     8.1758     1.0105 C.3     
  33 F33           -3.5742     7.8507     0.2059 F       
  34 F34           -2.6882     7.6908     2.3056 F       
  35 H35           -0.8749    -0.5424    -0.3515 H       
  36 H36            1.3168    -1.7066    -0.0624 H       
  37 H37           -2.0503     1.5916    -0.1660 H       
  38 H38            3.9622    -0.4698     1.7162 H       
  39 H39            3.6021    -1.5880     0.3789 H       
  40 H40            4.4111     0.0983    -1.2491 H       
  41 H41            4.7712     1.2165     0.0882 H       
  42 H42            7.9727    -3.8281    -2.1288 H       
  43 H43            5.7404    -1.8783    -1.5910 H       
  44 H44            6.6039     0.7937     1.6063 H       
  45 H45            8.7881    -0.2419     1.9420 H       
  46 H46           10.7897    -1.3548     1.6848 H       
  47 H47            9.9432    -3.3693     2.8269 H       
  48 H48           10.8253    -4.4079     1.6800 H       
  49 H49           12.0659    -2.4001     3.6188 H       
  50 H50           12.1222    -4.1750     3.7618 H       
  51 H51           14.2195    -3.2387     2.7638 H       
  52 H52           13.3689    -4.3302     1.6425 H       
  53 H53           13.2182    -1.2806     1.6490 H       
  54 H54           14.0800    -2.2860     0.4593 H       
  55 H55            0.7230     3.7139    -0.6792 H       
  56 H56            0.6920     6.1665    -0.4794 H       
  57 H57           -3.2460     5.9849     1.1695 H       
  58 H58           -3.2221     3.5329     0.9602 H       
  59 H59           -2.3582     9.2588     1.0429 H       
@<TRIPOS>BOND
   1    1    2 ar
   2    1    6 ar
   3    1    7 1
   4    2    3 ar
   5    2   35 1
   6    3    4 ar
   7    3   36 1
   8    4    5 ar
   9    4    8 1
  10    5    6 ar
  11    7   25 1
  12    7   37 1
  13    8    9 1
  14    8   38 1
  15    8   39 1
  16    9   15 1
  17    9   40 1
  18    9   41 1
  19   10   11 1
  20   10   18 1
  21   10   19 1
  22   11   12 2
  23   12   13 1
  24   12   42 1
  25   13   14 ar
  26   13   18 ar
  27   14   15 ar
  28   14   43 1
  29   15   16 ar
  30   16   17 ar
  31   16   44 1
  32   17   18 ar
  33   17   45 1
  34   19   20 1
  35   19   24 1
  36   19   46 1
  37   20   21 1
  38   20   47 1
  39   20   48 1
  40   21   22 1
  41   21   49 1
  42   21   50 1
  43   22   23 1
  44   22   51 1
  45   22   52 1
  46   23   24 1
  47   23   53 1
  48   23   54 1
  49   25   26 ar
  50   25   30 ar
  51   26   27 ar
  52   26   55 1
  53   27   28 ar
  54   27   56 1
  55   28   29 ar
  56   28   31 1
  57   29   30 ar
  58   29   57 1
  59   30   58 1
  60   31   32 1
  61   32   33 1
  62   32   34 1
  63   32   59 1

#	End of record

