#	Name: ASD10160557
#	Creating user name:	WinNT
#	Creation time:	15. 06. 2019 21:26

#	Modifying user name:	WinNT
#	Modification time:	15. 06. 2019 21:26

#	Program:	/corina/corina34_cracker 3.40 0067  02.08.2006

@<TRIPOS>MOLECULE
ASD10160557
  35   35    0    0    0
SMALL
NO_CHARGES


@<TRIPOS>ATOM
   1 C1            -0.0184     1.5028     0.0103 C.2     
   2 C2             0.0021    -0.0041     0.0020 C.3     
   3 C3            -0.7002    -0.5305     1.2552 C.3     
   4 O4             1.0197     2.1211     0.0037 O.2     
   5 O5            -1.1898     2.1580     0.0194 O.3     
   6 C6            -0.7241    -0.5171    -1.2431 C.3     
   7 C7             1.4295    -0.4870    -0.0142 C.ar    
   8 C8             1.6919    -1.8454    -0.0240 C.ar    
   9 C9             3.0098    -2.2786    -0.0389 C.ar    
  10 C10            4.0173    -1.3262    -0.0434 C.ar    
  11 C11            3.6781     0.0134    -0.0330 C.ar    
  12 N12            2.4141     0.3898    -0.0243 N.ar    
  13 Cl13           0.3891    -2.9927    -0.0172 Cl      
  14 C14           -1.1335     3.6089     0.0270 C.3     
  15 C15           -0.3989     4.0974    -1.2231 C.3     
  16 C16           -2.5551     4.1744     0.0369 C.3     
  17 C17           -0.3871     4.0838     1.2754 C.3     
  18 H18           -1.7327    -0.1812     1.2669 H       
  19 H19           -0.6854    -1.6204     1.2492 H       
  20 H20           -0.1829    -0.1650     2.1423 H       
  21 H21           -0.2238    -0.1421    -2.1359 H       
  22 H22           -0.7093    -1.6070    -1.2491 H       
  23 H23           -1.7565    -0.1678    -1.2314 H       
  24 H24            3.2453    -3.3326    -0.0465 H       
  25 H25            5.0544    -1.6274    -0.0546 H       
  26 H26            4.4574     0.7611    -0.0361 H       
  27 H27           -0.9307     3.7591    -2.1124 H       
  28 H28           -0.3567     5.1865    -1.2173 H       
  29 H29            0.6139     3.6945    -1.2301 H       
  30 H30           -3.0784     3.8265     0.9275 H       
  31 H31           -2.5128     5.2636     0.0426 H       
  32 H32           -3.0869     3.8361    -0.8525 H       
  33 H33            0.6257     3.6809     1.2684 H       
  34 H34           -0.3448     5.1730     1.2811 H       
  35 H35           -0.9104     3.7358     2.1659 H       
@<TRIPOS>BOND
   1    1    2 1
   2    1    4 2
   3    1    5 1
   4    2    3 1
   5    2    6 1
   6    2    7 1
   7    3   18 1
   8    3   19 1
   9    3   20 1
  10    5   14 1
  11    6   21 1
  12    6   22 1
  13    6   23 1
  14    7    8 ar
  15    7   12 ar
  16    8    9 ar
  17    8   13 1
  18    9   10 ar
  19    9   24 1
  20   10   11 ar
  21   10   25 1
  22   11   12 ar
  23   11   26 1
  24   14   15 1
  25   14   17 1
  26   14   16 1
  27   15   27 1
  28   15   28 1
  29   15   29 1
  30   16   30 1
  31   16   31 1
  32   16   32 1
  33   17   33 1
  34   17   34 1
  35   17   35 1

#	End of record

