#	Name: ASD10420105
#	Creating user name:	WinNT
#	Creation time:	15. 06. 2019 21:27

#	Modifying user name:	WinNT
#	Modification time:	15. 06. 2019 21:27

#	Program:	/corina/corina34_cracker 3.40 0067  02.08.2006

@<TRIPOS>MOLECULE
ASD10420105
  84   88    0    0    0
SMALL
NO_CHARGES


@<TRIPOS>ATOM
   1 N1            -0.1388     0.1857    -0.6432 N.pl3   
   2 C2            -0.5803    -1.0157    -1.1369 C.2     
   3 C3            -1.9858    -0.9767    -1.1869 C.2     
   4 C4            -2.3777     0.2741    -0.7126 C.2     
   5 C5            -1.2286     0.9744    -0.3774 C.2     
   6 N6             1.2345     0.4165    -0.4884 N.2     
   7 C7             2.1111    -0.4946    -0.8064 C.2     
   8 C8             1.7010    -1.7452    -1.3179 C.2     
   9 C9             0.3467    -2.0055    -1.4834 C.2     
  10 C10           -1.1857     2.3346     0.1631 C.2     
  11 O11           -1.2056     2.5120     1.3672 O.2     
  12 C12           -3.7939     0.7727    -0.5822 C.3     
  13 C13           -4.2969     0.4978     0.8115 C.ar    
  14 C14           -4.4540     1.5387     1.7071 C.ar    
  15 C15           -4.6063    -0.7946     1.1919 C.ar    
  16 C16           -5.0679    -1.0484     2.4703 C.ar    
  17 C17           -5.2209    -0.0100     3.3690 C.ar    
  18 C18           -2.8801    -2.0601    -1.6556 C.ar    
  19 C19           -2.9449    -3.2660    -0.9574 C.ar    
  20 C20           -3.7801    -4.2715    -1.3992 C.ar    
  21 C21           -4.5518    -4.0858    -2.5323 C.ar    
  22 C22           -4.4919    -2.8921    -3.2291 C.ar    
  23 C23           -3.6653    -1.8767    -2.7939 C.ar    
  24 C24           -4.1229     2.9485     1.2900 C.3     
  25 C25           -4.9161     1.2858     2.9874 C.ar    
  26 F26           -5.0649     2.3018     3.8654 F       
  27 N27           -1.1241     3.3902    -0.6727 N.am    
  28 C28           -1.1877     4.7661    -0.1569 C.3     
  29 C29           -0.0092     5.5573    -0.7343 C.3     
  30 N30           -0.0166     5.4420    -2.1987 N.3     
  31 C31            0.1792     4.0497    -2.6245 C.3     
  32 C32           -0.9854     3.1968    -2.1241 C.3     
  33 C33           -0.1391     7.0293    -0.3374 C.3     
  34 C34            1.0807     7.7838    -0.7999 C.2     
  35 N35            1.1870     9.1056    -0.5589 N.am    
  36 O36            1.9667     7.2016    -1.3888 O.2     
  37 C37            2.3728     9.8390    -1.0084 C.3     
  38 C38            2.2428    11.3110    -0.6116 C.3     
  39 O39            2.2469    11.4224     0.8130 O.3     
  40 C40            2.1297    12.7638     1.2915 C.3     
  41 C41            2.7042    -2.7682    -1.6746 C.2     
  42 N42            4.0170    -2.5100    -1.5123 N.am    
  43 O43            2.3459    -3.8435    -2.1146 O.2     
  44 C44            5.0123    -3.5251    -1.8661 C.3     
  45 C45            6.4155    -2.9824    -1.5876 C.3     
  46 H46            3.1637    -0.2902    -0.6773 H       
  47 H47            0.0143    -2.9564    -1.8730 H       
  48 H48           -3.8203     1.8456    -0.7730 H       
  49 H49           -4.4279     0.2594    -1.3052 H       
  50 H50           -4.4877    -1.6067     0.4899 H       
  51 H51           -5.3094    -2.0585     2.7664 H       
  52 H52           -5.5821    -0.2084     4.3672 H       
  53 H53           -2.3424    -3.4123    -0.0731 H       
  54 H54           -3.8312    -5.2056    -0.8595 H       
  55 H55           -5.2035    -4.8762    -2.8746 H       
  56 H56           -5.0968    -2.7531    -4.1130 H       
  57 H57           -3.6194    -0.9453    -3.3387 H       
  58 H58           -4.9812     3.3881     0.7820 H       
  59 H59           -3.8802     3.5409     2.1722 H       
  60 H60           -3.2678     2.9361     0.6142 H       
  61 H61           -2.1253     5.2293    -0.4641 H       
  62 H62           -1.1218     4.7528     0.9310 H       
  63 H63            0.9253     5.1557    -0.3425 H       
  64 H64           -0.8664     5.8228    -2.5871 H       
  65 H65            0.2233     4.0050    -3.7127 H       
  66 H66            1.1111     3.6691    -2.2064 H       
  67 H67           -0.7859     2.1464    -2.3361 H       
  68 H68           -1.9032     3.5063    -2.6240 H       
  69 H69           -1.0278     7.4543    -0.8041 H       
  70 H70           -0.2253     7.1071     0.7464 H       
  71 H71            0.4783     9.5712    -0.0879 H       
  72 H72            3.2614     9.4140    -0.5418 H       
  73 H73            2.4590     9.7612    -2.0922 H       
  74 H74            3.0813    11.8734    -1.0225 H       
  75 H75            1.3087    11.7121    -1.0048 H       
  76 H76            2.9658    13.3564     0.9201 H       
  77 H77            1.1932    13.1951     0.9378 H       
  78 H78            2.1406    12.7631     2.3814 H       
  79 H79            4.3028    -1.6522    -1.1612 H       
  80 H80            4.8446    -4.4219    -1.2697 H       
  81 H81            4.9210    -3.7701    -2.9243 H       
  82 H82            6.5832    -2.0856    -2.1840 H       
  83 H83            6.5068    -2.7373    -0.5294 H       
  84 H84            7.1560    -3.7376    -1.8509 H       
@<TRIPOS>BOND
   1    1    2 1
   2    1    6 1
   3    1    5 1
   4    2    3 2
   5    2    9 1
   6    3    4 1
   7    3   18 1
   8    4    5 2
   9    4   12 1
  10    5   10 1
  11    6    7 2
  12    7    8 1
  13    7   46 1
  14    8    9 2
  15    8   41 1
  16    9   47 1
  17   10   11 2
  18   10   27 am
  19   12   13 1
  20   12   48 1
  21   12   49 1
  22   13   14 ar
  23   13   15 ar
  24   14   24 1
  25   14   25 ar
  26   15   16 ar
  27   15   50 1
  28   16   17 ar
  29   16   51 1
  30   17   25 ar
  31   17   52 1
  32   18   19 ar
  33   18   23 ar
  34   19   20 ar
  35   19   53 1
  36   20   21 ar
  37   20   54 1
  38   21   22 ar
  39   21   55 1
  40   22   23 ar
  41   22   56 1
  42   23   57 1
  43   24   58 1
  44   24   59 1
  45   24   60 1
  46   25   26 1
  47   27   28 1
  48   27   32 1
  49   28   29 1
  50   28   61 1
  51   28   62 1
  52   29   30 1
  53   29   33 1
  54   29   63 1
  55   30   31 1
  56   30   64 1
  57   31   32 1
  58   31   65 1
  59   31   66 1
  60   32   67 1
  61   32   68 1
  62   33   34 1
  63   33   69 1
  64   33   70 1
  65   34   35 am
  66   34   36 2
  67   35   37 1
  68   35   71 1
  69   37   38 1
  70   37   72 1
  71   37   73 1
  72   38   39 1
  73   38   74 1
  74   38   75 1
  75   39   40 1
  76   40   76 1
  77   40   77 1
  78   40   78 1
  79   41   42 am
  80   41   43 2
  81   42   44 1
  82   42   79 1
  83   44   45 1
  84   44   80 1
  85   44   81 1
  86   45   82 1
  87   45   83 1
  88   45   84 1

#	End of record

