#	Name: ASD11940014
#	Creating user name:	WinNT
#	Creation time:	15. 06. 2019 21:29

#	Modifying user name:	WinNT
#	Modification time:	15. 06. 2019 21:29

#	Program:	/corina/corina34_cracker 3.40 0067  02.08.2006

@<TRIPOS>MOLECULE
ASD11940014
   8    7    0    0    0
SMALL
NO_CHARGES


@<TRIPOS>ATOM
   1 O1            -0.0204     1.6558     0.0111 O.3     
   2 O2             0.0246    -1.6639    -0.0071 O.3     
   3 O3             0.8457    -0.0005     1.4317 O.3     
   4 S4             0.0021    -0.0041     0.0020 Du      
   5 H5             0.8575     2.0611     0.0049 H       
   6 H6            -0.4190    -2.0591    -0.7701 H       
   7 H7             1.0336     0.8837     1.7753 H       
   8 H8            -1.4077    -0.0233     0.0154 H       
@<TRIPOS>BOND
   1    1    4 1
   2    1    5 1
   3    2    4 1
   4    2    6 1
   5    3    4 1
   6    3    7 1
   7    4    8 1

#	End of record

