#	Name: ASD11000031
#	Creating user name:	WinNT
#	Creation time:	15. 06. 2019 21:28

#	Modifying user name:	WinNT
#	Modification time:	15. 06. 2019 21:28

#	Program:	/corina/corina34_cracker 3.40 0067  02.08.2006

@<TRIPOS>MOLECULE
ASD11000031
  59   62    0    0    0
SMALL
NO_CHARGES


@<TRIPOS>ATOM
   1 C1            -1.4268    -0.0236    -0.5435 C.ar    
   2 C2            -0.9194    -1.2882    -0.3170 C.ar    
   3 C3             0.4509    -1.5008    -0.3438 C.ar    
   4 C4             1.3118    -0.4434    -0.5978 C.ar    
   5 C5             0.8045     0.8212    -0.8243 C.ar    
   6 C6            -0.5659     1.0337    -0.7979 C.ar    
   7 O7            -1.0653     2.2786    -1.0214 O.3     
   8 C8            -2.4862     2.4247    -0.9792 C.3     
   9 O9             0.9503    -2.7457    -0.1208 O.3     
  10 C10            2.3712    -2.8920    -0.1635 C.3     
  11 C11            2.7421    -4.3512     0.1087 C.3     
  12 N12            2.2484    -4.7412     1.4337 N.am    
  13 C13            2.1194    -5.2323    -0.9453 C.ar    
  14 C14            1.4163    -6.3739    -0.6296 C.ar    
  15 C15            2.2758    -4.8591    -2.2735 C.ar    
  16 C16            0.8790    -7.1536    -1.6470 C.ar    
  17 C17            1.0354    -6.7886    -2.9712 C.ar    
  18 C18            1.7371    -5.6293    -3.2880 C.ar    
  19 C19            2.1930    -6.1808     1.7373 C.3     
  20 C20            1.1813    -6.8222     0.7891 C.3     
  21 C21            1.8614    -3.8189     2.3370 C.2     
  22 O22            2.0270    -2.6367     2.1077 O.2     
  23 C23            1.2354    -4.2450     3.6068 C.ar    
  24 C24            1.3678    -3.4582     4.7518 C.ar    
  25 C25            0.5048    -5.4329     3.6639 C.ar    
  26 C26           -0.0775    -5.8251     4.8539 C.ar    
  27 C27            0.0634    -5.0411     5.9880 C.ar    
  28 C28            0.7816    -3.8604     5.9345 C.ar    
  29 O29            1.8931    -5.2569    -4.5866 O.3     
  30 C30            2.6254    -4.0549    -4.8333 C.3     
  31 O31            0.5059    -7.5584    -3.9593 O.3     
  32 C32           -0.2015    -8.7333    -3.5578 C.3     
  33 F33           -0.7855    -6.9742     4.9118 F       
  34 H34           -2.4940     0.1411    -0.5270 H       
  35 H35           -1.5898    -2.1114    -0.1185 H       
  36 H36            2.3789    -0.6088    -0.6180 H       
  37 H37            1.4749     1.6447    -1.0217 H       
  38 H38           -2.7505     3.4642    -1.1734 H       
  39 H39           -2.9398     1.7867    -1.7376 H       
  40 H40           -2.8522     2.1348     0.0058 H       
  41 H41            2.7369    -2.6018    -1.1485 H       
  42 H42            2.8250    -2.2541     0.5950 H       
  43 H43            3.8261    -4.4615     0.0787 H       
  44 H44            2.8224    -3.9598    -2.5163 H       
  45 H45            0.3345    -8.0532    -1.4008 H       
  46 H46            3.1755    -6.6277     1.5854 H       
  47 H47            1.8757    -6.3280     2.7696 H       
  48 H48            0.1742    -6.5366     1.0930 H       
  49 H49            1.2771    -7.9066     0.8428 H       
  50 H50            1.9285    -2.5360     4.7124 H       
  51 H51            0.3947    -6.0437     2.7800 H       
  52 H52           -0.3936    -5.3509     6.9162 H       
  53 H53            0.8877    -3.2539     6.8218 H       
  54 H54            2.1245    -3.2179    -4.3468 H       
  55 H55            3.6347    -4.1559    -4.4343 H       
  56 H56            2.6756    -3.8739    -5.9070 H       
  57 H57            0.4692    -9.3894    -3.0030 H       
  58 H58           -1.0420    -8.4522    -2.9232 H       
  59 H59           -0.5713    -9.2544    -4.4409 H       
@<TRIPOS>BOND
   1    1    2 ar
   2    1    6 ar
   3    1   34 1
   4    2    3 ar
   5    2   35 1
   6    3    4 ar
   7    3    9 1
   8    4    5 ar
   9    4   36 1
  10    5    6 ar
  11    5   37 1
  12    6    7 1
  13    7    8 1
  14    8   38 1
  15    8   39 1
  16    8   40 1
  17    9   10 1
  18   10   11 1
  19   10   41 1
  20   10   42 1
  21   11   12 1
  22   11   13 1
  23   11   43 1
  24   12   19 1
  25   12   21 am
  26   13   14 ar
  27   13   15 ar
  28   14   16 ar
  29   14   20 1
  30   15   18 ar
  31   15   44 1
  32   16   17 ar
  33   16   45 1
  34   17   18 ar
  35   17   31 1
  36   18   29 1
  37   19   20 1
  38   19   46 1
  39   19   47 1
  40   20   48 1
  41   20   49 1
  42   21   22 2
  43   21   23 1
  44   23   24 ar
  45   23   25 ar
  46   24   28 ar
  47   24   50 1
  48   25   26 ar
  49   25   51 1
  50   26   27 ar
  51   26   33 1
  52   27   28 ar
  53   27   52 1
  54   28   53 1
  55   29   30 1
  56   30   54 1
  57   30   55 1
  58   30   56 1
  59   31   32 1
  60   32   57 1
  61   32   58 1
  62   32   59 1

#	End of record

