#	Name: ASD11000224
#	Creating user name:	WinNT
#	Creation time:	15. 06. 2019 21:29

#	Modifying user name:	WinNT
#	Modification time:	15. 06. 2019 21:29

#	Program:	/corina/corina34_cracker 3.40 0067  02.08.2006

@<TRIPOS>MOLECULE
ASD11000224
  47   50    0    0    0
SMALL
NO_CHARGES


@<TRIPOS>ATOM
   1 N1            -0.0172     1.3214    -0.0112 N.ar    
   2 C2             0.0016    -0.0034    -0.0060 C.ar    
   3 N3             1.1402    -0.6810    -0.0155 N.ar    
   4 C4             2.3025    -0.0498    -0.0306 C.ar    
   5 C5             2.3192     1.3362    -0.0364 C.ar    
   6 C6             1.1098     2.0135    -0.0262 C.ar    
   7 N7            -1.1976    -0.6966     0.0102 N.pl3   
   8 C8            -1.2012    -2.0902    -0.1028 C.ar    
   9 C9            -2.1493    -2.8414     0.5799 C.ar    
  10 C10           -0.2601    -2.7260    -0.9024 C.ar    
  11 C11           -0.2667    -4.1027    -1.0122 C.ar    
  12 C12           -1.2087    -4.8480    -0.3271 C.ar    
  13 C13           -2.1502    -4.2178     0.4657 C.ar    
  14 C14            3.6238     2.0903    -0.0531 C.3     
  15 C15            4.0504     2.3396    -1.5011 C.3     
  16 C16            5.3550     3.0938    -1.5178 C.ar    
  17 C17            6.5337     2.4054    -1.5272 C.ar    
  18 C18            7.7442     3.1065    -1.5427 C.ar    
  19 C19            7.7337     4.5150    -1.5483 C.ar    
  20 C20            6.5158     5.1898    -1.5384 C.ar    
  21 C21            5.3466     4.4829    -1.5291 C.ar    
  22 C22           -1.2131    -6.3500    -0.4497 C.3     
  23 C23           -0.3198    -6.9530     0.6363 C.3     
  24 C24            9.1477     2.7070    -1.5556 C.2     
  25 N25            9.8698     3.7908    -1.5676 N.2     
  26 N26            9.0431     4.9191    -1.5636 N.pl3   
  27 H27            3.2273    -0.6076    -0.0379 H       
  28 H28            1.0881     3.0933    -0.0307 H       
  29 H29           -2.0349    -0.2152     0.1000 H       
  30 H30           -2.8847    -2.3499     1.1995 H       
  31 H31            0.4756    -2.1445    -1.4380 H       
  32 H32            0.4645    -4.5977    -1.6341 H       
  33 H33           -2.8846    -4.8028     0.9995 H       
  34 H34            3.4983     3.0448     0.4582 H       
  35 H35            4.3891     1.5037     0.4552 H       
  36 H36            4.1758     1.3852    -2.0124 H       
  37 H37            3.2851     2.9262    -2.0094 H       
  38 H38            6.5318     1.3254    -1.5224 H       
  39 H39            6.4953     6.2696    -1.5423 H       
  40 H40            4.4043     5.0106    -1.5214 H       
  41 H41           -2.2310    -6.7213    -0.3304 H       
  42 H42           -0.8349    -6.6356    -1.4313 H       
  43 H43            0.6981    -6.5817     0.5170 H       
  44 H44           -0.6980    -6.6674     1.6178 H       
  45 H45           -0.3230    -8.0394     0.5476 H       
  46 H46            9.5210     1.6936    -1.5548 H       
  47 H47            9.3478     5.8400    -1.5703 H       
@<TRIPOS>BOND
   1    1    2 ar
   2    1    6 ar
   3    2    3 ar
   4    2    7 1
   5    3    4 ar
   6    4    5 ar
   7    4   27 1
   8    5    6 ar
   9    5   14 1
  10    6   28 1
  11    7    8 1
  12    7   29 1
  13    8    9 ar
  14    8   10 ar
  15    9   13 ar
  16    9   30 1
  17   10   11 ar
  18   10   31 1
  19   11   12 ar
  20   11   32 1
  21   12   13 ar
  22   12   22 1
  23   13   33 1
  24   14   15 1
  25   14   34 1
  26   14   35 1
  27   15   16 1
  28   15   36 1
  29   15   37 1
  30   16   17 ar
  31   16   21 ar
  32   17   18 ar
  33   17   38 1
  34   18   19 ar
  35   18   24 1
  36   19   20 ar
  37   19   26 1
  38   20   21 ar
  39   20   39 1
  40   21   40 1
  41   22   23 1
  42   22   41 1
  43   22   42 1
  44   23   43 1
  45   23   44 1
  46   23   45 1
  47   24   25 2
  48   24   46 1
  49   25   26 1
  50   26   47 1

#	End of record

