#	Name: ASD11400004
#	Creating user name:	WinNT
#	Creation time:	15. 06. 2019 21:29

#	Modifying user name:	WinNT
#	Modification time:	15. 06. 2019 21:29

#	Program:	/corina/corina34_cracker 3.40 0067  02.08.2006

@<TRIPOS>MOLECULE
ASD11400004
  86   92    0    0    0
SMALL
NO_CHARGES


@<TRIPOS>ATOM
   1 O1            -0.5449     0.8848    -0.8888 O.2     
   2 C2             0.2136     1.0615     0.0409 C.2     
   3 C3             1.4437     1.9127    -0.1415 C.3     
   4 N4             1.2709     2.7760    -1.3124 N.am    
   5 S5             0.2564     4.0826    -1.2354 S.o2    
   6 O6            -0.0946     4.3977    -2.5759 O.2     
   7 O7            -0.7031     3.7868    -0.2298 O.2     
   8 C8             1.2023     5.4428    -0.6358 C.ar    
   9 C9             1.5796     6.4422    -1.4811 C.ar    
  10 C10            2.3279     7.5254    -1.0238 C.ar    
  11 C11            2.7046     7.6188     0.2815 C.ar    
  12 C12            2.3338     6.6081     1.1823 C.ar    
  13 C13            1.5677     5.5080     0.7165 C.ar    
  14 C14            1.2087     4.5089     1.6396 C.ar    
  15 C15            1.6105     4.6406     2.9341 C.ar    
  16 N16            2.3262     5.6794     3.3429 N.ar    
  17 C17            2.6927     6.6502     2.5393 C.ar    
  18 C18            1.9957     2.4835    -2.5515 C.3     
  19 C19            2.6621     1.0106    -0.3483 C.3     
  20 C20            3.9130     1.8510    -0.3607 C.ar    
  21 C21            3.8178     3.2303    -0.3633 C.ar    
  22 C22            4.9630     4.0029    -0.3747 C.ar    
  23 C23            6.2093     3.3935    -0.3836 C.ar    
  24 C24            6.3021     2.0093    -0.3810 C.ar    
  25 C25            5.1539     1.2413    -0.3639 C.ar    
  26 O26            7.3373     4.1513    -0.3953 O.3     
  27 S27            7.8630     4.5003     0.9898 S.o2    
  28 O28            8.9063     5.4456     0.7965 O.2     
  29 O29            6.7231     4.7555     1.7990 O.2     
  30 C30            8.6208     3.0491     1.6410 C.ar    
  31 C31            7.9317     2.2368     2.4899 C.ar    
  32 C32            8.5156     1.0850     3.0144 C.ar    
  33 C33            9.7923     0.7358     2.6944 C.ar    
  34 C34           10.5335     1.5482     1.8221 C.ar    
  35 C35            9.9362     2.7182     1.2849 C.ar    
  36 C36           10.7004     3.5149     0.4128 C.ar    
  37 C37           11.9742     3.1302     0.1236 C.ar    
  38 N38           12.5082     2.0316     0.6398 N.ar    
  39 C39           11.8535     1.2391     1.4557 C.ar    
  40 N40           -0.0466     0.5012     1.2388 N.am    
  41 C41           -1.2446    -0.3280     1.4401 C.3     
  42 C42           -0.8164    -1.6566     2.0723 C.3     
  43 N43           -0.0356    -1.3879     3.2872 N.3     
  44 C44            1.2052    -0.6663     2.9746 C.3     
  45 C45            0.8630     0.6978     2.3777 C.3     
  46 C46            0.2339    -2.5700     3.9807 C.ar    
  47 C47            0.9636    -2.5331     5.1621 C.ar    
  48 C48            1.2279    -3.7038     5.8455 C.ar    
  49 C49            0.7671    -4.9117     5.3548 C.ar    
  50 C50            0.0405    -4.9521     4.1790 C.ar    
  51 C51           -0.2319    -3.7846     3.4934 C.ar    
  52 H52            1.5940     2.5288     0.7451 H       
  53 H53            1.2948     6.3942    -2.5217 H       
  54 H54            2.6140     8.3034    -1.7161 H       
  55 H55            3.2848     8.4641     0.6210 H       
  56 H56            0.6259     3.6547     1.3280 H       
  57 H57            1.3381     3.8775     3.6481 H       
  58 H58            3.2760     7.4759     2.9193 H       
  59 H59            1.4040     1.8062    -3.1673 H       
  60 H60            2.1716     3.4106    -3.0971 H       
  61 H61            2.9508     2.0160    -2.3120 H       
  62 H62            2.7194     0.2857     0.4637 H       
  63 H63            2.5679     0.4851    -1.2985 H       
  64 H64            2.8473     3.7042    -0.3567 H       
  65 H65            4.8881     5.0803    -0.3770 H       
  66 H66            7.2712     1.5326    -0.3879 H       
  67 H67            5.2256     0.1637    -0.3619 H       
  68 H68            6.9172     2.4892     2.7611 H       
  69 H69            7.9463     0.4594     3.6858 H       
  70 H70           10.2315    -0.1596     3.1090 H       
  71 H71           10.2849     4.4134    -0.0190 H       
  72 H72           12.5664     3.7370    -0.5454 H       
  73 H73           12.3317     0.3550     1.8508 H       
  74 H74           -1.9388     0.1867     2.1044 H       
  75 H75           -1.7245    -0.5173     0.4798 H       
  76 H76           -1.7012    -2.2387     2.3298 H       
  77 H77           -0.2057    -2.2164     1.3639 H       
  78 H78            1.7865    -0.5303     3.8866 H       
  79 H79            1.7877    -1.2399     2.2536 H       
  80 H80            1.7754     1.1886     2.0391 H       
  81 H81            0.3702     1.3136     3.1302 H       
  82 H82            1.3241    -1.5900     5.5457 H       
  83 H83            1.7955    -3.6758     6.7639 H       
  84 H84            0.9755    -5.8258     5.8910 H       
  85 H85           -0.3180    -5.8971     3.7986 H       
  86 H86           -0.7998    -3.8167     2.5753 H       
@<TRIPOS>BOND
   1    1    2 2
   2    2    3 1
   3    2   40 am
   4    3    4 1
   5    3   19 1
   6    3   52 1
   7    4    5 am
   8    4   18 1
   9    5    6 2
  10    5    7 2
  11    5    8 1
  12    8    9 ar
  13    8   13 ar
  14    9   10 ar
  15    9   53 1
  16   10   11 ar
  17   10   54 1
  18   11   12 ar
  19   11   55 1
  20   12   13 ar
  21   12   17 ar
  22   13   14 ar
  23   14   15 ar
  24   14   56 1
  25   15   16 ar
  26   15   57 1
  27   16   17 ar
  28   17   58 1
  29   18   59 1
  30   18   60 1
  31   18   61 1
  32   19   20 1
  33   19   62 1
  34   19   63 1
  35   20   21 ar
  36   20   25 ar
  37   21   22 ar
  38   21   64 1
  39   22   23 ar
  40   22   65 1
  41   23   24 ar
  42   23   26 1
  43   24   25 ar
  44   24   66 1
  45   25   67 1
  46   26   27 1
  47   27   28 2
  48   27   29 2
  49   27   30 1
  50   30   31 ar
  51   30   35 ar
  52   31   32 ar
  53   31   68 1
  54   32   33 ar
  55   32   69 1
  56   33   34 ar
  57   33   70 1
  58   34   35 ar
  59   34   39 ar
  60   35   36 ar
  61   36   37 ar
  62   36   71 1
  63   37   38 ar
  64   37   72 1
  65   38   39 ar
  66   39   73 1
  67   40   41 1
  68   40   45 1
  69   41   42 1
  70   41   74 1
  71   41   75 1
  72   42   43 1
  73   42   76 1
  74   42   77 1
  75   43   44 1
  76   43   46 1
  77   44   45 1
  78   44   78 1
  79   44   79 1
  80   45   80 1
  81   45   81 1
  82   46   47 ar
  83   46   51 ar
  84   47   48 ar
  85   47   82 1
  86   48   49 ar
  87   48   83 1
  88   49   50 ar
  89   49   84 1
  90   50   51 ar
  91   50   85 1
  92   51   86 1

#	End of record

