#	Name: ASD11000112
#	Creating user name:	WinNT
#	Creation time:	15. 06. 2019 21:28

#	Modifying user name:	WinNT
#	Modification time:	15. 06. 2019 21:28

#	Program:	/corina/corina34_cracker 3.40 0067  02.08.2006

@<TRIPOS>MOLECULE
ASD11000112
  65   69    0    0    0
SMALL
NO_CHARGES


@<TRIPOS>ATOM
   1 O1             0.8701     1.7118    -0.1827 O.3     
   2 C2             0.3128     0.4132     0.0297 C.3     
   3 N3             0.6575    -0.0513     1.3776 N.am    
   4 C4            -1.1869     0.4805    -0.1165 C.ar    
   5 C5            -2.0378     0.3692     0.9609 C.ar    
   6 C6            -1.7036     0.6634    -1.3922 C.ar    
   7 C7            -3.4109     0.4551     0.7641 C.ar    
   8 C8            -3.9303     0.6407    -0.5036 C.ar    
   9 C9            -3.0696     0.7439    -1.5923 C.ar    
  10 C10           -0.0813     0.5398     2.5055 C.3     
  11 C11           -1.5491     0.1392     2.3670 C.3     
  12 C12            1.6119    -0.9821     1.5755 C.2     
  13 O13            2.1564    -1.5065     0.6234 O.2     
  14 C14            1.9966    -1.3653     2.9499 C.ar    
  15 C15            1.0182    -1.7227     3.8631 C.ar    
  16 C16            2.2811     1.7089    -0.4083 C.3     
  17 C17            2.7590     3.1226    -0.6189 C.ar    
  18 C18            3.1664     3.8817     0.4625 C.ar    
  19 C19            2.7947     3.6563    -1.8939 C.ar    
  20 C20            3.2328     4.9517    -2.0897 C.ar    
  21 C21            3.6371     5.7173    -1.0056 C.ar    
  22 C22            3.6049     5.1778     0.2721 C.ar    
  23 O23            4.0689     6.9918    -1.1957 O.3     
  24 C24            4.4697     7.7210    -0.0339 C.3     
  25 C25            3.3534    -1.3699     3.3191 C.ar    
  26 C26            3.7318    -1.7189     4.5752 C.ar    
  27 C27            2.7619    -2.0817     5.5272 C.ar    
  28 C28            1.3904    -2.0857     5.1657 C.ar    
  29 C29           -6.0960     0.6075     0.4785 C.3     
  30 O30           -5.2755     0.7222    -0.6858 O.3     
  31 C31            3.1292    -2.4462     6.8334 C.ar    
  32 C32            2.1679    -2.7922     7.7331 C.ar    
  33 C33            0.8198    -2.7913     7.3797 C.ar    
  34 C34            0.4258    -2.4493     6.1228 C.ar    
  35 O35           -3.5686     0.9222    -2.8448 O.3     
  36 C36           -2.6233     1.0192    -3.9120 C.3     
  37 H37            0.7176    -0.2802    -0.7075 H       
  38 H38           -1.0332     0.7438    -2.2351 H       
  39 H39           -4.0785     0.3756     1.6093 H       
  40 H40            0.3172     0.1607     3.4466 H       
  41 H41            0.0088     1.6257     2.4769 H       
  42 H42           -2.1493     0.7328     3.0566 H       
  43 H43           -1.6576    -0.9165     2.6160 H       
  44 H44           -0.0225    -1.7216     3.5745 H       
  45 H45            2.7865     1.2796     0.4568 H       
  46 H46            2.5064     1.1136    -1.2931 H       
  47 H47            3.1415     3.4612     1.4570 H       
  48 H48            2.4802     3.0598    -2.7375 H       
  49 H49            3.2609     5.3680    -3.0858 H       
  50 H50            3.9192     5.7717     1.1176 H       
  51 H51            4.7911     8.7208    -0.3255 H       
  52 H52            3.6289     7.7963     0.6557 H       
  53 H53            5.2946     7.2020     0.4542 H       
  54 H54            4.1041    -1.0925     2.5939 H       
  55 H55            4.7780    -1.7182     4.8437 H       
  56 H56           -7.1448     0.6895     0.1934 H       
  57 H57           -5.9225    -0.3590     0.9515 H       
  58 H58           -5.8465     1.4047     1.1787 H       
  59 H59            4.1698    -2.4521     7.1224 H       
  60 H60            2.4544    -3.0721     8.7361 H       
  61 H61            0.0773    -3.0704     8.1127 H       
  62 H62           -0.6224    -2.4530     5.8627 H       
  63 H63           -3.1525     1.1596    -4.8545 H       
  64 H64           -1.9628     1.8683    -3.7363 H       
  65 H65           -2.0335     0.1038    -3.9593 H       
@<TRIPOS>BOND
   1    1    2 1
   2    1   16 1
   3    2    3 1
   4    2    4 1
   5    2   37 1
   6    3   10 1
   7    3   12 am
   8    4    5 ar
   9    4    6 ar
  10    5    7 ar
  11    5   11 1
  12    6    9 ar
  13    6   38 1
  14    7    8 ar
  15    7   39 1
  16    8    9 ar
  17    8   30 1
  18    9   35 1
  19   10   11 1
  20   10   40 1
  21   10   41 1
  22   11   42 1
  23   11   43 1
  24   12   13 2
  25   12   14 1
  26   14   15 ar
  27   14   25 ar
  28   15   28 ar
  29   15   44 1
  30   16   17 1
  31   16   45 1
  32   16   46 1
  33   17   18 ar
  34   17   19 ar
  35   18   22 ar
  36   18   47 1
  37   19   20 ar
  38   19   48 1
  39   20   21 ar
  40   20   49 1
  41   21   22 ar
  42   21   23 1
  43   22   50 1
  44   23   24 1
  45   24   51 1
  46   24   52 1
  47   24   53 1
  48   25   26 ar
  49   25   54 1
  50   26   27 ar
  51   26   55 1
  52   27   28 ar
  53   27   31 ar
  54   28   34 ar
  55   29   30 1
  56   29   56 1
  57   29   57 1
  58   29   58 1
  59   31   32 ar
  60   31   59 1
  61   32   33 ar
  62   32   60 1
  63   33   34 ar
  64   33   61 1
  65   34   62 1
  66   35   36 1
  67   36   63 1
  68   36   64 1
  69   36   65 1

#	End of record

