#	Name: ASD15280001
#	Creating user name:	WinNT
#	Creation time:	15. 06. 2019 21:31

#	Modifying user name:	WinNT
#	Modification time:	15. 06. 2019 21:31

#	Program:	/corina/corina34_cracker 3.40 0067  02.08.2006

@<TRIPOS>MOLECULE
ASD15280001
  52   55    0    0    0
SMALL
NO_CHARGES


@<TRIPOS>ATOM
   1 C1            -1.7755     1.1944     1.4440 C.3     
   2 O2            -1.6594    -0.2297     1.4203 O.3     
   3 C3            -1.4484    -0.8074     0.2190 C.2     
   4 O4            -1.3653    -0.1189    -0.7810 O.2     
   5 C5            -1.3239    -2.2121     0.1224 C.2     
   6 C6            -2.4315    -2.9785     0.1355 C.2     
   7 N7            -2.3151    -4.3409     0.0467 N.pl3   
   8 C8            -1.0957    -4.9395     0.2993 C.2     
   9 N9             0.0053    -4.2554     0.2886 N.2     
  10 C10            0.0414    -2.8268     0.0005 C.3     
  11 C11            0.5502    -2.6247    -1.4036 C.ar    
  12 C12            0.3141    -3.5858    -2.3689 C.ar    
  13 C13            0.7801    -3.4017    -3.6567 C.ar    
  14 C14            1.4841    -2.2540    -3.9810 C.ar    
  15 C15            1.7201    -1.2916    -3.0145 C.ar    
  16 C16            1.2483    -1.4750    -1.7271 C.ar    
  17 Cl17           1.5384    -0.2659    -0.5158 Cl      
  18 F18            1.9406    -2.0741    -5.2397 F       
  19 C19           -1.0458    -6.3853     0.5875 C.2     
  20 N20           -2.0742    -7.1874     0.6240 N.2     
  21 C21           -1.8108    -8.4418     0.8941 C.2     
  22 C22           -0.5200    -8.7356     1.0972 C.2     
  23 S23            0.4123    -7.3111     0.9306 S.3     
  24 C24           -3.7922    -2.3406     0.2479 C.3     
  25 N25           -4.5629    -2.6126    -0.9728 N.3     
  26 C26           -4.0094    -1.8697    -2.1257 C.3     
  27 C27           -5.1973    -1.4819    -3.0257 C.3     
  28 C28           -6.4492    -2.0216    -2.2966 C.3     
  29 C29           -5.9672    -2.1505    -0.8298 C.3     
  30 C30           -6.7901    -3.1716    -0.0873 C.2     
  31 O31           -8.1111    -2.9874     0.0641 O.3     
  32 O32           -6.2609    -4.1560     0.3717 O.2     
  33 F33           -5.0706    -2.0829    -4.2826 F       
  34 F34           -5.2735    -0.0912    -3.1568 F       
  35 H35           -1.9428     1.5283     2.4680 H       
  36 H36           -0.8571     1.6401     1.0620 H       
  37 H37           -2.6150     1.5009     0.8201 H       
  38 H38           -3.0842    -4.8818    -0.1918 H       
  39 H39            0.7183    -2.3346     0.6988 H       
  40 H40           -0.2346    -4.4811    -2.1164 H       
  41 H41            0.5956    -4.1530    -4.4103 H       
  42 H42            2.2693    -0.3964    -3.2663 H       
  43 H43           -2.5858    -9.1918     0.9498 H       
  44 H44           -0.1300    -9.7157     1.3292 H       
  45 H45           -4.3174    -2.7541     1.1088 H       
  46 H46           -3.6794    -1.2638     0.3739 H       
  47 H47           -3.4983    -0.9718    -1.7781 H       
  48 H48           -3.3164    -2.5042    -2.6783 H       
  49 H49           -7.2741    -1.3130    -2.3707 H       
  50 H50           -6.7379    -2.9944    -2.6947 H       
  51 H51           -6.0077    -1.1851    -0.3253 H       
  52 H52           -8.5969    -3.6695     0.5476 H       
@<TRIPOS>BOND
   1    1    2 1
   2    1   35 1
   3    1   36 1
   4    1   37 1
   5    2    3 1
   6    3    4 2
   7    3    5 1
   8    5   10 1
   9    5    6 2
  10    6    7 1
  11    6   24 1
  12    7    8 1
  13    7   38 1
  14    8    9 2
  15    8   19 1
  16    9   10 1
  17   10   11 1
  18   10   39 1
  19   11   16 ar
  20   11   12 ar
  21   12   13 ar
  22   12   40 1
  23   13   14 ar
  24   13   41 1
  25   14   18 1
  26   14   15 ar
  27   15   16 ar
  28   15   42 1
  29   16   17 1
  30   19   23 1
  31   19   20 2
  32   20   21 1
  33   21   22 2
  34   21   43 1
  35   22   23 1
  36   22   44 1
  37   24   25 1
  38   24   45 1
  39   24   46 1
  40   25   26 1
  41   25   29 1
  42   26   27 1
  43   26   47 1
  44   26   48 1
  45   27   28 1
  46   27   33 1
  47   27   34 1
  48   28   29 1
  49   28   49 1
  50   28   50 1
  51   29   30 1
  52   29   51 1
  53   30   31 1
  54   30   32 2
  55   31   52 1

#	End of record

