#	Name: ASD14250002
#	Creating user name:	WinNT
#	Creation time:	15. 06. 2019 21:31

#	Modifying user name:	WinNT
#	Modification time:	15. 06. 2019 21:31

#	Program:	/corina/corina34_cracker 3.40 0067  02.08.2006

@<TRIPOS>MOLECULE
ASD14250002
  42   43    0    0    0
SMALL
NO_CHARGES


@<TRIPOS>ATOM
   1 C1            -0.0250     1.3797    -0.0220 C.ar    
   2 C2             0.0142    -0.0010     0.0443 C.ar    
   3 C3             1.2286    -0.6585     0.0663 C.ar    
   4 C4             2.4108     0.0682     0.0218 C.ar    
   5 C5             2.3682     1.4545    -0.0447 C.ar    
   6 C6             1.1507     2.1063    -0.0664 C.ar    
   7 N7             3.6447    -0.5960     0.0445 N.pl3   
   8 C8             4.7733    -0.2149    -0.6143 C.2     
   9 C9             5.7415    -1.1285    -0.3270 C.2     
  10 C10            5.1874    -2.0867     0.5264 C.2     
  11 N11            3.9387    -1.7675     0.7539 N.2     
  12 C12            5.9081    -3.2823     1.0940 C.3     
  13 C13            6.8512    -2.8270     2.2094 C.3     
  14 C14            4.8875    -4.2711     1.6610 C.3     
  15 C15            6.7172    -3.9625    -0.0121 C.3     
  16 N16            4.9122     0.9037    -1.4320 N.pl3   
  17 C17            6.1603     1.2398    -1.9440 C.2     
  18 N18            7.2311     1.4504    -1.0829 N.pl3   
  19 C19            6.3300     1.3598    -3.2585 C.2     
  20 C20           -1.3518     2.0937    -0.0521 C.3     
  21 H21           -0.9057    -0.5657     0.0792 H       
  22 H22            1.2586    -1.7368     0.1184 H       
  23 H23            3.2862     2.0225    -0.0790 H       
  24 H24            1.1169     3.1845    -0.1185 H       
  25 H25            6.7573    -1.1149    -0.6935 H       
  26 H26            6.2748    -2.3424     2.9974 H       
  27 H27            7.3725    -3.6918     2.6200 H       
  28 H28            7.5783    -2.1226     1.8055 H       
  29 H29            4.2156    -4.5954     0.8664 H       
  30 H30            5.4088    -5.1359     2.0716 H       
  31 H31            4.3111    -3.7865     2.4491 H       
  32 H32            7.4443    -3.2580    -0.4161 H       
  33 H33            7.2385    -4.8273     0.3984 H       
  34 H34            6.0452    -4.2868    -0.8067 H       
  35 H35            4.1382     1.4484    -1.6443 H       
  36 H36            7.0916     1.4360    -0.1230 H       
  37 H37            8.1176     1.6118    -1.4418 H       
  38 H38            5.4981     1.1961    -3.9275 H       
  39 H39            7.2996     1.6208    -3.6562 H       
  40 H40           -1.6684     2.3152     0.9671 H       
  41 H41           -1.2512     3.0238    -0.6116 H       
  42 H42           -2.0953     1.4586    -0.5336 H       
@<TRIPOS>BOND
   1    1    2 ar
   2    1    6 ar
   3    1   20 1
   4    2    3 ar
   5    2   21 1
   6    3    4 ar
   7    3   22 1
   8    4    5 ar
   9    4    7 1
  10    5    6 ar
  11    5   23 1
  12    6   24 1
  13    7    8 1
  14    7   11 1
  15    8    9 2
  16    8   16 1
  17    9   10 1
  18    9   25 1
  19   10   11 2
  20   10   12 1
  21   12   13 1
  22   12   14 1
  23   12   15 1
  24   13   26 1
  25   13   27 1
  26   13   28 1
  27   14   29 1
  28   14   30 1
  29   14   31 1
  30   15   32 1
  31   15   33 1
  32   15   34 1
  33   16   17 1
  34   16   35 1
  35   17   18 1
  36   17   19 2
  37   18   36 1
  38   18   37 1
  39   19   38 1
  40   19   39 1
  41   20   40 1
  42   20   41 1
  43   20   42 1

#	End of record

