#	Name: ASD10160251
#	Creating user name:	WinNT
#	Creation time:	15. 06. 2019 21:25

#	Modifying user name:	WinNT
#	Modification time:	15. 06. 2019 21:25

#	Program:	/corina/corina34_cracker 3.40 0067  02.08.2006

@<TRIPOS>MOLECULE
ASD10160251
  39   41    0    0    0
SMALL
NO_CHARGES


@<TRIPOS>ATOM
   1 C1             0.1205     1.4716    -0.0147 C.2     
   2 C2             0.1040    -0.0047    -0.0173 C.ar    
   3 C3             1.2928    -0.7145    -0.1763 C.ar    
   4 C4             1.2715    -2.1070    -0.1776 C.ar    
   5 C5             0.0522    -2.7855    -0.0186 C.ar    
   6 C6            -1.1263    -2.0678     0.1391 C.ar    
   7 C7            -1.1042    -0.6910     0.1456 C.ar    
   8 O8             1.1711     2.0680    -0.1512 O.2     
   9 N9            -1.0298     2.1581     0.1335 N.am    
  10 S10           -1.0114     3.8140     0.1364 S.o2    
  11 O11           -2.3700     4.1793     0.3360 O.2     
  12 O12           -0.0142     4.1516     1.0908 O.2     
  13 C13           -0.4703     4.2636    -1.5356 C.3     
  14 O14            0.0255    -4.1404    -0.0195 O.3     
  15 C15            0.7176    -5.9902     3.5909 C.ar    
  16 N16            0.7798    -4.6873     3.4458 N.ar    
  17 C17            0.5590    -4.0816     2.2880 C.ar    
  18 C18            0.2482    -4.7832     1.1559 C.ar    
  19 C19            0.1634    -6.1897     1.2357 C.ar    
  20 C20           -0.1489    -6.9837     0.1244 C.ar    
  21 C21           -0.2155    -8.3374     0.2645 C.ar    
  22 C22            0.0223    -8.9440     1.4964 C.ar    
  23 C23            0.3284    -8.2031     2.5972 C.ar    
  24 C24            0.4058    -6.8055     2.4906 C.ar    
  25 C25            2.4883    -2.8441    -0.3408 C.1     
  26 N26            3.4536    -3.4290    -0.4704 N.1     
  27 H27            2.2270    -0.1866    -0.2985 H       
  28 H28           -2.0629    -2.5915     0.2612 H       
  29 H29           -2.0236    -0.1388     0.2728 H       
  30 H30           -1.8686     1.6822     0.2384 H       
  31 H31           -1.1759     3.8658    -2.2650 H       
  32 H32           -0.4291     5.3492    -1.6245 H       
  33 H33            0.5191     3.8459    -1.7220 H       
  34 H34            0.9106    -6.4358     4.5556 H       
  35 H35            0.6258    -3.0049     2.2372 H       
  36 H36           -0.3358    -6.5262    -0.8359 H       
  37 H37           -0.4566    -8.9495    -0.5920 H       
  38 H38           -0.0374   -10.0192     1.5794 H       
  39 H39            0.5105    -8.6873     3.5453 H       
@<TRIPOS>BOND
   1    1    2 1
   2    1    8 2
   3    1    9 am
   4    2    3 ar
   5    2    7 ar
   6    3    4 ar
   7    3   27 1
   8    4    5 ar
   9    4   25 1
  10    5    6 ar
  11    5   14 1
  12    6    7 ar
  13    6   28 1
  14    7   29 1
  15    9   10 am
  16    9   30 1
  17   10   11 2
  18   10   12 2
  19   10   13 1
  20   13   31 1
  21   13   32 1
  22   13   33 1
  23   14   18 1
  24   15   16 ar
  25   15   24 ar
  26   15   34 1
  27   16   17 ar
  28   17   18 ar
  29   17   35 1
  30   18   19 ar
  31   19   20 ar
  32   19   24 ar
  33   20   21 ar
  34   20   36 1
  35   21   22 ar
  36   21   37 1
  37   22   23 ar
  38   22   38 1
  39   23   24 ar
  40   23   39 1
  41   25   26 3

#	End of record

