#	Name: ASD13490009
#	Creating user name:	WinNT
#	Creation time:	15. 06. 2019 21:30

#	Modifying user name:	WinNT
#	Modification time:	15. 06. 2019 21:30

#	Program:	/corina/corina34_cracker 3.40 0067  02.08.2006

@<TRIPOS>MOLECULE
ASD13490009
  57   60    0    0    0
SMALL
NO_CHARGES


@<TRIPOS>ATOM
   1 C1            -0.5735     1.6057     0.7552 C.2     
   2 C2            -0.6324     0.2654     0.6395 C.2     
   3 N3             0.5614    -0.1710     0.2110 N.2     
   4 C4             1.3634     0.8468     0.0547 C.2     
   5 N5             0.6922     1.9810     0.3849 N.pl3   
   6 C6             1.1975     3.2864     0.3527 C.ar    
   7 C7             0.4836     4.2901    -0.2906 C.ar    
   8 C8             0.9760     5.5758    -0.3257 C.ar    
   9 C9             2.1980     5.8741     0.2879 C.ar    
  10 C10            2.9164     4.8634     0.9360 C.ar    
  11 C11            2.4134     3.5772     0.9715 C.ar    
  12 C12            2.7258     7.2460     0.2512 C.2     
  13 C13            2.4772     8.0363    -0.8141 C.2     
  14 C14            1.7955     7.4939    -2.0544 C.3     
  15 C15            2.5152     8.0989    -3.2684 C.3     
  16 C16            2.3741     9.6191    -3.2275 C.3     
  17 N17            2.8239    10.1633    -1.9536 N.am    
  18 C18            2.8511     9.4559    -0.8139 C.2     
  19 C19            3.2641    11.5600    -1.9130 C.3     
  20 C20            2.0937    12.4642    -2.2025 C.ar    
  21 C21            1.7442    13.4518    -1.3005 C.ar    
  22 C22            0.6714    14.2818    -1.5651 C.ar    
  23 C23           -0.0534    14.1240    -2.7342 C.ar    
  24 C24            0.2975    13.1345    -3.6369 C.ar    
  25 C25            1.3740    12.3091    -3.3726 C.ar    
  26 F26           -1.1026    14.9346    -2.9938 F       
  27 C27            4.3528    11.7824    -2.9648 C.3     
  28 O28            3.1920     9.9916     0.2244 O.2     
  29 O29            3.1061     2.5938     1.6051 O.3     
  30 C30            4.3436     2.9627     2.2170 C.3     
  31 C31           -1.8320    -0.5957     0.9405 C.3     
  32 H32           -1.3715     2.2599     1.0739 H       
  33 H33            2.3888     0.7959    -0.2806 H       
  34 H34           -0.4595     4.0613    -0.7645 H       
  35 H35            0.4193     6.3538    -0.8270 H       
  36 H36            3.8600     5.0890     1.4105 H       
  37 H37            3.3123     7.6212     1.0767 H       
  38 H38            1.8773     6.4072    -2.0779 H       
  39 H39            0.7461     7.7884    -2.0601 H       
  40 H40            3.5710     7.8300    -3.2373 H       
  41 H41            2.0675     7.7159    -4.1854 H       
  42 H42            2.9693    10.0537    -4.0306 H       
  43 H43            1.3275     9.8838    -3.3782 H       
  44 H44            3.6625    11.7868    -0.9241 H       
  45 H45            2.3095    13.5745    -0.3885 H       
  46 H46            0.3983    15.0531    -0.8602 H       
  47 H47           -0.2671    13.0105    -4.5491 H       
  48 H48            1.6505    11.5399    -4.0785 H       
  49 H49            3.9544    11.5557    -3.9537 H       
  50 H50            4.6803    12.8216    -2.9346 H       
  51 H51            5.1993    11.1285    -2.7554 H       
  52 H52            4.1616     3.7265     2.9730 H       
  53 H53            4.7924     2.0870     2.6859 H       
  54 H54            5.0208     3.3560     1.4588 H       
  55 H55           -2.4356    -0.7055     0.0396 H       
  56 H56           -1.4992    -1.5776     1.2768 H       
  57 H57           -2.4288    -0.1267     1.7228 H       
@<TRIPOS>BOND
   1    1    2 2
   2    1    5 1
   3    1   32 1
   4    2    3 1
   5    2   31 1
   6    3    4 2
   7    4    5 1
   8    4   33 1
   9    5    6 1
  10    6    7 ar
  11    6   11 ar
  12    7    8 ar
  13    7   34 1
  14    8    9 ar
  15    8   35 1
  16    9   10 ar
  17    9   12 1
  18   10   11 ar
  19   10   36 1
  20   11   29 1
  21   12   13 2
  22   12   37 1
  23   13   14 1
  24   13   18 1
  25   14   15 1
  26   14   38 1
  27   14   39 1
  28   15   16 1
  29   15   40 1
  30   15   41 1
  31   16   17 1
  32   16   42 1
  33   16   43 1
  34   17   18 am
  35   17   19 1
  36   18   28 2
  37   19   20 1
  38   19   27 1
  39   19   44 1
  40   20   21 ar
  41   20   25 ar
  42   21   22 ar
  43   21   45 1
  44   22   23 ar
  45   22   46 1
  46   23   24 ar
  47   23   26 1
  48   24   25 ar
  49   24   47 1
  50   25   48 1
  51   27   49 1
  52   27   50 1
  53   27   51 1
  54   29   30 1
  55   30   52 1
  56   30   53 1
  57   30   54 1
  58   31   55 1
  59   31   56 1
  60   31   57 1

#	End of record

