#	Name: ASD14300002
#	Creating user name:	WinNT
#	Creation time:	15. 06. 2019 21:31

#	Modifying user name:	WinNT
#	Modification time:	15. 06. 2019 21:31

#	Program:	/corina/corina34_cracker 3.40 0067  02.08.2006

@<TRIPOS>MOLECULE
ASD14300002
  43   45    0    0    0
SMALL
NO_CHARGES


@<TRIPOS>ATOM
   1 N1            -0.0164     1.3569     0.0095 N.pl3   
   2 C2             0.0021    -0.0041     0.0020 C.2     
   3 C3             1.2902    -0.4169    -0.0125 C.2     
   4 C4             2.1052     0.7236    -0.0142 C.2     
   5 C5             1.2816     1.8121    -0.0004 C.2     
   6 C6             1.7073     3.2236     0.0021 C.ar    
   7 N7             3.0047     3.5293    -0.0085 N.ar    
   8 C8             3.3864     4.8020    -0.0066 C.ar    
   9 N9             2.4753     5.7702     0.0058 N.ar    
  10 C10            1.1808     5.4672     0.0164 C.ar    
  11 N11            0.7952     4.1957     0.0095 N.ar    
  12 C12           -1.1648     2.1595     0.0196 C.ar    
  13 C13           -2.1822     1.9296    -0.8969 C.ar    
  14 C14           -3.3133     2.7222    -0.8841 C.ar    
  15 C15           -3.4328     3.7441     0.0397 C.ar    
  16 C16           -2.4210     3.9759     0.9534 C.ar    
  17 C17           -1.2902     3.1828     0.9497 C.ar    
  18 N18            0.2367     6.4741     0.0298 N.pl3   
  19 C19            0.6613     7.8762     0.0324 C.3     
  20 C20           -1.1898     6.1407     0.0415 C.3     
  21 N21            4.7298     5.1191    -0.0172 N.pl3   
  22 C22            5.7342     4.0527    -0.0304 C.3     
  23 C23            5.1513     6.5222    -0.0151 C.3     
  24 H24           -0.8660    -0.6466     0.0069 H       
  25 H25            1.6300    -1.4420    -0.0209 H       
  26 H26            3.1851     0.7383    -0.0237 H       
  27 H27           -2.0892     1.1321    -1.6191 H       
  28 H28           -4.1050     2.5438    -1.5967 H       
  29 H29           -4.3180     4.3628     0.0475 H       
  30 H30           -2.5169     4.7753     1.6732 H       
  31 H31           -0.5023     3.3614     1.6664 H       
  32 H32            0.7571     8.2287    -0.9946 H       
  33 H33           -0.0804     8.4795     0.5559 H       
  34 H34            1.6231     7.9637     0.5377 H       
  35 H35           -1.5340     6.0533     1.0721 H       
  36 H36           -1.7508     6.9270    -0.4635 H       
  37 H37           -1.3458     5.1938    -0.4752 H       
  38 H38            5.9742     3.7924    -1.0613 H       
  39 H39            6.6357     4.3962     0.4769 H       
  40 H40            5.3399     3.1759     0.4833 H       
  41 H41            5.2648     6.8660     1.0130 H       
  42 H42            6.1036     6.6163    -0.5370 H       
  43 H43            4.3989     7.1283    -0.5199 H       
@<TRIPOS>BOND
   1    1    2 1
   2    1    5 1
   3    1   12 1
   4    2    3 2
   5    2   24 1
   6    3    4 1
   7    3   25 1
   8    4    5 2
   9    4   26 1
  10    5    6 1
  11    6    7 ar
  12    6   11 ar
  13    7    8 ar
  14    8    9 ar
  15    8   21 1
  16    9   10 ar
  17   10   11 ar
  18   10   18 1
  19   12   13 ar
  20   12   17 ar
  21   13   14 ar
  22   13   27 1
  23   14   15 ar
  24   14   28 1
  25   15   16 ar
  26   15   29 1
  27   16   17 ar
  28   16   30 1
  29   17   31 1
  30   18   19 1
  31   18   20 1
  32   19   32 1
  33   19   33 1
  34   19   34 1
  35   20   35 1
  36   20   36 1
  37   20   37 1
  38   21   22 1
  39   21   23 1
  40   22   38 1
  41   22   39 1
  42   22   40 1
  43   23   41 1
  44   23   42 1
  45   23   43 1

#	End of record

