#	Name: ASD10420182
#	Creating user name:	WinNT
#	Creation time:	15. 06. 2019 21:27

#	Modifying user name:	WinNT
#	Modification time:	15. 06. 2019 21:27

#	Program:	/corina/corina34_cracker 3.40 0067  02.08.2006

@<TRIPOS>MOLECULE
ASD10420182
  30   31    0    0    0
SMALL
NO_CHARGES


@<TRIPOS>ATOM
   1 C1             0.0560     1.4036    -0.4163 C.3     
   2 Cl2           -5.4278     0.5305    -1.6537 Cl      
   3 Cl3            2.7583    -3.5191     5.0391 Cl      
   4 Cl4            2.2336    -4.5462    -0.2382 Cl      
   5 C5            -1.2407    -2.0036    -0.0022 C.ar    
   6 C6            -1.1608    -0.6208    -0.1385 C.ar    
   7 C7            -2.3179     0.1414    -0.1277 C.ar    
   8 C8            -3.5482    -0.4719     0.0182 C.ar    
   9 C9            -3.6278    -1.8455     0.1541 C.ar    
  10 C10           -2.4774    -2.6120     0.1442 C.ar    
  11 O11           -0.1086    -2.7565    -0.0178 O.3     
  12 C12            0.5565    -2.9331     1.1543 C.ar    
  13 C13            1.6785    -3.7494     1.2008 C.ar    
  14 C14            2.3531    -3.9274     2.3943 C.ar    
  15 C15            1.9103    -3.2931     3.5413 C.ar    
  16 C16            0.7920    -2.4792     3.4965 C.ar    
  17 C17            0.1184    -2.2935     2.3048 C.ar    
  18 C18           -4.8056     0.3587     0.0298 C.3     
  19 O19            0.0503    -0.0190    -0.2816 O.3     
  20 H20            1.0825     1.7544    -0.5225 H       
  21 H21           -0.5180     1.6873    -1.2985 H       
  22 H22           -0.3922     1.8542     0.4692 H       
  23 H23           -2.2586     1.2146    -0.2329 H       
  24 H24           -4.5908    -2.3208     0.2683 H       
  25 H25           -2.5424    -3.6848     0.2498 H       
  26 H26            3.2261    -4.5622     2.4314 H       
  27 H27            0.4479    -1.9853     4.3932 H       
  28 H28           -0.7514    -1.6543     2.2697 H       
  29 H29           -4.5857     1.3450     0.4383 H       
  30 H30           -5.5587    -0.1307     0.6473 H       
@<TRIPOS>BOND
   1    1   19 1
   2    1   20 1
   3    1   21 1
   4    1   22 1
   5    2   18 1
   6    3   15 1
   7    4   13 1
   8    5    6 ar
   9    5   10 ar
  10    5   11 1
  11    6    7 ar
  12    6   19 1
  13    7    8 ar
  14    7   23 1
  15    8    9 ar
  16    8   18 1
  17    9   10 ar
  18    9   24 1
  19   10   25 1
  20   11   12 1
  21   12   13 ar
  22   12   17 ar
  23   13   14 ar
  24   14   15 ar
  25   14   26 1
  26   15   16 ar
  27   16   17 ar
  28   16   27 1
  29   17   28 1
  30   18   29 1
  31   18   30 1

#	End of record

