#	Name: ASD10160020
#	Creating user name:	WinNT
#	Creation time:	15. 06. 2019 21:25

#	Modifying user name:	WinNT
#	Modification time:	15. 06. 2019 21:25

#	Program:	/corina/corina34_cracker 3.40 0067  02.08.2006

@<TRIPOS>MOLECULE
ASD10160020
  46   48    0    0    0
SMALL
NO_CHARGES


@<TRIPOS>ATOM
   1 C1             1.7598    -1.5550     3.5531 C.ar    
   2 C2             1.3266    -2.1601     2.3694 C.ar    
   3 C3             2.8137    -0.6342     3.5184 C.ar    
   4 C4             3.4201    -0.3279     2.3168 C.ar    
   5 C5             2.9861    -0.9317     1.1443 C.ar    
   6 C6             1.1046    -1.8811     4.8331 C.2     
   7 N7             0.0865    -2.7637     4.8633 N.am    
   8 O8             1.4829    -1.3537     5.8615 O.2     
   9 S9            -0.6494    -3.1300     6.3009 S.o2    
  10 O10           -1.6361    -4.0921     5.9544 O.2     
  11 O11            0.4248    -3.4626     7.1697 O.2     
  12 O12            3.5855    -0.6280    -0.0351 O.3     
  13 C13            4.6737     0.1866    -0.0069 C.ar    
  14 C14            5.9501    -0.3475     0.1507 C.ar    
  15 C15            4.5269     1.5576    -0.1403 C.ar    
  16 N16            5.5782     2.3552    -0.1140 N.ar    
  17 C17            6.8038     1.8845     0.0393 C.ar    
  18 C18            7.0291     0.5194     0.1737 C.ar    
  19 Cl19           8.6422    -0.0897     0.3752 Cl      
  20 O20            7.8550     2.7436     0.0598 O.3     
  21 C21            7.5598     4.1338    -0.0894 C.3     
  22 C22            8.8598     4.9392    -0.0415 C.3     
  23 C23            1.9380    -1.8482     1.1745 C.ar    
  24 F24            1.5200    -2.4325     0.0304 F       
  25 F25            3.2362    -0.0460     4.6590 F       
  26 C26            8.6650     6.4399    -0.3149 C.3     
  27 C27            9.6969     6.6960     0.7962 C.3     
  28 C28            9.2875     5.3343     1.3818 C.3     
  29 F29           11.0177     6.7342     0.3365 F       
  30 F30            9.3757     7.7799     1.6203 F       
  31 C31           -1.4294    -1.5764     6.8189 C.3     
  32 H32            0.5142    -2.8713     2.3916 H       
  33 H33            4.2330     0.3826     2.2887 H       
  34 H34           -0.2152    -3.1844     4.0430 H       
  35 H35            6.0948    -1.4129     0.2529 H       
  36 H36            3.5406     1.9788    -0.2677 H       
  37 H37            7.0648     4.2995    -1.0462 H       
  38 H38            6.9035     4.4547     0.7196 H       
  39 H39            9.6590     4.4883    -0.6297 H       
  40 H40            9.0020     6.7509    -1.3038 H       
  41 H41            7.6653     6.8015    -0.0742 H       
  42 H42            8.4580     5.3936     2.0865 H       
  43 H43           10.1270     4.7527     1.7627 H       
  44 H44           -2.1481    -1.2609     6.0626 H       
  45 H45           -1.9433    -1.7267     7.7683 H       
  46 H46           -0.6654    -0.8080     6.9370 H       
@<TRIPOS>BOND
   1    1    2 ar
   2    1    3 ar
   3    1    6 1
   4    2   23 ar
   5    2   32 1
   6    3    4 ar
   7    3   25 1
   8    4    5 ar
   9    4   33 1
  10    5   23 ar
  11    5   12 1
  12    6    7 am
  13    6    8 2
  14    7    9 am
  15    7   34 1
  16    9   10 2
  17    9   11 2
  18    9   31 1
  19   12   13 1
  20   13   14 ar
  21   13   15 ar
  22   14   18 ar
  23   14   35 1
  24   15   16 ar
  25   15   36 1
  26   16   17 ar
  27   17   18 ar
  28   17   20 1
  29   18   19 1
  30   20   21 1
  31   21   22 1
  32   21   37 1
  33   21   38 1
  34   22   26 1
  35   22   28 1
  36   22   39 1
  37   23   24 1
  38   26   27 1
  39   26   40 1
  40   26   41 1
  41   27   28 1
  42   27   29 1
  43   27   30 1
  44   28   42 1
  45   28   43 1
  46   31   44 1
  47   31   45 1
  48   31   46 1

#	End of record

