#	Name: ASD10410158
#	Creating user name:	WinNT
#	Creation time:	15. 06. 2019 21:27

#	Modifying user name:	WinNT
#	Modification time:	15. 06. 2019 21:27

#	Program:	/corina/corina34_cracker 3.40 0067  02.08.2006

@<TRIPOS>MOLECULE
ASD10410158
  79   85    0    0    0
SMALL
NO_CHARGES


@<TRIPOS>ATOM
   1 C1            -0.6212     0.1522    -1.9201 C.ar    
   2 C2            -0.5204    -1.0812    -1.2998 C.ar    
   3 C3             0.7077    -1.6544    -1.0889 C.ar    
   4 C4             1.8603    -1.0080    -1.4938 C.ar    
   5 C5             1.7687     0.2309    -2.1177 C.ar    
   6 C6             0.5236     0.8090    -2.3295 C.ar    
   7 N7             2.9275     0.8939    -2.5307 N.pl3   
   8 C8             2.8928     1.7285    -3.6471 C.2     
   9 N9             3.8845     2.4760    -4.0682 N.2     
  10 N10            1.8440     1.8897    -4.4627 N.2     
  11 C11            2.1483     2.7467    -5.4133 C.2     
  12 N12            3.4319     3.1521    -5.2128 N.pl3   
  13 N13            1.3150     3.1589    -6.4345 N.pl3   
  14 C14            4.1505     4.0548    -5.9853 C.ar    
  15 C15           -1.7798    -1.7959    -0.8552 C.3     
  16 C16           -1.8389    -1.7679     0.6740 C.3     
  17 C17           -1.0563    -2.9225     1.2677 C.3     
  18 C18            0.4436    -2.8319     1.0675 C.3     
  19 C19            0.8099    -3.0043    -0.4093 C.3     
  20 N20           -1.3313    -2.9792     2.7096 N.3     
  21 N21            3.6148     5.2087    -6.3581 N.ar    
  22 C22            5.4738     3.7704    -6.3901 C.ar    
  23 C23            4.2879     6.0782    -7.0943 C.ar    
  24 N24            5.5162     5.8662    -7.5040 N.ar    
  25 C25            6.1547     4.7328    -7.1781 C.ar    
  26 C26           -1.2943    -4.3595     4.7649 C.3     
  27 C27           -2.1989    -5.6287     4.8102 C.3     
  28 C28           -3.4936    -5.2127     4.0473 C.3     
  29 C29           -3.0562    -5.0972     2.5692 C.3     
  30 C30           -0.8569    -4.2440     3.2867 C.3     
  31 C31           -1.5384    -5.4543     2.5782 C.3     
  32 C32           -1.4986    -6.5229     3.7270 C.3     
  33 C33            7.4658     4.4750    -7.5983 C.ar    
  34 C34            8.0727     3.3043    -7.2389 C.ar    
  35 C35            7.4001     2.3562    -6.4542 C.ar    
  36 C36            6.1188     2.5778    -6.0367 C.ar    
  37 C37           -0.7385    -1.8285     3.4042 C.3     
  38 O38            9.3441     3.0555    -7.6476 O.3     
  39 C39            9.9772     4.0583    -8.4449 C.3     
  40 O40            8.0280     1.1998    -6.1118 O.3     
  41 C41            7.2908     0.2737    -5.3112 C.3     
  42 H42           -1.5909     0.5973    -2.0876 H       
  43 H43            2.8257    -1.4622    -1.3262 H       
  44 H44            0.4503     1.7716    -2.8136 H       
  45 H45            3.7559     0.7734    -2.0407 H       
  46 H46            0.4121     2.8095    -6.4946 H       
  47 H47            1.6326     3.7978    -7.0916 H       
  48 H48           -2.6531    -1.2884    -1.2649 H       
  49 H49           -1.7565    -2.8290    -1.2020 H       
  50 H50           -1.4178    -0.8283     1.0316 H       
  51 H51           -2.8787    -1.8380     0.9936 H       
  52 H52           -1.4102    -3.8489     0.8153 H       
  53 H53            0.7928    -1.8586     1.4121 H       
  54 H54            0.9306    -3.6133     1.6508 H       
  55 H55            0.1191    -3.7045    -0.8788 H       
  56 H56            1.8298    -3.3799    -0.4923 H       
  57 H57            3.8045     7.0036    -7.3705 H       
  58 H58           -1.8614    -3.4778     5.0633 H       
  59 H59           -0.4249    -4.4894     5.4094 H       
  60 H60           -2.3477    -6.0729     5.7944 H       
  61 H61           -4.2621    -5.9779     4.1575 H       
  62 H62           -3.8576    -4.2522     4.4121 H       
  63 H63           -3.6096    -5.8055     1.9527 H       
  64 H64           -3.2051    -4.0798     2.2073 H       
  65 H65            0.2277    -4.3150     3.2048 H       
  66 H66           -1.1120    -5.7465     1.6186 H       
  67 H67           -0.4782    -6.7825     4.0087 H       
  68 H68           -2.0880    -7.4070     3.4835 H       
  69 H69            7.9940     5.1972    -8.2032 H       
  70 H70            5.6087     1.8421    -5.4327 H       
  71 H71           -1.2053    -0.9097     3.0490 H       
  72 H72           -0.9024    -1.9279     4.4773 H       
  73 H73            0.3319    -1.7939     3.2018 H       
  74 H74           10.9857     3.7346    -8.7024 H       
  75 H75            9.4015     4.2141    -9.3573 H       
  76 H76           10.0273     4.9911    -7.8832 H       
  77 H77            7.0149     0.7472    -4.3690 H       
  78 H78            6.3890    -0.0292    -5.8434 H       
  79 H79            7.9061    -0.6034    -5.1106 H       
@<TRIPOS>BOND
   1    1    2 ar
   2    1    6 ar
   3    1   42 1
   4    2    3 ar
   5    2   15 1
   6    3    4 ar
   7    3   19 1
   8    4    5 ar
   9    4   43 1
  10    5    6 ar
  11    5    7 1
  12    6   44 1
  13    7    8 1
  14    7   45 1
  15    8    9 2
  16    8   10 1
  17    9   12 1
  18   10   11 2
  19   11   12 1
  20   11   13 1
  21   12   14 1
  22   13   46 1
  23   13   47 1
  24   14   21 ar
  25   14   22 ar
  26   15   16 1
  27   15   48 1
  28   15   49 1
  29   16   17 1
  30   16   50 1
  31   16   51 1
  32   17   18 1
  33   17   20 1
  34   17   52 1
  35   18   19 1
  36   18   53 1
  37   18   54 1
  38   19   55 1
  39   19   56 1
  40   20   37 1
  41   20   30 1
  42   21   23 ar
  43   22   25 ar
  44   22   36 ar
  45   23   24 ar
  46   23   57 1
  47   24   25 ar
  48   25   33 ar
  49   26   27 1
  50   26   30 1
  51   26   58 1
  52   26   59 1
  53   27   28 1
  54   27   32 1
  55   27   60 1
  56   28   29 1
  57   28   61 1
  58   28   62 1
  59   29   31 1
  60   29   63 1
  61   29   64 1
  62   30   31 1
  63   30   65 1
  64   31   32 1
  65   31   66 1
  66   32   67 1
  67   32   68 1
  68   33   34 ar
  69   33   69 1
  70   34   35 ar
  71   34   38 1
  72   35   36 ar
  73   35   40 1
  74   36   70 1
  75   37   71 1
  76   37   72 1
  77   37   73 1
  78   38   39 1
  79   39   74 1
  80   39   75 1
  81   39   76 1
  82   40   41 1
  83   41   77 1
  84   41   78 1
  85   41   79 1

#	End of record

