#	Name: ASD11030037
#	Creating user name:	WinNT
#	Creation time:	15. 06. 2019 21:29

#	Modifying user name:	WinNT
#	Modification time:	15. 06. 2019 21:29

#	Program:	/corina/corina34_cracker 3.40 0067  02.08.2006

@<TRIPOS>MOLECULE
ASD11030037
  79   84    0    0    0
SMALL
NO_CHARGES


@<TRIPOS>ATOM
   1 C1             2.7475     4.0715    -5.9775 C.ar    
   2 C2             1.7762     3.1608    -5.5864 C.ar    
   3 C3             1.8816     2.5430    -4.3532 C.ar    
   4 N4             2.8895     2.8076    -3.5479 N.ar    
   5 C5             3.8402     3.6726    -3.8838 C.ar    
   6 C6             3.7961     4.3316    -5.1126 C.ar    
   7 C7             4.9535     3.9388    -2.9481 C.2     
   8 C8             5.4314     3.0639    -2.0275 C.2     
   9 C9             6.4915     3.6987    -1.3364 C.ar    
  10 C10            6.6224     4.9896    -1.8872 C.ar    
  11 N11            5.6711     5.1100    -2.8783 N.pl3   
  12 C12            7.3434     3.2904    -0.3000 C.ar    
  13 C13            8.2953     4.1401     0.1738 C.ar    
  14 C14            8.4330     5.4264    -0.3680 C.ar    
  15 C15            7.5954     5.8482    -1.3979 C.ar    
  16 C16            5.4541     6.2943    -3.7129 C.3     
  17 C17            4.9241     1.6659    -1.7841 C.3     
  18 C18            9.4696     6.3371     0.1556 C.2     
  19 N19           10.2814     5.9321     1.1523 N.am    
  20 O20            9.5912     7.4528    -0.3122 O.2     
  21 C21           11.3853     6.7891     1.5919 C.3     
  22 C22           10.9136     8.0771     2.2160 C.2     
  23 N23            9.7977     8.0906     2.9718 N.am    
  24 O24           11.5380     9.1015     2.0382 O.2     
  25 C25            9.4110     9.2615     3.6235 C.ar    
  26 C26            9.6981    10.4988     3.0552 C.ar    
  27 C27            9.3180    11.6569     3.6944 C.ar    
  28 C28            8.6416    11.5886     4.9182 C.ar    
  29 C29            8.3549    10.3412     5.4863 C.ar    
  30 C30            8.7340     9.1887     4.8375 C.ar    
  31 C31           12.4431     6.0503     2.4286 C.3     
  32 C32           13.5013     6.8664     1.6675 C.3     
  33 C33           12.4758     6.9846     0.5253 C.3     
  34 C34            8.2342    12.8222     5.6048 C.2     
  35 C35            8.5122    14.0247     5.0551 C.2     
  36 C36            6.0529     0.6471    -2.0197 C.3     
  37 C37            6.2654    -0.0923    -0.6825 C.3     
  38 C38            4.9147     0.0674     0.0586 C.3     
  39 C39            4.4900     1.5100    -0.3120 C.3     
  40 C40            8.1191    15.2149     5.7176 C.2     
  41 O41            7.5314    15.1535     6.7809 O.2     
  42 O42            8.3968    16.4158     5.1685 O.3     
  43 C43            8.4261     7.8456     5.4478 C.3     
  44 F44            7.7560     8.0279     6.6623 F       
  45 F45            7.6169     7.1110     4.5744 F       
  46 F46            9.6195     7.1512     5.6732 F       
  47 H47            2.6888     4.5631    -6.9373 H       
  48 H48            0.9452     2.9367    -6.2388 H       
  49 H49            1.1268     1.8341    -4.0464 H       
  50 H50            4.5693     5.0347    -5.3850 H       
  51 H51            7.2439     2.3015     0.1227 H       
  52 H52            8.9488     3.8218     0.9726 H       
  53 H53            7.7030     6.8393    -1.8133 H       
  54 H54            5.9980     6.1824    -4.6508 H       
  55 H55            4.3895     6.4021    -3.9209 H       
  56 H56            5.8132     7.1795    -3.1880 H       
  57 H57            4.0848     1.4529    -2.4462 H       
  58 H58           10.1347     5.0733     1.5786 H       
  59 H59            9.2636     7.2860     3.0625 H       
  60 H60           10.2202    10.5505     2.1112 H       
  61 H61            9.5415    12.6168     3.2528 H       
  62 H62            7.8336    10.2839     6.4305 H       
  63 H63           12.3967     6.2805     3.4930 H       
  64 H64           12.4894     4.9800     2.2276 H       
  65 H65           13.7396     7.8198     2.1390 H       
  66 H66           14.3881     6.2912     1.4016 H       
  67 H67           12.5305     6.1698    -0.1966 H       
  68 H68           12.4575     7.9677     0.0550 H       
  69 H69            7.7124    12.7677     6.5489 H       
  70 H70            9.0339    14.0792     4.1110 H       
  71 H71            5.7611    -0.0608    -2.7955 H       
  72 H72            6.9677     1.1638    -2.3101 H       
  73 H73            6.4813    -1.1460    -0.8593 H       
  74 H74            7.0703     0.3727    -0.1132 H       
  75 H75            4.1857    -0.6559    -0.3068 H       
  76 H76            5.0512    -0.0305     1.1356 H       
  77 H77            5.0081     2.2338     0.3172 H       
  78 H78            3.4102     1.6257    -0.2184 H       
  79 H79            8.0899    17.1683     5.6927 H       
@<TRIPOS>BOND
   1    1    2 ar
   2    1    6 ar
   3    1   47 1
   4    2    3 ar
   5    2   48 1
   6    3    4 ar
   7    3   49 1
   8    4    5 ar
   9    5    6 ar
  10    5    7 1
  11    6   50 1
  12    7    8 2
  13    7   11 1
  14    8    9 1
  15    8   17 1
  16    9   10 ar
  17    9   12 ar
  18   10   11 1
  19   10   15 ar
  20   11   16 1
  21   12   13 ar
  22   12   51 1
  23   13   14 ar
  24   13   52 1
  25   14   15 ar
  26   14   18 1
  27   15   53 1
  28   16   54 1
  29   16   55 1
  30   16   56 1
  31   17   36 1
  32   17   39 1
  33   17   57 1
  34   18   19 am
  35   18   20 2
  36   19   21 1
  37   19   58 1
  38   21   22 1
  39   21   31 1
  40   21   33 1
  41   22   23 am
  42   22   24 2
  43   23   25 1
  44   23   59 1
  45   25   26 ar
  46   25   30 ar
  47   26   27 ar
  48   26   60 1
  49   27   28 ar
  50   27   61 1
  51   28   29 ar
  52   28   34 1
  53   29   30 ar
  54   29   62 1
  55   30   43 1
  56   31   32 1
  57   31   63 1
  58   31   64 1
  59   32   33 1
  60   32   65 1
  61   32   66 1
  62   33   67 1
  63   33   68 1
  64   34   35 2
  65   34   69 1
  66   35   40 1
  67   35   70 1
  68   36   37 1
  69   36   71 1
  70   36   72 1
  71   37   38 1
  72   37   73 1
  73   37   74 1
  74   38   39 1
  75   38   75 1
  76   38   76 1
  77   39   77 1
  78   39   78 1
  79   40   41 2
  80   40   42 1
  81   42   79 1
  82   43   44 1
  83   43   45 1
  84   43   46 1

#	End of record

