#	Name: ASD13040012
#	Creating user name:	WinNT
#	Creation time:	15. 06. 2019 21:30

#	Modifying user name:	WinNT
#	Modification time:	15. 06. 2019 21:30

#	Program:	/corina/corina34_cracker 3.40 0067  02.08.2006

@<TRIPOS>MOLECULE
ASD13040012
  16   17    0    0    0
SMALL
NO_CHARGES


@<TRIPOS>ATOM
   1 Br1            0.0021    -0.0041     0.0020 Br      
   2 C2            -0.0236     1.8867     0.0124 C.ar    
   3 C3            -1.2291     2.5630     0.0333 C.ar    
   4 Br4           -2.8527     1.5938     0.0509 Br      
   5 C5             1.1676     2.5983     0.0049 C.ar    
   6 N6             2.5081     2.2177    -0.0099 N.am    
   7 C7             3.2651     3.3311    -0.0107 C.2     
   8 O8             4.4818     3.3514    -0.0224 O.2     
   9 N9             2.4716     4.4187     0.0030 N.am    
  10 C10            1.1444     3.9937     0.0131 C.ar    
  11 C11           -0.0698     4.6650     0.0287 C.ar    
  12 Br12          -0.1071     6.5556     0.0393 Br      
  13 C13           -1.2521     3.9488     0.0420 C.ar    
  14 Br14          -2.9071     4.8631     0.0712 Br      
  15 H15            2.8394     1.3060    -0.0180 H       
  16 H16            2.7724     5.3409     0.0057 H       
@<TRIPOS>BOND
   1    1    2 1
   2    2    5 ar
   3    2    3 ar
   4    3   13 ar
   5    3    4 1
   6    5   10 ar
   7    5    6 1
   8    6    7 am
   9    6   15 1
  10    7    9 am
  11    7    8 2
  12    9   10 1
  13    9   16 1
  14   10   11 ar
  15   11   12 1
  16   11   13 ar
  17   13   14 1

#	End of record

