#	Name: ASD10160184
#	Creating user name:	WinNT
#	Creation time:	15. 06. 2019 21:25

#	Modifying user name:	WinNT
#	Modification time:	15. 06. 2019 21:25

#	Program:	/corina/corina34_cracker 3.40 0067  02.08.2006

@<TRIPOS>MOLECULE
ASD10160184
  35   37    0    0    0
SMALL
NO_CHARGES


@<TRIPOS>ATOM
   1 C1            -0.0351     1.4701     0.0137 C.2     
   2 C2            -0.0106    -0.0043     0.0047 C.ar    
   3 C3             1.2046    -0.6854    -0.1322 C.ar    
   4 C4             1.2223    -2.0658    -0.1396 C.ar    
   5 C5             0.0374    -2.7777    -0.0115 C.ar    
   6 C6            -1.1736    -2.1040     0.1244 C.ar    
   7 C7            -1.2004    -0.7262     0.1387 C.ar    
   8 O8             1.0014     2.0961    -0.0978 O.2     
   9 N9            -1.2069     2.1239     0.1401 N.am    
  10 O10            0.0594    -4.1352    -0.0193 O.3     
  11 C11           -0.6779    -4.6835    -3.4467 C.ar    
  12 N12           -0.5868    -5.9880    -3.5869 N.ar    
  13 C13           -0.2738    -6.7588    -2.5433 C.ar    
  14 C14           -0.0429    -6.1575    -1.2918 C.ar    
  15 C15           -0.1516    -4.7682    -1.1990 C.ar    
  16 N16           -0.4690    -4.0806    -2.2900 N.ar    
  17 N17            0.2559    -7.1641    -0.4036 N.pl3   
  18 C18           -0.0920    -8.1922    -2.3390 C.2     
  19 C19            0.2226    -8.3692    -1.0422 C.2     
  20 S20           -1.2344     3.7796     0.1502 S.o2    
  21 O21           -2.6066     4.1062     0.3221 O.2     
  22 O22           -0.2676     4.1402     1.1271 O.2     
  23 C23           -0.6706     4.2518    -1.5080 C.3     
  24 F24           -2.3235    -2.8022     0.2482 F       
  25 F25            2.3580     0.0068    -0.2573 F       
  26 H26            2.1592    -2.5925    -0.2454 H       
  27 H27           -2.1398    -0.2048     0.2486 H       
  28 H28           -2.0342     1.6245     0.2251 H       
  29 H29           -0.9283    -4.0834    -4.3090 H       
  30 H30            0.4601    -7.0364     0.5360 H       
  31 H31           -0.1911    -8.9650    -3.0869 H       
  32 H32            0.4197    -9.3235    -0.5765 H       
  33 H33           -1.3491     3.8381    -2.2540 H       
  34 H34           -0.6576     5.3385    -1.5916 H       
  35 H35            0.3338     3.8625    -1.6748 H       
@<TRIPOS>BOND
   1    1    2 1
   2    1    8 2
   3    1    9 am
   4    2    3 ar
   5    2    7 ar
   6    3    4 ar
   7    3   25 1
   8    4    5 ar
   9    4   26 1
  10    5    6 ar
  11    5   10 1
  12    6    7 ar
  13    6   24 1
  14    7   27 1
  15    9   20 am
  16    9   28 1
  17   10   15 1
  18   11   12 ar
  19   11   16 ar
  20   11   29 1
  21   12   13 ar
  22   13   14 ar
  23   13   18 1
  24   14   15 ar
  25   14   17 1
  26   15   16 ar
  27   17   19 1
  28   17   30 1
  29   18   19 2
  30   18   31 1
  31   19   32 1
  32   20   21 2
  33   20   22 2
  34   20   23 1
  35   23   33 1
  36   23   34 1
  37   23   35 1

#	End of record

