#	Name: ASD10010001
#	Creating user name:	WinNT
#	Creation time:	15. 06. 2019 21:24

#	Modifying user name:	WinNT
#	Modification time:	15. 06. 2019 21:24

#	Program:	/corina/corina34_cracker 3.40 0067  02.08.2006

@<TRIPOS>MOLECULE
ASD10010001
  44   47    0    0    0
SMALL
NO_CHARGES


@<TRIPOS>ATOM
   1 C1            -0.0167     1.3781     0.0096 C.ar    
   2 C2             0.0021    -0.0041     0.0020 C.ar    
   3 C3             1.2084    -0.6789    -0.0132 C.ar    
   4 C4             2.3961     0.0285    -0.0212 C.ar    
   5 C5             2.3773     1.4107    -0.0145 C.ar    
   6 C6             1.1709     2.0855     0.0021 C.ar    
   7 C7             1.2289    -2.1857    -0.0205 C.3     
   8 C8             1.9354    -2.6708    -1.2632 C.2     
   9 C9             3.2056    -3.1107    -1.2013 C.2     
  10 O10            3.8883    -3.1193    -0.0411 O.3     
  11 C11            3.2233    -3.1178     1.1247 C.2     
  12 C12            1.9432    -2.6805     1.2061 C.2     
  13 C13            1.2280    -2.6462    -2.4806 C.2     
  14 C14            1.8700    -3.0961    -3.7646 C.3     
  15 C15            3.3826    -2.8704    -3.6686 C.3     
  16 C16            3.9070    -3.6164    -2.4401 C.3     
  17 N17            3.8527    -3.5690     2.2581 N.pl3   
  18 O18            0.0784    -2.2541    -2.4942 O.2     
  19 C19            4.0537    -3.4022    -4.9087 C.ar    
  20 C20            4.7847    -2.5523    -5.7175 C.ar    
  21 C21            3.9430    -4.7411    -5.2344 C.ar    
  22 C22            4.5586    -5.2289    -6.3719 C.ar    
  23 C23            5.2845    -4.3778    -7.1840 C.ar    
  24 C24            5.4002    -3.0401    -6.8551 C.ar    
  25 C25            1.2669    -2.6897     2.4683 C.1     
  26 N26            0.7304    -2.6971     3.4696 N.1     
  27 H27           -0.9592     1.9054     0.0170 H       
  28 H28           -0.9258    -0.5567     0.0083 H       
  29 H29            3.3386    -0.4987    -0.0324 H       
  30 H30            3.3052     1.9634    -0.0205 H       
  31 H31            1.1563     3.1654     0.0069 H       
  32 H32            0.2056    -2.5611    -0.0166 H       
  33 H33            1.6682    -4.1557    -3.9220 H       
  34 H34            1.4667    -2.5184    -4.5964 H       
  35 H35            3.5882    -1.8050    -3.5656 H       
  36 H36            4.9796    -3.4479    -2.3438 H       
  37 H37            3.7168    -4.6835    -2.5551 H       
  38 H38            4.7688    -3.8845     2.2112 H       
  39 H39            3.3815    -3.5723     3.1059 H       
  40 H40            4.8746    -1.5071    -5.4609 H       
  41 H41            3.3759    -5.4061    -4.5999 H       
  42 H42            4.4727    -6.2751    -6.6259 H       
  43 H43            5.7658    -4.7590    -8.0725 H       
  44 H44            5.9674    -2.3752    -7.4895 H       
@<TRIPOS>BOND
   1    1    2 ar
   2    1    6 ar
   3    1   27 1
   4    2    3 ar
   5    2   28 1
   6    3    4 ar
   7    3    7 1
   8    4    5 ar
   9    4   29 1
  10    5    6 ar
  11    5   30 1
  12    6   31 1
  13    7    8 1
  14    7   12 1
  15    7   32 1
  16    8    9 2
  17    8   13 1
  18    9   10 1
  19    9   16 1
  20   10   11 1
  21   11   12 2
  22   11   17 1
  23   12   25 1
  24   13   14 1
  25   13   18 2
  26   14   15 1
  27   14   33 1
  28   14   34 1
  29   15   16 1
  30   15   19 1
  31   15   35 1
  32   16   36 1
  33   16   37 1
  34   17   38 1
  35   17   39 1
  36   19   20 ar
  37   19   21 ar
  38   20   24 ar
  39   20   40 1
  40   21   22 ar
  41   21   41 1
  42   22   23 ar
  43   22   42 1
  44   23   24 ar
  45   23   43 1
  46   24   44 1
  47   25   26 3

#	End of record

