#	Name: ASD10160232
#	Creating user name:	WinNT
#	Creation time:	15. 06. 2019 21:25

#	Modifying user name:	WinNT
#	Modification time:	15. 06. 2019 21:25

#	Program:	/corina/corina34_cracker 3.40 0067  02.08.2006

@<TRIPOS>MOLECULE
ASD10160232
  42   44    0    0    0
SMALL
NO_CHARGES


@<TRIPOS>ATOM
   1 C1            -0.3961     1.1142    -1.9348 C.2     
   2 C2            -0.2766    -0.2664    -1.4312 C.ar    
   3 C3             0.9073    -0.9863    -1.6301 C.ar    
   4 C4             1.0145    -2.2784    -1.1564 C.ar    
   5 C5            -0.0499    -2.8638    -0.4841 C.ar    
   6 C6            -1.2295    -2.1510    -0.2841 C.ar    
   7 C7            -1.3435    -0.8586    -0.7484 C.ar    
   8 O8             0.5347     1.6292    -2.5239 O.2     
   9 N9            -1.5390     1.8035    -1.7469 N.am    
  10 S10           -1.6732     3.3541    -2.3125 S.o2    
  11 O11           -2.9762     3.7599    -1.9168 O.2     
  12 O12           -0.5173     4.0113    -1.8111 O.2     
  13 C13           -1.5787     3.1878    -4.1164 C.3     
  14 F14           -2.2619    -2.7258     0.3708 F       
  15 F15            1.9431    -0.4176    -2.2850 F       
  16 O16            0.0593    -4.1349    -0.0206 O.3     
  17 C17            4.5227    -7.2981    -1.9731 C.2     
  18 N18            3.3225    -6.9499    -2.3354 N.2     
  19 C19            2.7702    -6.1550    -1.3830 C.ar    
  20 C20            3.7248    -6.0160    -0.3614 C.ar    
  21 N21            4.8236    -6.7515    -0.7646 N.pl3   
  22 C22            1.5336    -5.5162    -1.2617 C.ar    
  23 C23            1.2623    -4.7568    -0.1405 C.ar    
  24 C24            2.2133    -4.6239     0.8674 C.ar    
  25 C25            3.4366    -5.2492     0.7589 C.ar    
  26 C26            5.4431    -8.1834    -2.7732 C.3     
  27 C27            6.0791    -6.9124    -0.0271 C.3     
  28 H28            1.9274    -2.8349    -1.3092 H       
  29 H29           -2.2573    -0.3055    -0.5892 H       
  30 H30           -2.2829     1.3912    -1.2805 H       
  31 H31           -2.3944     2.5550    -4.4661 H       
  32 H32           -1.6595     4.1724    -4.5768 H       
  33 H33           -0.6253     2.7359    -4.3901 H       
  34 H34            0.7928    -5.6161    -2.0412 H       
  35 H35            1.9910    -4.0273     1.7398 H       
  36 H36            4.1702    -5.1420     1.5442 H       
  37 H37            6.0485    -7.5697    -3.4402 H       
  38 H38            6.0948    -8.7360    -2.0964 H       
  39 H39            4.8517    -8.8849    -3.3616 H       
  40 H40            6.7730    -6.1225    -0.3143 H       
  41 H41            5.8821    -6.8515     1.0432 H       
  42 H42            6.5163    -7.8830    -0.2614 H       
@<TRIPOS>BOND
   1    1    2 1
   2    1    8 2
   3    1    9 am
   4    2    3 ar
   5    2    7 ar
   6    3    4 ar
   7    3   15 1
   8    4    5 ar
   9    4   28 1
  10    5    6 ar
  11    5   16 1
  12    6    7 ar
  13    6   14 1
  14    7   29 1
  15    9   10 am
  16    9   30 1
  17   10   11 2
  18   10   12 2
  19   10   13 1
  20   13   31 1
  21   13   32 1
  22   13   33 1
  23   16   23 1
  24   17   18 2
  25   17   21 1
  26   17   26 1
  27   18   19 1
  28   19   20 ar
  29   19   22 ar
  30   20   21 1
  31   20   25 ar
  32   21   27 1
  33   22   23 ar
  34   22   34 1
  35   23   24 ar
  36   24   25 ar
  37   24   35 1
  38   25   36 1
  39   26   37 1
  40   26   38 1
  41   26   39 1
  42   27   40 1
  43   27   41 1
  44   27   42 1

#	End of record

