#	Name: ASD10950044
#	Creating user name:	WinNT
#	Creation time:	15. 06. 2019 21:28

#	Modifying user name:	WinNT
#	Modification time:	15. 06. 2019 21:28

#	Program:	/corina/corina34_cracker 3.40 0067  02.08.2006

@<TRIPOS>MOLECULE
ASD10950044
  63   67    0    0    0
SMALL
NO_CHARGES


@<TRIPOS>ATOM
   1 C1            -1.5565     1.3973     1.4001 C.3     
   2 O2            -1.4040    -0.0134     1.2303 O.3     
   3 C3            -2.4995    -0.7851     1.4621 C.ar    
   4 C4            -3.6981    -0.1900     1.8460 C.ar    
   5 C5            -4.8171    -0.9566     2.0847 C.ar    
   6 C6            -4.7563    -2.3386     1.9423 C.ar    
   7 C7            -3.5469    -2.9428     1.5541 C.ar    
   8 C8            -2.4200    -2.1552     1.3101 C.ar    
   9 C9            -3.8130    -4.3823     1.4971 C.2     
  10 C10           -2.8283    -5.4616     1.1278 C.3     
  11 C11           -2.0253    -5.8649     2.3662 C.3     
  12 N12           -1.0681    -6.9142     2.0072 N.am    
  13 C13            0.1928    -6.7226     1.5786 C.2     
  14 O14            0.7206    -5.6389     1.4272 O.2     
  15 C15            0.8410    -8.0257     1.3197 C.2     
  16 C16           -0.0352    -9.0203     1.5939 C.2     
  17 C17           -1.3128    -8.3603     2.0575 C.3     
  18 C18           -1.6365    -8.7897     3.4653 C.ar    
  19 C19           -2.6599    -9.6931     3.6917 C.ar    
  20 C20           -2.9612   -10.0907     4.9777 C.ar    
  21 C21           -2.2308    -9.5794     6.0523 C.ar    
  22 C22           -1.1994    -8.6682     5.8167 C.ar    
  23 C23           -0.9053    -8.2831     4.5251 C.ar    
  24 C24           -2.5481   -10.0003     7.4323 C.2     
  25 O25           -3.4462   -10.7929     7.6342 O.2     
  26 O26           -1.8415    -9.5052     8.4668 O.3     
  27 C27           -2.2084    -9.9630     9.7950 C.3     
  28 C28            0.2097   -10.4603     1.4696 C.2     
  29 O29            1.0443   -10.9983     2.1726 O.2     
  30 C30           -0.5575   -11.2588     0.4899 C.ar    
  31 C31           -0.4143   -12.6510     0.4376 C.ar    
  32 C32           -1.1555   -13.3518    -0.4973 C.ar    
  33 C33           -2.0060   -12.6618    -1.3425 C.ar    
  34 N34           -2.1210   -11.3491    -1.2708 N.ar    
  35 C35           -1.4416   -10.6383    -0.3953 C.ar    
  36 O36            2.1082    -8.1969     0.8783 O.3     
  37 C37           -5.1000    -4.5578     1.8361 C.2     
  38 N38           -5.6806    -3.3488     2.1057 N.pl3   
  39 H39           -0.6103     1.8936     1.1845 H       
  40 H40           -2.3231     1.7646     0.7178 H       
  41 H41           -1.8524     1.6097     2.4274 H       
  42 H42           -3.7509     0.8829     1.9581 H       
  43 H43           -5.7416    -0.4846     2.3828 H       
  44 H44           -1.4897    -2.6156     1.0119 H       
  45 H45           -3.3664    -6.3290     0.7454 H       
  46 H46           -2.1500    -5.0877     0.3609 H       
  47 H47           -1.4872    -4.9975     2.7486 H       
  48 H48           -2.7036    -6.2388     3.1331 H       
  49 H49           -2.1330    -8.6198     1.3880 H       
  50 H50           -3.2243   -10.0875     2.8596 H       
  51 H51           -3.7604   -10.7956     5.1531 H       
  52 H52           -0.6308    -8.2686     6.6434 H       
  53 H53           -0.1078    -7.5784     4.3414 H       
  54 H54           -1.5629    -9.4885    10.5341 H       
  55 H55           -3.2466    -9.6991     9.9964 H       
  56 H56           -2.0911   -11.0452     9.8515 H       
  57 H57            0.2576   -13.1644     1.1095 H       
  58 H58           -1.0706   -14.4262    -0.5668 H       
  59 H59           -2.5853   -13.2065    -2.0733 H       
  60 H60           -1.5629    -9.5655    -0.3669 H       
  61 H61            2.5899    -7.3707     0.7351 H       
  62 H62           -5.6026    -5.5123     1.8882 H       
  63 H63           -6.6046    -3.2213     2.3720 H       
@<TRIPOS>BOND
   1    1    2 1
   2    1   39 1
   3    1   40 1
   4    1   41 1
   5    2    3 1
   6    3    4 ar
   7    3    8 ar
   8    4    5 ar
   9    4   42 1
  10    5    6 ar
  11    5   43 1
  12    6    7 ar
  13    6   38 1
  14    7    8 ar
  15    7    9 1
  16    8   44 1
  17    9   10 1
  18    9   37 2
  19   10   11 1
  20   10   45 1
  21   10   46 1
  22   11   12 1
  23   11   47 1
  24   11   48 1
  25   12   13 am
  26   12   17 1
  27   13   14 2
  28   13   15 1
  29   15   16 2
  30   15   36 1
  31   16   17 1
  32   16   28 1
  33   17   18 1
  34   17   49 1
  35   18   19 ar
  36   18   23 ar
  37   19   20 ar
  38   19   50 1
  39   20   21 ar
  40   20   51 1
  41   21   22 ar
  42   21   24 1
  43   22   23 ar
  44   22   52 1
  45   23   53 1
  46   24   25 2
  47   24   26 1
  48   26   27 1
  49   27   54 1
  50   27   55 1
  51   27   56 1
  52   28   29 2
  53   28   30 1
  54   30   31 ar
  55   30   35 ar
  56   31   32 ar
  57   31   57 1
  58   32   33 ar
  59   32   58 1
  60   33   34 ar
  61   33   59 1
  62   34   35 ar
  63   35   60 1
  64   36   61 1
  65   37   38 1
  66   37   62 1
  67   38   63 1

#	End of record

