#	Name: ASD11400001
#	Creating user name:	WinNT
#	Creation time:	15. 06. 2019 21:29

#	Modifying user name:	WinNT
#	Modification time:	15. 06. 2019 21:29

#	Program:	/corina/corina34_cracker 3.40 0067  02.08.2006

@<TRIPOS>MOLECULE
ASD11400001
  63   65    0    0    0
SMALL
NO_CHARGES


@<TRIPOS>ATOM
   1 O1            -0.2681     1.4574     0.2530 O.3     
   2 C2            -0.1000     0.0472     0.0952 C.3     
   3 C3            -1.4679    -0.6116    -0.0938 C.3     
   4 N4            -2.0631    -0.1493    -1.3501 N.am    
   5 S5            -1.8670    -1.0361    -2.7349 S.o2    
   6 O6            -2.2026    -0.1746    -3.8140 O.2     
   7 O7            -0.6078    -1.6848    -2.6210 O.2     
   8 C8            -3.0857    -2.3085    -2.7164 C.ar    
   9 C9            -4.2691    -2.1408    -3.4114 C.ar    
  10 C10           -5.2262    -3.1369    -3.3985 C.ar    
  11 C11           -4.9991    -4.3063    -2.6874 C.ar    
  12 C12           -3.8108    -4.4721    -1.9909 C.ar    
  13 C13           -2.8545    -3.4753    -2.0116 C.ar    
  14 O14           -5.9392    -5.2875    -2.6728 O.3     
  15 C15           -5.6375    -6.4639    -1.9197 C.3     
  16 C16           -2.7959     1.0393    -1.3800 C.ar    
  17 C17           -2.1505     2.2497    -1.5977 C.ar    
  18 C18           -2.8783     3.4233    -1.6271 C.ar    
  19 C19           -4.2479     3.3941    -1.4395 C.ar    
  20 C20           -4.8938     2.1905    -1.2224 C.ar    
  21 C21           -4.1730     1.0130    -1.1975 C.ar    
  22 C22           -4.8777    -0.2980    -0.9614 C.3     
  23 N23           -6.1575    -0.0509    -0.2839 N.3     
  24 C24           -7.0452    -1.2161    -0.3943 C.3     
  25 C25           -8.4232    -0.8455     0.0901 C.2     
  26 C26           -9.4744    -1.0315    -0.6960 C.2     
  27 C27          -10.8260    -0.6680    -0.2209 C.ar    
  28 C28          -11.9344    -0.8626    -1.0461 C.ar    
  29 C29          -13.1934    -0.5219    -0.5971 C.ar    
  30 C30          -13.3587     0.0123     0.6696 C.ar    
  31 C31          -12.2626     0.2077     1.4928 C.ar    
  32 C32          -10.9993    -0.1342     1.0567 C.ar    
  33 Cl33         -14.9461     0.4393     1.2276 Cl      
  34 C34           -5.9461     0.3186     1.1221 C.3     
  35 H35            0.5601     1.9408     0.3777 H       
  36 H36            0.5217    -0.1491    -0.7783 H       
  37 H37            0.3812    -0.3629     0.9831 H       
  38 H38           -1.3484    -1.6946    -0.1252 H       
  39 H39           -2.1191    -0.3418     0.7376 H       
  40 H40           -4.4456    -1.2301    -3.9645 H       
  41 H41           -6.1506    -3.0053    -3.9412 H       
  42 H42           -3.6316    -5.3815    -1.4366 H       
  43 H43           -1.9293    -3.6039    -1.4695 H       
  44 H44           -6.4693    -7.1647    -1.9918 H       
  45 H45           -4.7354    -6.9286    -2.3176 H       
  46 H46           -5.4778    -6.1957    -0.8754 H       
  47 H47           -1.0806     2.2733    -1.7436 H       
  48 H48           -2.3770     4.3648    -1.7964 H       
  49 H49           -4.8145     4.3132    -1.4622 H       
  50 H50           -5.9636     2.1713    -1.0759 H       
  51 H51           -5.0614    -0.7890    -1.9170 H       
  52 H52           -4.2541    -0.9385    -0.3377 H       
  53 H53           -7.0994    -1.5343    -1.4354 H       
  54 H54           -6.6529    -2.0307     0.2146 H       
  55 H55           -8.5545    -0.4283     1.0776 H       
  56 H56           -9.3432    -1.4486    -1.6835 H       
  57 H57          -11.8066    -1.2788    -2.0345 H       
  58 H58          -14.0519    -0.6717    -1.2350 H       
  59 H59          -12.3975     0.6251     2.4798 H       
  60 H60          -10.1452     0.0184     1.6998 H       
  61 H61           -5.4113     1.2670     1.1721 H       
  62 H62           -6.9104     0.4184     1.6204 H       
  63 H63           -5.3598    -0.4556     1.6170 H       
@<TRIPOS>BOND
   1    1    2 1
   2    1   35 1
   3    2    3 1
   4    2   36 1
   5    2   37 1
   6    3    4 1
   7    3   38 1
   8    3   39 1
   9    4    5 am
  10    4   16 1
  11    5    6 2
  12    5    7 2
  13    5    8 1
  14    8    9 ar
  15    8   13 ar
  16    9   10 ar
  17    9   40 1
  18   10   11 ar
  19   10   41 1
  20   11   12 ar
  21   11   14 1
  22   12   13 ar
  23   12   42 1
  24   13   43 1
  25   14   15 1
  26   15   44 1
  27   15   45 1
  28   15   46 1
  29   16   17 ar
  30   16   21 ar
  31   17   18 ar
  32   17   47 1
  33   18   19 ar
  34   18   48 1
  35   19   20 ar
  36   19   49 1
  37   20   21 ar
  38   20   50 1
  39   21   22 1
  40   22   23 1
  41   22   51 1
  42   22   52 1
  43   23   24 1
  44   23   34 1
  45   24   25 1
  46   24   53 1
  47   24   54 1
  48   25   26 2
  49   25   55 1
  50   26   27 1
  51   26   56 1
  52   27   28 ar
  53   27   32 ar
  54   28   29 ar
  55   28   57 1
  56   29   30 ar
  57   29   58 1
  58   30   31 ar
  59   30   33 1
  60   31   32 ar
  61   31   59 1
  62   32   60 1
  63   34   61 1
  64   34   62 1
  65   34   63 1

#	End of record

