#	Name: ASD10950042
#	Creating user name:	WinNT
#	Creation time:	15. 06. 2019 21:28

#	Modifying user name:	WinNT
#	Modification time:	15. 06. 2019 21:28

#	Program:	/corina/corina34_cracker 3.40 0067  02.08.2006

@<TRIPOS>MOLECULE
ASD10950042
  56   59    0    0    0
SMALL
NO_CHARGES


@<TRIPOS>ATOM
   1 C1            -1.4257     1.1988     0.8039 C.3     
   2 O2            -1.1916    -0.2254     0.6450 O.3     
   3 C3            -0.3851    -0.6036    -0.3655 C.2     
   4 O4             0.1092     0.2334    -1.0940 O.2     
   5 C5            -0.1016    -2.0363    -0.5877 C.ar    
   6 C6             0.7340    -2.4318    -1.6342 C.ar    
   7 C7             0.9944    -3.7713    -1.8360 C.ar    
   8 C8             0.4297    -4.7221    -1.0044 C.ar    
   9 C9            -0.3992    -4.3371     0.0345 C.ar    
  10 C10           -0.6635    -3.0007     0.2512 C.ar    
  11 C11            0.7184    -6.1837    -1.2314 C.3     
  12 N12            1.1567    -6.8116     0.0205 N.am    
  13 C13            2.3414    -6.4439     0.8000 C.3     
  14 C14            1.9659    -5.3691     1.8221 C.3     
  15 C15            3.1846    -4.9909     2.6239 C.2     
  16 C16            4.0659    -4.0225     2.3284 C.2     
  17 C17            3.9922    -3.1249     1.1201 C.3     
  18 N18            5.0408    -3.9706     3.2872 N.pl3   
  19 C19            4.8044    -4.9286     4.2474 C.ar    
  20 C20            3.6285    -5.6061     3.8771 C.ar    
  21 C21            3.1407    -6.6424     4.6756 C.ar    
  22 C22            3.8092    -6.9936     5.8142 C.ar    
  23 C23            4.9699    -6.3278     6.1843 C.ar    
  24 C24            5.4668    -5.3003     5.4130 C.ar    
  25 C25            0.2788    -7.7840     0.3265 C.2     
  26 O26            0.3463    -8.5018     1.3042 O.2     
  27 C27           -0.7815    -7.8491    -0.7034 C.2     
  28 C28           -0.5433    -6.9039    -1.6461 C.2     
  29 C29           -1.3254    -6.6426    -2.7960 C.2     
  30 O30           -2.3771    -7.2258    -2.9601 O.2     
  31 C31           -0.8525    -5.6402    -3.8171 C.3     
  32 O32           -1.8215    -8.7124    -0.7043 O.3     
  33 H33           -0.4770     1.7054     0.9811 H       
  34 H34           -1.8854     1.5947    -0.1017 H       
  35 H35           -2.0905     1.3653     1.6515 H       
  36 H36            1.1751    -1.6907    -2.2842 H       
  37 H37            1.6402    -4.0786    -2.6453 H       
  38 H38           -0.8370    -5.0844     0.6797 H       
  39 H39           -1.3106    -2.7015     1.0625 H       
  40 H40            1.4856    -6.2991    -1.9970 H       
  41 H41            2.7212    -7.3232     1.3203 H       
  42 H42            3.1104    -6.0568     0.1315 H       
  43 H43            1.5861    -4.4898     1.3018 H       
  44 H44            1.1969    -5.7562     2.4905 H       
  45 H45            3.4131    -2.2342     1.3639 H       
  46 H46            4.9993    -2.8331     0.8222 H       
  47 H47            3.5109    -3.6581     0.3002 H       
  48 H48            5.7873    -3.3513     3.2898 H       
  49 H49            2.2380    -7.1644     4.3944 H       
  50 H50            3.4314    -7.7952     6.4315 H       
  51 H51            5.4870    -6.6166     7.0874 H       
  52 H52            6.3705    -4.7886     5.7093 H       
  53 H53           -0.1720    -6.1267    -4.5159 H       
  54 H54           -1.7097    -5.2437    -4.3612 H       
  55 H55           -0.3336    -4.8250    -3.3127 H       
  56 H56           -1.8311    -9.3173     0.0501 H       
@<TRIPOS>BOND
   1    1    2 1
   2    1   33 1
   3    1   34 1
   4    1   35 1
   5    2    3 1
   6    3    4 2
   7    3    5 1
   8    5    6 ar
   9    5   10 ar
  10    6    7 ar
  11    6   36 1
  12    7    8 ar
  13    7   37 1
  14    8    9 ar
  15    8   11 1
  16    9   10 ar
  17    9   38 1
  18   10   39 1
  19   11   12 1
  20   11   28 1
  21   11   40 1
  22   12   13 1
  23   12   25 am
  24   13   14 1
  25   13   41 1
  26   13   42 1
  27   14   15 1
  28   14   43 1
  29   14   44 1
  30   15   16 2
  31   15   20 1
  32   16   17 1
  33   16   18 1
  34   17   45 1
  35   17   46 1
  36   17   47 1
  37   18   19 1
  38   18   48 1
  39   19   20 ar
  40   19   24 ar
  41   20   21 ar
  42   21   22 ar
  43   21   49 1
  44   22   23 ar
  45   22   50 1
  46   23   24 ar
  47   23   51 1
  48   24   52 1
  49   25   26 2
  50   25   27 1
  51   27   28 2
  52   27   32 1
  53   28   29 1
  54   29   30 2
  55   29   31 1
  56   31   53 1
  57   31   54 1
  58   31   55 1
  59   32   56 1

#	End of record

