#	Name: ASD10160047
#	Creating user name:	WinNT
#	Creation time:	15. 06. 2019 21:25

#	Modifying user name:	WinNT
#	Modification time:	15. 06. 2019 21:25

#	Program:	/corina/corina34_cracker 3.40 0067  02.08.2006

@<TRIPOS>MOLECULE
ASD10160047
  51   53    0    0    0
SMALL
NO_CHARGES


@<TRIPOS>ATOM
   1 C1            -2.2285    -2.6041     4.8622 C.2     
   2 C2            -1.6271    -3.0068     3.5777 C.ar    
   3 C3            -0.3025    -3.4583     3.5333 C.ar    
   4 C4             0.2555    -3.8340     2.3281 C.ar    
   5 C5            -0.4951    -3.7643     1.1618 C.ar    
   6 C6            -1.8120    -3.3158     1.2023 C.ar    
   7 C7            -2.3794    -2.9443     2.4010 C.ar    
   8 O8            -1.5740    -2.6639     5.8853 O.2     
   9 N9            -3.5020    -2.1645     4.9017 N.am    
  10 S10           -4.1775    -1.7122     6.3444 S.o2    
  11 O11           -5.5066    -1.3392     6.0074 O.2     
  12 O12           -3.9218    -2.8095     7.2103 O.2     
  13 C13           -3.2193    -0.2599     6.8573 C.3     
  14 F14            0.4280    -3.5258     4.6678 F       
  15 O15            0.0574    -4.1341    -0.0213 O.3     
  16 C16            2.4201    -3.8533    -0.1453 C.ar    
  17 C17            1.3080    -4.6676    -0.0027 C.ar    
  18 C18            1.4868    -6.0386     0.1602 C.ar    
  19 C19            2.7783    -6.5379     0.1735 C.ar    
  20 C20            3.8451    -5.6598     0.0247 C.ar    
  21 N21            3.6369    -4.3633    -0.1284 N.ar    
  22 O22            5.1155    -6.1390     0.0362 O.3     
  23 N23            8.8361    -4.5682    -1.0402 N.3     
  24 C24            8.5593    -4.6834     0.3973 C.3     
  25 C25            7.4164    -5.6766     0.6200 C.3     
  26 C26            6.1694    -5.1869    -0.1213 C.3     
  27 C27            6.4983    -5.0290    -1.6084 C.3     
  28 C28            7.6678    -4.0546    -1.7665 C.3     
  29 C29           10.0175    -3.7296    -1.2832 C.3     
  30 Cl30           3.0612    -8.2389     0.3740 Cl      
  31 Cl31          -2.7436    -3.2310    -0.2601 Cl      
  32 H32            1.2772    -4.1822     2.2920 H       
  33 H33           -3.4029    -2.6008     2.4313 H       
  34 H34           -4.0228    -2.1130     4.0850 H       
  35 H35           -3.3111     0.5211     6.1025 H       
  36 H36           -3.6001     0.1088     7.8098 H       
  37 H37           -2.1709    -0.5368     6.9680 H       
  38 H38            2.2891    -2.7894    -0.2767 H       
  39 H39            0.6384    -6.6971     0.2740 H       
  40 H40            9.4528    -5.0366     0.9121 H       
  41 H41            8.2747    -3.7080     0.7917 H       
  42 H42            7.7056    -6.6558     0.2383 H       
  43 H43            7.2007    -5.7502     1.6859 H       
  44 H44            5.8564    -4.2261     0.2875 H       
  45 H45            6.7731    -5.9979    -2.0252 H       
  46 H46            5.6267    -4.6398    -2.1346 H       
  47 H47            7.3874    -3.0820    -1.3619 H       
  48 H48            7.9138    -3.9509    -2.8233 H       
  49 H49           10.8849    -4.1735    -0.7947 H       
  50 H50           10.2000    -3.6610    -2.3556 H       
  51 H51            9.8442    -2.7320    -0.8796 H       
@<TRIPOS>BOND
   1    1    2 1
   2    1    8 2
   3    1    9 am
   4    2    3 ar
   5    2    7 ar
   6    3    4 ar
   7    3   14 1
   8    4    5 ar
   9    4   32 1
  10    5    6 ar
  11    5   15 1
  12    6    7 ar
  13    6   31 1
  14    7   33 1
  15    9   10 am
  16    9   34 1
  17   10   11 2
  18   10   12 2
  19   10   13 1
  20   13   35 1
  21   13   36 1
  22   13   37 1
  23   15   17 1
  24   16   17 ar
  25   16   21 ar
  26   16   38 1
  27   17   18 ar
  28   18   19 ar
  29   18   39 1
  30   19   20 ar
  31   19   30 1
  32   20   21 ar
  33   20   22 1
  34   22   26 1
  35   23   24 1
  36   23   28 1
  37   23   29 1
  38   24   25 1
  39   24   40 1
  40   24   41 1
  41   25   26 1
  42   25   42 1
  43   25   43 1
  44   26   27 1
  45   26   44 1
  46   27   28 1
  47   27   45 1
  48   27   46 1
  49   28   47 1
  50   28   48 1
  51   29   49 1
  52   29   50 1
  53   29   51 1

#	End of record

