#	Name: ASD10410080
#	Creating user name:	WinNT
#	Creation time:	15. 06. 2019 21:26

#	Modifying user name:	WinNT
#	Modification time:	15. 06. 2019 21:26

#	Program:	/corina/corina34_cracker 3.40 0067  02.08.2006

@<TRIPOS>MOLECULE
ASD10410080
  73   78    0    0    0
SMALL
NO_CHARGES


@<TRIPOS>ATOM
   1 C1             0.0476     1.5090     0.0195 C.ar    
   2 C2            -0.0519     0.1246     0.0210 C.ar    
   3 C3             1.0983    -0.6548    -0.0168 C.ar    
   4 C4             2.3402    -0.0512    -0.0559 C.ar    
   5 C5             2.4389     1.3344    -0.0573 C.ar    
   6 C6             1.2895     2.1124    -0.0195 C.ar    
   7 Cl7            0.9743    -2.3864    -0.0144 Cl      
   8 N8             3.6977     1.9465    -0.0964 N.pl3   
   9 C9             3.8487     3.1916    -0.7048 C.2     
  10 N10            4.9495     3.9042    -0.7145 N.2     
  11 N11            2.8948     3.8472    -1.3769 N.2     
  12 C12            3.3707     4.9902    -1.8216 C.2     
  13 N13            4.6713     5.0799    -1.4304 N.pl3   
  14 C14            5.5480     6.1248    -1.6881 C.ar    
  15 N15            2.6757     5.9299    -2.5569 N.pl3   
  16 N16           -1.3112    -0.4870     0.0610 N.3     
  17 C17           -1.5883    -1.2043    -1.1913 C.3     
  18 C18           -2.9350    -1.9226    -1.0773 C.3     
  19 N19           -3.9893    -0.9391    -0.7926 N.3     
  20 C20           -3.7121    -0.2218     0.4596 C.3     
  21 C21           -2.3654     0.4965     0.3457 C.3     
  22 C22           -5.3101    -1.5806    -0.7506 C.3     
  23 N23            5.6605     6.6345    -2.9077 N.ar    
  24 C24            6.4927     7.6299    -3.1636 C.ar    
  25 N25            7.2555     8.1778    -2.2467 N.ar    
  26 C26            7.2210     7.7390    -0.9803 C.ar    
  27 C27            6.3394     6.6774    -0.6585 C.ar    
  28 N28            7.9860     8.2796    -0.0306 N.ar    
  29 C29            7.9451     7.8422     1.2112 C.ar    
  30 C30            7.0975     6.7899     1.5927 C.ar    
  31 C31            6.2856     6.2006     0.6612 C.ar    
  32 C32           -6.3630    -0.5530    -0.3305 C.3     
  33 C33           -7.7387    -1.2211    -0.2867 C.3     
  34 C34           -8.0845    -1.7679    -1.6732 C.3     
  35 C35           -7.0317    -2.7954    -2.0934 C.3     
  36 C36           -5.6559    -2.1273    -2.1371 C.3     
  37 O37            7.0794     6.3614     2.8831 O.3     
  38 C38            6.1918     5.2865     3.1973 C.3     
  39 O39            8.7408     8.4215     2.1430 O.3     
  40 C40            9.5848     9.4875     1.7032 C.3     
  41 H41           -0.8463     2.1146     0.0444 H       
  42 H42            3.2342    -0.6564    -0.0849 H       
  43 H43            1.3665     3.1896    -0.0210 H       
  44 H44            4.4647     1.5041     0.2998 H       
  45 H45            1.7471     5.7737    -2.7897 H       
  46 H46            3.1161     6.7463    -2.8407 H       
  47 H47           -1.6239    -0.4938    -2.0171 H       
  48 H48           -0.8006    -1.9353    -1.3736 H       
  49 H49           -3.1562    -2.4316    -2.0154 H       
  50 H50           -2.8906    -2.6524    -0.2689 H       
  51 H51           -4.4998     0.5092     0.6420 H       
  52 H52           -3.6765    -0.9323     1.2855 H       
  53 H53           -2.1442     1.0055     1.2838 H       
  54 H54           -2.4098     1.2263    -0.4627 H       
  55 H55           -5.2938    -2.3991    -0.0310 H       
  56 H56            6.5475     8.0091    -4.1733 H       
  57 H57            5.6255     5.3901     0.9327 H       
  58 H58           -6.1166    -0.1636     0.6573 H       
  59 H59           -6.3793     0.2655    -1.0501 H       
  60 H60           -7.7224    -2.0397     0.4329 H       
  61 H61           -8.4888    -0.4891     0.0126 H       
  62 H62           -9.0646    -2.2438    -1.6420 H       
  63 H63           -8.1008    -0.9493    -2.3928 H       
  64 H64           -7.0153    -3.6140    -1.3738 H       
  65 H65           -7.2780    -3.1849    -3.0812 H       
  66 H66           -5.6722    -1.3088    -2.8568 H       
  67 H67           -4.9059    -2.8594    -2.4365 H       
  68 H68            5.1674     5.5838     2.9731 H       
  69 H69            6.4549     4.4121     2.6020 H       
  70 H70            6.2760     5.0435     4.2566 H       
  71 H71           10.1673     9.8609     2.5454 H       
  72 H72           10.2591     9.1212     0.9290 H       
  73 H73            8.9718    10.2934     1.2996 H       
@<TRIPOS>BOND
   1    1    2 ar
   2    1    6 ar
   3    1   41 1
   4    2    3 ar
   5    2   16 1
   6    3    4 ar
   7    3    7 1
   8    4    5 ar
   9    4   42 1
  10    5    6 ar
  11    5    8 1
  12    6   43 1
  13    8    9 1
  14    8   44 1
  15    9   10 2
  16    9   11 1
  17   10   13 1
  18   11   12 2
  19   12   13 1
  20   12   15 1
  21   13   14 1
  22   14   23 ar
  23   14   27 ar
  24   15   45 1
  25   15   46 1
  26   16   17 1
  27   16   21 1
  28   17   18 1
  29   17   47 1
  30   17   48 1
  31   18   19 1
  32   18   49 1
  33   18   50 1
  34   19   20 1
  35   19   22 1
  36   20   21 1
  37   20   51 1
  38   20   52 1
  39   21   53 1
  40   21   54 1
  41   22   32 1
  42   22   36 1
  43   22   55 1
  44   23   24 ar
  45   24   25 ar
  46   24   56 1
  47   25   26 ar
  48   26   27 ar
  49   26   28 ar
  50   27   31 ar
  51   28   29 ar
  52   29   30 ar
  53   29   39 1
  54   30   31 ar
  55   30   37 1
  56   31   57 1
  57   32   33 1
  58   32   58 1
  59   32   59 1
  60   33   34 1
  61   33   60 1
  62   33   61 1
  63   34   35 1
  64   34   62 1
  65   34   63 1
  66   35   36 1
  67   35   64 1
  68   35   65 1
  69   36   66 1
  70   36   67 1
  71   37   38 1
  72   38   68 1
  73   38   69 1
  74   38   70 1
  75   39   40 1
  76   40   71 1
  77   40   72 1
  78   40   73 1

#	End of record

