#	Name: ASD10160549
#	Creating user name:	WinNT
#	Creation time:	15. 06. 2019 21:26

#	Modifying user name:	WinNT
#	Modification time:	15. 06. 2019 21:26

#	Program:	/corina/corina34_cracker 3.40 0067  02.08.2006

@<TRIPOS>MOLECULE
ASD10160549
  42   44    0    0    0
SMALL
NO_CHARGES


@<TRIPOS>ATOM
   1 C1            -0.0168     1.3844     0.0097 C.ar    
   2 C2             0.0021    -0.0041     0.0020 C.ar    
   3 C3             1.2236    -0.6642    -0.0132 C.ar    
   4 C4             2.3911     0.1041    -0.0202 C.ar    
   5 C5             2.2850     1.4934    -0.0117 C.ar    
   6 N6             1.1050     2.0780     0.0027 N.ar    
   7 O7             5.0865     0.0482    -0.0456 O.3     
   8 B8             3.8004    -0.5875    -0.0368 Du      
   9 O9             4.0843    -1.9938    -0.0460 O.3     
  10 C10            5.2193    -2.1431     0.8326 C.3     
  11 C11            5.8989    -0.7586     0.8329 C.3     
  12 C12            7.3259    -0.8650     0.2915 C.3     
  13 C13            5.9056    -0.1684     2.2445 C.3     
  14 C14            4.7563    -2.5101     2.2440 C.3     
  15 C15            6.1766    -3.2067     0.2909 C.3     
  16 C16           -1.3380     2.1092     0.0198 C.3     
  17 C17           -1.6255     3.0374     1.2016 C.3     
  18 C18           -1.3130     3.6264    -0.1755 C.3     
  19 O19           -1.1606    -0.7081     0.0098 O.3     
  20 C20           -1.0561    -2.1332     0.0011 C.3     
  21 F21           -0.3756    -2.5439    -1.1502 F       
  22 F22           -0.3530    -2.5562     1.1342 F       
  23 H23            1.2703    -1.7432    -0.0191 H       
  24 H24            3.1803     2.0975    -0.0166 H       
  25 H25            7.7714     0.1286     0.2439 H       
  26 H26            7.9188    -1.4978     0.9518 H       
  27 H27            7.3040    -1.3016    -0.7070 H       
  28 H28            4.8840    -0.1147     2.6207 H       
  29 H29            6.5016    -0.8027     2.9007 H       
  30 H30            6.3360     0.8327     2.2177 H       
  31 H31            4.2278    -3.4630     2.2167 H       
  32 H32            5.6226    -2.5937     2.9003 H       
  33 H33            4.0888    -1.7350     2.6204 H       
  34 H34            6.5088    -2.9219    -0.7074 H       
  35 H35            7.0398    -3.2888     0.9514 H       
  36 H36            5.6632    -4.1670     0.2429 H       
  37 H37           -2.1785     1.5605    -0.4052 H       
  38 H38           -2.6551     3.0998     1.5537 H       
  39 H39           -0.8590     3.1239     1.9717 H       
  40 H40           -0.3409     4.1004    -0.3114 H       
  41 H41           -2.1370     4.0762    -0.7293 H       
  42 H42           -2.0544    -2.5708     0.0086 H       
@<TRIPOS>BOND
   1    1    2 ar
   2    1    6 ar
   3    1   16 1
   4    2    3 ar
   5    2   19 1
   6    3    4 ar
   7    3   23 1
   8    4    5 ar
   9    4    8 1
  10    5    6 ar
  11    5   24 1
  12    7    8 1
  13    7   11 1
  14    8    9 1
  15    9   10 1
  16   10   11 1
  17   10   14 1
  18   10   15 1
  19   11   12 1
  20   11   13 1
  21   12   25 1
  22   12   26 1
  23   12   27 1
  24   13   28 1
  25   13   29 1
  26   13   30 1
  27   14   31 1
  28   14   32 1
  29   14   33 1
  30   15   34 1
  31   15   35 1
  32   15   36 1
  33   16   17 1
  34   16   18 1
  35   16   37 1
  36   17   18 1
  37   17   38 1
  38   17   39 1
  39   18   40 1
  40   18   41 1
  41   19   20 1
  42   20   21 1
  43   20   22 1
  44   20   42 1

#	End of record

