#	Name: ASD13490034
#	Creating user name:	WinNT
#	Creation time:	15. 06. 2019 21:30

#	Modifying user name:	WinNT
#	Modification time:	15. 06. 2019 21:30

#	Program:	/corina/corina34_cracker 3.40 0067  02.08.2006

@<TRIPOS>MOLECULE
ASD13490034
  53   56    0    0    0
SMALL
NO_CHARGES


@<TRIPOS>ATOM
   1 C1             0.3242     1.1493    -0.5850 C.ar    
   2 C2            -1.9611     1.4396    -0.5201 C.ar    
   3 N3            -0.7381     1.9359    -0.6523 N.ar    
   4 N4             0.2158    -0.1553    -0.3867 N.ar    
   5 C5            -2.1170     0.0820    -0.2985 C.ar    
   6 C6            -0.9798    -0.7236    -0.2417 C.ar    
   7 O7            -3.3651    -0.4368    -0.1471 O.3     
   8 N8            -1.0602    -2.0917    -0.0459 N.3     
   9 C9            -2.3398    -2.4905     0.5526 C.3     
  10 C10           -3.4807    -1.8605    -0.2566 C.3     
  11 C11            0.0704    -2.5758     0.7575 C.3     
  12 N12            1.5853     1.7060    -0.7319 N.pl3   
  13 C13            1.7286     3.1473    -0.9521 C.3     
  14 C14            3.2207     4.9360    -1.8511 C.3     
  15 N15            3.2205     5.5840    -0.5334 N.3     
  16 C16            1.9454     5.3706     0.1631 C.3     
  17 C17            1.7345     3.8729     0.3962 C.3     
  18 C18            3.0478     3.4253    -1.6781 C.3     
  19 C19            3.5067     6.9416    -0.6451 C.ar    
  20 C20            3.7487     7.5218    -1.8920 C.ar    
  21 C21            4.0283     8.8687    -1.9635 C.ar    
  22 N22            4.0699     9.6119    -0.8724 N.ar    
  23 C23            3.8467     9.1019     0.3286 C.ar    
  24 C24            3.5532     7.7561     0.4828 C.ar    
  25 O25            3.9012     9.9063     1.4200 O.3     
  26 C26            4.2034    11.2848     1.1955 C.3     
  27 C27           -0.1031    -4.0708     1.0332 C.3     
  28 F28           -0.3003    -4.7480    -0.1750 F       
  29 F29            1.0443    -4.5650     1.6629 F       
  30 F30           -1.2117    -4.2662     1.8638 F       
  31 H31           -2.8234     2.0875    -0.5755 H       
  32 H32           -2.4315    -3.5764     0.5293 H       
  33 H33           -2.3861    -2.1398     1.5836 H       
  34 H34           -4.4406    -2.1845     0.1455 H       
  35 H35           -3.3990    -2.1577    -1.3021 H       
  36 H36            0.9999    -2.4124     0.2122 H       
  37 H37            0.1032    -2.0335     1.7024 H       
  38 H38            2.3728     1.1413    -0.6888 H       
  39 H39            0.8968     3.5078    -1.5573 H       
  40 H40            2.3989     5.3294    -2.4495 H       
  41 H41            4.1659     5.1380    -2.3550 H       
  42 H42            1.9644     5.8883     1.1221 H       
  43 H43            1.1297     5.7620    -0.4447 H       
  44 H44            0.7807     3.7137     0.8993 H       
  45 H45            2.5426     3.4836     1.0155 H       
  46 H46            3.8766     3.0289    -1.0915 H       
  47 H47            3.0323     2.9463    -2.6571 H       
  48 H48            3.7174     6.9217    -2.7894 H       
  49 H49            4.2163     9.3233    -2.9249 H       
  50 H50            3.3672     7.3447     1.4639 H       
  51 H51            4.2158    11.8139     2.1484 H       
  52 H52            5.1805    11.3698     0.7200 H       
  53 H53            3.4443    11.7222     0.5470 H       
@<TRIPOS>BOND
   1    1    4 ar
   2    1   12 1
   3    1    3 ar
   4    2    3 ar
   5    2    5 ar
   6    2   31 1
   7    4    6 ar
   8    5    6 ar
   9    5    7 1
  10    6    8 1
  11    7   10 1
  12    8    9 1
  13    8   11 1
  14    9   10 1
  15    9   32 1
  16    9   33 1
  17   10   34 1
  18   10   35 1
  19   11   27 1
  20   11   36 1
  21   11   37 1
  22   12   13 1
  23   12   38 1
  24   13   18 1
  25   13   17 1
  26   13   39 1
  27   14   15 1
  28   14   18 1
  29   14   40 1
  30   14   41 1
  31   15   16 1
  32   15   19 1
  33   16   17 1
  34   16   42 1
  35   16   43 1
  36   17   44 1
  37   17   45 1
  38   18   46 1
  39   18   47 1
  40   19   20 ar
  41   19   24 ar
  42   20   21 ar
  43   20   48 1
  44   21   22 ar
  45   21   49 1
  46   22   23 ar
  47   23   24 ar
  48   23   25 1
  49   24   50 1
  50   25   26 1
  51   26   51 1
  52   26   52 1
  53   26   53 1
  54   27   28 1
  55   27   29 1
  56   27   30 1

#	End of record

