#	Name: ASD10220044
#	Creating user name:	WinNT
#	Creation time:	15. 06. 2019 21:26

#	Modifying user name:	WinNT
#	Modification time:	15. 06. 2019 21:26

#	Program:	/corina/corina34_cracker 3.40 0067  02.08.2006

@<TRIPOS>MOLECULE
ASD10220044
  24   26    0    0    0
SMALL
NO_CHARGES


@<TRIPOS>ATOM
   1 C1             0.0900     2.0872     0.8323 C.2     
   2 C2             0.3212     0.6923     0.7947 C.2     
   3 C3            -0.6844    -0.1839     0.5721 C.2     
   4 C4            -2.0628     0.2551     0.3580 C.2     
   5 C5            -2.3707     1.6064     0.3804 C.2     
   6 C6            -1.3081     2.5946     0.6251 C.2     
   7 O7            -3.2028    -0.4220     0.1232 O.3     
   8 C8            -4.2418     0.4052    -0.0100 C.2     
   9 C9            -3.8138     1.6973     0.1361 C.2     
  10 O10           -1.5523     3.7825     0.6494 O.2     
  11 O11            1.0052     2.8607     1.0337 O.2     
  12 C12           -4.6313     2.9221     0.0629 C.2     
  13 O13           -5.3605     3.2232     0.9895 O.2     
  14 C14           -4.5655     3.7804    -1.1305 C.2     
  15 Cl15           1.9316     0.0919     1.0393 Cl      
  16 Cl16          -0.3279    -1.8826     0.5387 Cl      
  17 C17           -3.8569     3.4597    -2.2484 C.2     
  18 S18           -4.0054     4.6794    -3.4297 S.3     
  19 C19           -5.0459     5.6514    -2.4038 C.2     
  20 C20           -5.2508     5.0472    -1.2397 C.2     
  21 H21           -5.2604     0.1026    -0.2035 H       
  22 H22           -3.2789     2.5554    -2.3698 H       
  23 H23           -5.4650     6.6069    -2.6826 H       
  24 H24           -5.8612     5.4637    -0.4521 H       
@<TRIPOS>BOND
   1    1    2 1
   2    1   11 2
   3    1    6 1
   4    2    3 2
   5    2   15 1
   6    3    4 1
   7    3   16 1
   8    4    5 2
   9    4    7 1
  10    5    6 1
  11    5    9 1
  12    6   10 2
  13    7    8 1
  14    8    9 2
  15    8   21 1
  16    9   12 1
  17   12   13 2
  18   12   14 1
  19   14   17 2
  20   14   20 1
  21   17   18 1
  22   17   22 1
  23   18   19 1
  24   19   20 2
  25   19   23 1
  26   20   24 1

#	End of record

