#	Name: ASD10160304
#	Creating user name:	WinNT
#	Creation time:	15. 06. 2019 21:25

#	Modifying user name:	WinNT
#	Modification time:	15. 06. 2019 21:25

#	Program:	/corina/corina34_cracker 3.40 0067  02.08.2006

@<TRIPOS>MOLECULE
ASD10160304
  22   23    0    0    0
SMALL
NO_CHARGES


@<TRIPOS>ATOM
   1 C1            -0.0168     1.3861     0.0097 C.ar    
   2 C2             0.0021    -0.0041     0.0020 C.ar    
   3 C3             1.2210    -0.6607    -0.0131 C.ar    
   4 C4             2.3825     0.0998    -0.0201 C.ar    
   5 C5             2.2883     1.4769    -0.0118 C.ar    
   6 N6             1.1118     2.0749     0.0026 N.ar    
   7 O7            -1.2046     2.0422     0.0188 O.3     
   8 C8            -1.1569     3.4703     0.0264 C.3     
   9 C9            -2.3592     4.1306    -0.6689 C.3     
  10 C10           -2.3425     5.1709     0.4634 C.3     
  11 C11           -1.6691     4.0969     1.3340 C.3     
  12 Cl12          -1.4823    -0.9043     0.0119 Cl      
  13 H13            1.2672    -1.7397    -0.0190 H       
  14 H14            3.3495    -0.3810    -0.0316 H       
  15 H15            3.1890     2.0728    -0.0172 H       
  16 H16           -0.1939     3.8634    -0.2998 H       
  17 H17           -2.1227     4.5471    -1.6481 H       
  18 H18           -3.2543     3.5086    -0.6773 H       
  19 H19           -1.7038     6.0299     0.2578 H       
  20 H20           -3.3361     5.4545     0.8105 H       
  21 H21           -2.3756     3.4658     1.8731 H       
  22 H22           -0.8756     4.4863     1.9718 H       
@<TRIPOS>BOND
   1    1    2 ar
   2    1    6 ar
   3    1    7 1
   4    2    3 ar
   5    2   12 1
   6    3    4 ar
   7    3   13 1
   8    4    5 ar
   9    4   14 1
  10    5    6 ar
  11    5   15 1
  12    7    8 1
  13    8    9 1
  14    8   11 1
  15    8   16 1
  16    9   10 1
  17    9   17 1
  18    9   18 1
  19   10   11 1
  20   10   19 1
  21   10   20 1
  22   11   21 1
  23   11   22 1

#	End of record

