#	Name: ASD14290003
#	Creating user name:	WinNT
#	Creation time:	15. 06. 2019 21:31

#	Modifying user name:	WinNT
#	Modification time:	15. 06. 2019 21:31

#	Program:	/corina/corina34_cracker 3.40 0067  02.08.2006

@<TRIPOS>MOLECULE
ASD14290003
  68   71    0    0    0
SMALL
NO_CHARGES


@<TRIPOS>ATOM
   1 C1             0.3683     0.6594     0.1792 C.ar    
   2 C2             0.5294    -0.6978    -0.0495 C.ar    
   3 C3             1.7990    -1.2135    -0.2917 C.ar    
   4 C4             2.8964    -0.3677    -0.3031 C.ar    
   5 C5             2.7288     0.9853    -0.0742 C.ar    
   6 C6             1.4675     1.4977     0.1664 C.ar    
   7 C7             1.2903     2.9736     0.4154 C.3     
   8 C8             1.1738     3.6999    -0.9275 C.3     
   9 O9             2.2002     4.7127    -1.0244 O.3     
  10 C10            3.0509     4.6710    -2.0641 C.2     
  11 O11            2.9145     3.8625    -2.9505 O.2     
  12 C12            4.2002     5.6556    -2.0965 C.3     
  13 C13            4.5963     5.9743    -0.6534 C.3     
  14 C14            5.6975     5.0705    -0.1970 C.2     
  15 C15            6.8310     5.5410     0.6596 C.3     
  16 O16            6.9566     6.9648     0.7132 O.3     
  17 C17            6.0839     7.7921     0.1544 C.2     
  18 C18            4.9750     7.4090    -0.4782 C.2     
  19 C19            5.6760     3.8013    -0.5530 C.2     
  20 C20            4.5199     3.2634    -1.3561 C.3     
  21 O21            6.6848     5.0046     1.9772 O.3     
  22 C22            5.4679     5.3534     2.6391 C.3     
  23 O23            4.4288     4.4461     2.2638 O.3     
  24 C24            3.3435     4.3752     3.1891 C.3     
  25 C25            2.1879     3.5947     2.5533 C.3     
  26 C26            3.8014     3.6652     4.4638 C.3     
  27 C27            5.3065     3.8788     4.6469 C.3     
  28 C28            5.6789     5.2815     4.1523 C.3     
  29 O29            7.0486     5.5466     4.4567 O.3     
  30 C30            4.1206     8.4290    -0.9670 C.2     
  31 O31            4.4264     9.5982    -0.8259 O.2     
  32 O32            2.9683     8.1034    -1.5888 O.3     
  33 C33            2.1559     9.1822    -2.0559 C.3     
  34 O34            3.1007     4.2036     5.5888 O.3     
  35 O35            5.6422     3.7528     6.0307 O.3     
  36 O36           -0.5507    -1.5239    -0.0368 O.3     
  37 O37            1.9622    -2.5448    -0.5163 O.3     
  38 O38            2.4106     3.4725     1.1445 O.3     
  39 H39            0.3820     3.1394     0.9925 H       
  40 H40            3.7096     5.7806    -0.0205 H       
  41 H41           -0.6165     1.0628     0.3630 H       
  42 H42            3.8829    -0.7655    -0.4905 H       
  43 H43            3.5850     1.6435    -0.0834 H       
  44 H44            1.2831     2.9776    -1.7342 H       
  45 H45            0.1932     4.1702    -0.9933 H       
  46 H46            5.0446     5.2127    -2.6292 H       
  47 H47            3.8858     6.5458    -2.6355 H       
  48 H48            7.7674     5.1395     0.2346 H       
  49 H49            6.2805     8.8559     0.2117 H       
  50 H50            6.4870     3.1470    -0.2690 H       
  51 H51            4.5186     3.7236    -2.3442 H       
  52 H52            4.6201     2.1829    -1.4585 H       
  53 H53            3.5846     3.4948    -0.8463 H       
  54 H54            5.1773     6.3673     2.3591 H       
  55 H55            3.0037     5.3807     3.4370 H       
  56 H56            2.1242     2.6055     3.0033 H       
  57 H57            1.2546     4.1321     2.7208 H       
  58 H58            3.5956     2.5979     4.3860 H       
  59 H59            5.8511     3.1332     4.0665 H       
  60 H60            5.0468     6.0225     4.6417 H       
  61 H61            7.3532     6.4189     4.1714 H       
  62 H62            2.7193     9.7761    -2.7756 H       
  63 H63            1.2619     8.7828    -2.5351 H       
  64 H64            1.8667     9.8105    -1.2135 H       
  65 H65            3.3421     3.7987     6.4331 H       
  66 H66            6.5823     3.8765     6.2202 H       
  67 H67           -0.9748    -1.6301    -0.8994 H       
  68 H68            1.8980    -2.7974    -1.4475 H       
@<TRIPOS>BOND
   1    1    2 ar
   2    1    6 ar
   3    1   41 1
   4    2    3 ar
   5    2   36 1
   6    3    4 ar
   7    3   37 1
   8    4    5 ar
   9    4   42 1
  10    5    6 ar
  11    5   43 1
  12    6    7 1
  13    7    8 1
  14    7   39 1
  15    7   38 1
  16    8    9 1
  17    8   44 1
  18    8   45 1
  19    9   10 1
  20   10   11 2
  21   10   12 1
  22   12   13 1
  23   12   46 1
  24   12   47 1
  25   13   14 1
  26   13   18 1
  27   13   40 1
  28   14   19 2
  29   14   15 1
  30   15   16 1
  31   15   21 1
  32   15   48 1
  33   16   17 1
  34   17   18 2
  35   17   49 1
  36   18   30 1
  37   19   20 1
  38   19   50 1
  39   20   51 1
  40   20   52 1
  41   20   53 1
  42   21   22 1
  43   22   23 1
  44   22   28 1
  45   22   54 1
  46   23   24 1
  47   24   25 1
  48   24   26 1
  49   24   55 1
  50   25   38 1
  51   25   56 1
  52   25   57 1
  53   26   27 1
  54   26   34 1
  55   26   58 1
  56   27   28 1
  57   27   35 1
  58   27   59 1
  59   28   29 1
  60   28   60 1
  61   29   61 1
  62   30   31 2
  63   30   32 1
  64   32   33 1
  65   33   62 1
  66   33   63 1
  67   33   64 1
  68   34   65 1
  69   35   66 1
  70   36   67 1
  71   37   68 1

#	End of record

