#	Name: ASD10160468
#	Creating user name:	WinNT
#	Creation time:	15. 06. 2019 21:26

#	Modifying user name:	WinNT
#	Modification time:	15. 06. 2019 21:26

#	Program:	/corina/corina34_cracker 3.40 0067  02.08.2006

@<TRIPOS>MOLECULE
ASD10160468
  38   39    0    0    0
SMALL
NO_CHARGES


@<TRIPOS>ATOM
   1 C1            -0.0178     1.4644     0.0101 C.2     
   2 C2             0.0021    -0.0041     0.0020 C.ar    
   3 C3            -1.1996    -0.7231     0.0096 C.ar    
   4 C4            -1.1755    -2.0940     0.0016 C.ar    
   5 C5             0.0396    -2.7705    -0.0137 C.ar    
   6 C6             1.2359    -2.0612    -0.0208 C.ar    
   7 C7             1.2228    -0.6901    -0.0192 C.ar    
   8 O8             1.0242     2.0851     0.0035 O.2     
   9 O9             0.0580    -4.1270    -0.0212 O.3     
  10 C10            1.3399    -4.7583    -0.0368 C.3     
  11 O11            1.9337    -4.6630     1.2595 O.3     
  12 C12            0.4097    -6.3629     1.9405 C.ar    
  13 C13            1.4413    -5.4833     2.2260 C.ar    
  14 C14            1.9678    -5.4496     3.5139 C.ar    
  15 C15            1.4359    -6.3030     4.4661 C.ar    
  16 C16            0.4015    -7.1583     4.1062 C.ar    
  17 N17           -0.0731    -7.1627     2.8724 N.ar    
  18 O18           -0.1273    -7.9991     5.0320 O.3     
  19 C19           -1.1883    -8.8539     4.6012 C.3     
  20 C20           -0.6043   -10.1686     4.0802 C.3     
  21 C21           -2.1216    -9.1416     5.7789 C.3     
  22 Cl22           2.0538    -6.3047     6.0884 Cl      
  23 H23           -0.9604     1.9916     0.0174 H       
  24 H24           -2.1437    -0.1987     0.0222 H       
  25 H25           -2.1017    -2.6495     0.0074 H       
  26 H26            2.1768    -2.5912    -0.0320 H       
  27 H27            2.1522    -0.1402    -0.0296 H       
  28 H28            1.2246    -5.8079    -0.3074 H       
  29 H29            1.9799    -4.2631    -0.7670 H       
  30 H30           -0.0070    -6.3915     0.9445 H       
  31 H31            2.7724    -4.7743     3.7647 H       
  32 H32           -1.7486    -8.3643     3.8047 H       
  33 H33            0.0606    -9.9637     3.2412 H       
  34 H34           -0.0440   -10.6582     4.8768 H       
  35 H35           -1.4136   -10.8207     3.7516 H       
  36 H36           -2.5376    -8.2049     6.1500 H       
  37 H37           -2.9309    -9.7936     5.4502 H       
  38 H38           -1.5613    -9.6311     6.5754 H       
@<TRIPOS>BOND
   1    1    2 1
   2    1    8 2
   3    1   23 1
   4    2    3 ar
   5    2    7 ar
   6    3    4 ar
   7    3   24 1
   8    4    5 ar
   9    4   25 1
  10    5    6 ar
  11    5    9 1
  12    6    7 ar
  13    6   26 1
  14    7   27 1
  15    9   10 1
  16   10   11 1
  17   10   28 1
  18   10   29 1
  19   11   13 1
  20   12   13 ar
  21   12   17 ar
  22   12   30 1
  23   13   14 ar
  24   14   15 ar
  25   14   31 1
  26   15   16 ar
  27   15   22 1
  28   16   17 ar
  29   16   18 1
  30   18   19 1
  31   19   20 1
  32   19   21 1
  33   19   32 1
  34   20   33 1
  35   20   34 1
  36   20   35 1
  37   21   36 1
  38   21   37 1
  39   21   38 1

#	End of record

