#	Name: ASD11000327
#	Creating user name:	WinNT
#	Creation time:	15. 06. 2019 21:29

#	Modifying user name:	WinNT
#	Modification time:	15. 06. 2019 21:29

#	Program:	/corina/corina34_cracker 3.40 0067  02.08.2006

@<TRIPOS>MOLECULE
ASD11000327
  57   61    0    0    0
SMALL
NO_CHARGES


@<TRIPOS>ATOM
   1 C1            -0.0177     1.3909     0.0282 C.ar    
   2 C2            -0.0005    -0.0056     0.0408 C.ar    
   3 C3             1.2169    -0.6382     0.0436 C.ar    
   4 C4             2.3734     0.1559     0.0336 C.ar    
   5 N5             2.2640     1.4806     0.0218 N.ar    
   6 N6             1.1222     2.0677     0.0193 N.ar    
   7 N7            -1.2300     2.0711     0.0191 N.pl3   
   8 C8             3.7037    -0.4758     0.0366 C.2     
   9 C9             4.8094     0.2869     0.0270 C.2     
  10 N10            9.9718    -1.8753     0.0377 N.pl3   
  11 N11           10.7115    -0.6886     0.0250 N.2     
  12 C12            9.9107     0.3383     0.0163 C.2     
  13 C13            8.5403    -0.1658     0.0235 C.ar    
  14 C14            7.2841     0.4454     0.0200 C.ar    
  15 C15            6.1406    -0.3452     0.0300 C.ar    
  16 C16            6.2516    -1.7449     0.0434 C.ar    
  17 C17            7.4746    -2.3446     0.0468 C.ar    
  18 C18            8.6356    -1.5716     0.0370 C.ar    
  19 C19           10.5355    -3.2275     0.0444 C.3     
  20 C20           11.0696    -3.5649    -1.3501 C.3     
  21 C21           11.7109    -4.9556    -1.3201 C.3     
  22 C22           12.8121    -4.9751    -0.2554 C.3     
  23 C23           12.2107    -4.5832     1.0968 C.3     
  24 O24           11.6040    -3.2937     0.9911 O.3     
  25 C25           -1.2507     3.4660     0.1324 C.ar    
  26 C26           -2.2192     4.2031    -0.5366 C.ar    
  27 C27           -2.2391     5.5793    -0.4238 C.ar    
  28 C28           -1.2923     6.2254     0.3574 C.ar    
  29 C29           -0.3247     5.4900     1.0260 C.ar    
  30 C30           -0.3064     4.1133     0.9186 C.ar    
  31 O31           -1.3125     7.5807     0.4675 O.3     
  32 C32           -0.3079     8.1799     1.2884 C.3     
  33 F33           -0.4233     7.6948     2.5955 F       
  34 F34            0.9575     7.8626     0.7832 F       
  35 H35           -0.9202    -0.5718     0.0485 H       
  36 H36            1.2829    -1.7161     0.0536 H       
  37 H37           -2.0616     1.5789    -0.0657 H       
  38 H38            3.7903    -1.5522     0.0465 H       
  39 H39            4.7228     1.3634     0.0171 H       
  40 H40           10.2071     1.3768     0.0061 H       
  41 H41            7.2020     1.5222     0.0101 H       
  42 H42            5.3585    -2.3520     0.0514 H       
  43 H43            7.5456    -3.4222     0.0575 H       
  44 H44            9.7607    -3.9429     0.3198 H       
  45 H45           10.2479    -3.5581    -2.0663 H       
  46 H46           11.8155    -2.8260    -1.6431 H       
  47 H47           10.9541    -5.7009    -1.0755 H       
  48 H48           12.1428    -5.1791    -2.2955 H       
  49 H49           13.2366    -5.9768    -0.1888 H       
  50 H50           13.5932    -4.2647    -0.5263 H       
  51 H51           11.4580    -5.3165     1.3861 H       
  52 H52           12.9981    -4.5538     1.8500 H       
  53 H53           -2.9562     3.7003    -1.1451 H       
  54 H54           -2.9919     6.1527    -0.9443 H       
  55 H55            0.4123     5.9939     1.6337 H       
  56 H56            0.4445     3.5406     1.4424 H       
  57 H57           -0.4377     9.2621     1.2897 H       
@<TRIPOS>BOND
   1    1    2 ar
   2    1    6 ar
   3    1    7 1
   4    2    3 ar
   5    2   35 1
   6    3    4 ar
   7    3   36 1
   8    4    5 ar
   9    4    8 1
  10    5    6 ar
  11    7   25 1
  12    7   37 1
  13    8    9 2
  14    8   38 1
  15    9   15 1
  16    9   39 1
  17   10   11 1
  18   10   18 1
  19   10   19 1
  20   11   12 2
  21   12   13 1
  22   12   40 1
  23   13   14 ar
  24   13   18 ar
  25   14   15 ar
  26   14   41 1
  27   15   16 ar
  28   16   17 ar
  29   16   42 1
  30   17   18 ar
  31   17   43 1
  32   19   20 1
  33   19   24 1
  34   19   44 1
  35   20   21 1
  36   20   45 1
  37   20   46 1
  38   21   22 1
  39   21   47 1
  40   21   48 1
  41   22   23 1
  42   22   49 1
  43   22   50 1
  44   23   24 1
  45   23   51 1
  46   23   52 1
  47   25   26 ar
  48   25   30 ar
  49   26   27 ar
  50   26   53 1
  51   27   28 ar
  52   27   54 1
  53   28   29 ar
  54   28   31 1
  55   29   30 ar
  56   29   55 1
  57   30   56 1
  58   31   32 1
  59   32   33 1
  60   32   34 1
  61   32   57 1

#	End of record

