#	Name: ASD13350001
#	Creating user name:	WinNT
#	Creation time:	15. 06. 2019 21:30

#	Modifying user name:	WinNT
#	Modification time:	15. 06. 2019 21:30

#	Program:	/corina/corina34_cracker 3.40 0067  02.08.2006

@<TRIPOS>MOLECULE
ASD13350001
  31   33    0    0    0
SMALL
NO_CHARGES


@<TRIPOS>ATOM
   1 C1             0.0740     1.3353     0.1636 C.ar    
   2 C2             0.0313    -0.0648     0.0771 C.ar    
   3 C3             1.2244    -0.7841     0.0586 C.ar    
   4 C4             2.4388    -0.0978     0.1245 C.ar    
   5 C5             2.4655     1.2766     0.2091 C.ar    
   6 C6             1.2803     1.9951     0.2289 C.ar    
   7 C7            -1.2923    -0.7037     0.0080 C.2     
   8 N8             1.2783    -2.1675    -0.0198 N.am    
   9 N9            -1.5885    -1.7038    -0.7445 N.2     
  10 C10            0.4947    -2.9221    -0.7868 C.2     
  11 C11           -0.6014    -2.3252    -1.6266 C.3     
  12 C12           -2.3639    -0.1542     0.8701 C.ar    
  13 C13           -2.2583    -0.2386     2.2597 C.ar    
  14 C14           -3.2615     0.2759     3.0575 C.ar    
  15 C15           -4.3682     0.8735     2.4821 C.ar    
  16 C16           -4.4782     0.9596     1.1056 C.ar    
  17 C17           -3.4801     0.4550     0.2974 C.ar    
  18 Cl18           1.3172     3.7275     0.3353 Cl      
  19 Cl19          -0.8699    -0.9890     2.9829 Cl      
  20 O20           -1.2277    -3.3529    -2.3969 O.3     
  21 O21            0.6691    -4.1221    -0.8094 O.2     
  22 H22           -0.8467     1.8997     0.1746 H       
  23 H23            3.3665    -0.6505     0.1092 H       
  24 H24            3.4114     1.7953     0.2605 H       
  25 H25            1.9390    -2.6208     0.5268 H       
  26 H26           -0.1816    -1.5716    -2.2929 H       
  27 H27           -3.1817     0.2112     4.1326 H       
  28 H28           -5.1501     1.2745     3.1100 H       
  29 H29           -5.3453     1.4268     0.6627 H       
  30 H30           -3.5653     0.5277    -0.7768 H       
  31 H31           -1.9515    -3.0394    -2.9562 H       
@<TRIPOS>BOND
   1    1    2 ar
   2    1    6 ar
   3    1   22 1
   4    2    3 ar
   5    2    7 1
   6    3    4 ar
   7    3    8 1
   8    4    5 ar
   9    4   23 1
  10    5    6 ar
  11    5   24 1
  12    6   18 1
  13    7    9 2
  14    7   12 1
  15    8   10 am
  16    8   25 1
  17    9   11 1
  18   10   21 2
  19   10   11 1
  20   11   20 1
  21   11   26 1
  22   12   13 ar
  23   12   17 ar
  24   13   14 ar
  25   13   19 1
  26   14   15 ar
  27   14   27 1
  28   15   16 ar
  29   15   28 1
  30   16   17 ar
  31   16   29 1
  32   17   30 1
  33   20   31 1

#	End of record

