#	Name: ASD11300001
#	Creating user name:	WinNT
#	Creation time:	15. 06. 2019 21:29

#	Modifying user name:	WinNT
#	Modification time:	15. 06. 2019 21:29

#	Program:	/corina/corina34_cracker 3.40 0067  02.08.2006

@<TRIPOS>MOLECULE
ASD11300001
  50   52    0    0    0
SMALL
NO_CHARGES


@<TRIPOS>ATOM
   1 I1            -1.1311     0.5156     0.6554 I       
   2 C2            -0.8295     2.5798     0.4619 C.ar    
   3 C3             0.2864     3.0536    -0.2094 C.ar    
   4 C4             0.4966     4.4114    -0.3443 C.ar    
   5 C5            -0.4117     5.3129     0.1935 C.ar    
   6 C6            -1.5432     4.8368     0.8740 C.ar    
   7 C7            -1.7453     3.4600     0.9980 C.ar    
   8 C8            -2.5151     5.7837     1.4495 C.2     
   9 O9            -2.2862     6.9768     1.4290 O.2     
  10 O10           -3.6576     5.3261     1.9984 O.3     
  11 N11           -0.2011     6.6830     0.0588 N.am    
  12 C12            1.0530     7.1764     0.0708 C.2     
  13 O13            1.9922     6.4405     0.2881 O.2     
  14 C14            1.2884     8.6427    -0.1858 C.3     
  15 C15            0.7605     9.0086    -1.5744 C.3     
  16 C16            1.5323     8.2479    -2.6217 C.ar    
  17 C17            1.1361     6.9737    -2.9827 C.ar    
  18 C18            1.8440     6.2759    -3.9433 C.ar    
  19 C19            2.9479     6.8525    -4.5432 C.ar    
  20 C20            3.3436     8.1270    -4.1829 C.ar    
  21 C21            2.6331     8.8265    -3.2254 C.ar    
  22 N22            2.7281     8.9266    -0.1187 N.3     
  23 C23            2.9726    10.3063     0.3223 C.3     
  24 C24            4.4497    10.5990     0.2610 C.ar    
  25 C25            5.0046    11.1154    -0.8950 C.ar    
  26 C26            6.3595    11.3838    -0.9512 C.ar    
  27 C27            7.1594    11.1362     0.1487 C.ar    
  28 C28            6.6043    10.6207     1.3050 C.ar    
  29 C29            5.2487    10.3563     1.3626 C.ar    
  30 H30            0.9963     2.3564    -0.6293 H       
  31 H31            1.3690     4.7727    -0.8685 H       
  32 H32           -2.6134     3.0858     1.5202 H       
  33 H33           -4.2641     5.9851     2.3631 H       
  34 H34           -0.9570     7.2821    -0.0437 H       
  35 H35            0.7664     9.2318     0.5682 H       
  36 H36           -0.2960     8.7490    -1.6416 H       
  37 H37            0.8828    10.0791    -1.7391 H       
  38 H38            0.2736     6.5232    -2.5140 H       
  39 H39            1.5349     5.2801    -4.2249 H       
  40 H40            3.5015     6.3070    -5.2932 H       
  41 H41            4.2062     8.5774    -4.6513 H       
  42 H42            2.9422     9.8223    -2.9438 H       
  43 H43            3.1993     8.2663     0.4814 H       
  44 H44            2.4381    10.9965    -0.3304 H       
  45 H45            2.6203    10.4283     1.3465 H       
  46 H46            4.3797    11.3088    -1.7543 H       
  47 H47            6.7931    11.7866    -1.8546 H       
  48 H48            8.2180    11.3453     0.1045 H       
  49 H49            7.2293    10.4269     2.1642 H       
  50 H50            4.8150     9.9535     2.2660 H       
@<TRIPOS>BOND
   1    1    2 1
   2    2    3 ar
   3    2    7 ar
   4    3    4 ar
   5    3   30 1
   6    4    5 ar
   7    4   31 1
   8    5    6 ar
   9    5   11 1
  10    6    7 ar
  11    6    8 1
  12    7   32 1
  13    8    9 2
  14    8   10 1
  15   10   33 1
  16   11   12 am
  17   11   34 1
  18   12   13 2
  19   12   14 1
  20   14   15 1
  21   14   22 1
  22   14   35 1
  23   15   16 1
  24   15   36 1
  25   15   37 1
  26   16   17 ar
  27   16   21 ar
  28   17   18 ar
  29   17   38 1
  30   18   19 ar
  31   18   39 1
  32   19   20 ar
  33   19   40 1
  34   20   21 ar
  35   20   41 1
  36   21   42 1
  37   22   23 1
  38   22   43 1
  39   23   24 1
  40   23   44 1
  41   23   45 1
  42   24   25 ar
  43   24   29 ar
  44   25   26 ar
  45   25   46 1
  46   26   27 ar
  47   26   47 1
  48   27   28 ar
  49   27   48 1
  50   28   29 ar
  51   28   49 1
  52   29   50 1

#	End of record

