#	Name: ASD13010056
#	Creating user name:	WinNT
#	Creation time:	15. 06. 2019 21:30

#	Modifying user name:	WinNT
#	Modification time:	15. 06. 2019 21:30

#	Program:	/corina/corina34_cracker 3.40 0067  02.08.2006

@<TRIPOS>MOLECULE
ASD13010056
  47   51    0    0    0
SMALL
NO_CHARGES


@<TRIPOS>ATOM
   1 N1            -0.0106     1.2923    -0.1359 N.2     
   2 C2             0.0121    -0.0231    -0.1229 C.2     
   3 C3             1.2338    -0.7061    -0.0876 C.2     
   4 C4             2.3926     0.0027    -0.0671 C.2     
   5 N5             2.3357     1.3631    -0.0814 N.pl3   
   6 C6             1.1209     1.9946    -0.1159 C.2     
   7 C7             3.2994     2.3409    -0.0684 C.2     
   8 N8             2.7152     3.5261    -0.0937 N.2     
   9 C9             1.3945     3.3767    -0.1222 C.2     
  10 C10            0.3939     4.4640    -0.1556 C.ar    
  11 C11           -0.7928     4.2988    -0.8774 C.ar    
  12 C12           -1.7210     5.2977    -0.9136 C.ar    
  13 C13           -1.4919     6.4958    -0.2275 C.ar    
  14 C14           -0.3028     6.6693     0.5001 C.ar    
  15 C15            0.6323     5.6514     0.5376 C.ar    
  16 C16           -2.4945     7.5719    -0.2685 C.2     
  17 O17           -2.2944     8.6120     0.3278 O.2     
  18 O18           -3.6349     7.4043    -0.9674 O.3     
  19 C19            4.7433     2.1078    -0.0320 C.2     
  20 C20            5.6786     3.2462    -0.1470 C.ar    
  21 O21            5.1744     0.9756     0.0932 O.2     
  22 C22            6.1755     3.6226    -1.3969 C.ar    
  23 C23            7.0475     4.6860    -1.4972 C.ar    
  24 C24            7.4313     5.3807    -0.3630 C.ar    
  25 C25            6.9441     5.0146     0.8784 C.ar    
  26 C26            6.0658     3.9548     0.9936 C.ar    
  27 Cl27           5.4497     3.5002     2.5516 Cl      
  28 C28            5.7597     2.8679    -2.6333 C.3     
  29 C29            4.9416     3.6249    -3.6814 C.3     
  30 C30            6.4047     3.2748    -3.9597 C.3     
  31 O31           -0.0753     7.8285     1.1672 O.3     
  32 H32           -0.9145    -0.5777    -0.1390 H       
  33 H33            1.2547    -1.7859    -0.0765 H       
  34 H34            3.3451    -0.5055    -0.0395 H       
  35 H35           -0.9749     3.3764    -1.4088 H       
  36 H36           -2.6348     5.1639    -1.4734 H       
  37 H37            1.5466     5.7766     1.0987 H       
  38 H38           -4.2634     8.1392    -0.9648 H       
  39 H39            7.4323     4.9775    -2.4633 H       
  40 H40            8.1149     6.2125    -0.4480 H       
  41 H41            7.2478     5.5610     1.7591 H       
  42 H42            5.5347     1.8116    -2.4858 H       
  43 H43            4.1785     3.0665    -4.2237 H       
  44 H44            4.7040     4.6688    -3.4767 H       
  45 H45            7.1298     4.0884    -3.9380 H       
  46 H46            6.6043     2.4861    -4.6851 H       
  47 H47           -0.3993     7.8281     2.0783 H       
@<TRIPOS>BOND
   1    1    2 2
   2    1    6 1
   3    2    3 1
   4    2   32 1
   5    3    4 2
   6    3   33 1
   7    4    5 1
   8    4   34 1
   9    5    7 1
  10    5    6 1
  11    6    9 2
  12    7    8 2
  13    7   19 1
  14    8    9 1
  15    9   10 1
  16   10   11 ar
  17   10   15 ar
  18   11   12 ar
  19   11   35 1
  20   12   13 ar
  21   12   36 1
  22   13   14 ar
  23   13   16 1
  24   14   15 ar
  25   14   31 1
  26   15   37 1
  27   16   17 2
  28   16   18 1
  29   18   38 1
  30   19   20 1
  31   19   21 2
  32   20   22 ar
  33   20   26 ar
  34   22   23 ar
  35   22   28 1
  36   23   24 ar
  37   23   39 1
  38   24   25 ar
  39   24   40 1
  40   25   26 ar
  41   25   41 1
  42   26   27 1
  43   28   29 1
  44   28   30 1
  45   28   42 1
  46   29   30 1
  47   29   43 1
  48   29   44 1
  49   30   45 1
  50   30   46 1
  51   31   47 1

#	End of record

