#	Name: ASD14640031
#	Creating user name:	WinNT
#	Creation time:	15. 06. 2019 21:31

#	Modifying user name:	WinNT
#	Modification time:	15. 06. 2019 21:31

#	Program:	/corina/corina34_cracker 3.40 0067  02.08.2006

@<TRIPOS>MOLECULE
ASD14640031
  56   59    0    0    0
SMALL
NO_CHARGES


@<TRIPOS>ATOM
   1 C1            -0.0184     1.5028     0.0103 C.2     
   2 C2             0.0021    -0.0041     0.0020 C.3     
   3 C3             1.0497     2.3159     0.0045 C.2     
   4 C4             1.5415    -1.7426     0.6871 C.3     
   5 C5             2.3050    -2.4098    -1.5265 C.3     
   6 C6             3.5589    -3.9202     0.0335 C.ar    
   7 C7             1.5353     4.7828     0.0113 C.3     
   8 C8            -2.5816     2.1097     0.0303 C.ar    
   9 C9            -1.6460     4.7327     0.0447 C.ar    
  10 C10            4.7796    -2.7560    -1.6697 C.ar    
  11 C11            0.4914    -1.4855     3.4615 C.3     
  12 C12           -1.1336     0.1066     2.6324 C.3     
  13 C13            4.7373    -4.5035     0.4767 C.ar    
  14 C14            2.4331    -5.1197     1.7498 C.3     
  15 C15           -3.4599     3.1561     0.0480 C.ar    
  16 C16           -2.9972     4.4651     0.0541 C.ar    
  17 C17            5.9522    -3.3385    -1.2262 C.ar    
  18 C18            5.9309    -4.2115    -0.1540 C.ar    
  19 N19            0.6417     3.6219     0.0146 N.pl3   
  20 C20           -1.2076     2.3580     0.0198 C.ar    
  21 N21            1.9624    -1.2753    -0.6585 N.3     
  22 C22            0.7456    -0.5375     1.2480 C.3     
  23 C23           -0.7337     3.6825     0.0275 C.ar    
  24 C24            0.8118    -0.5210    -1.2015 C.3     
  25 C25            3.5830    -3.0448    -1.0423 C.ar    
  26 N26           -0.2089    -0.9773     2.2744 N.3     
  27 O27            2.3824    -4.2102     0.6488 O.3     
  28 H28           -1.0148    -0.3954    -0.0281 H       
  29 H29            2.0786     1.9878    -0.0062 H       
  30 H30            0.9023    -2.6218     0.6064 H       
  31 H31            2.4089    -1.9553     1.3120 H       
  32 H32            1.5006    -3.1448    -1.4982 H       
  33 H33            2.4392    -2.0573    -2.5492 H       
  34 H34            1.7473     5.0753    -1.0172 H       
  35 H35            1.0566     5.6113     0.5333 H       
  36 H36            2.4670     4.5256     0.5152 H       
  37 H37           -2.9488     1.0941     0.0248 H       
  38 H38           -1.2960     5.7544     0.0504 H       
  39 H39            4.7989    -2.0742    -2.5071 H       
  40 H40            1.1160    -0.6965     3.8803 H       
  41 H41           -0.2388    -1.8043     4.2054 H       
  42 H42            1.1165    -2.3327     3.1796 H       
  43 H43           -1.6897     0.4168     1.7478 H       
  44 H44           -1.8293    -0.2459     3.3938 H       
  45 H45           -0.5678     0.9533     3.0212 H       
  46 H46            4.7212    -5.1851     1.3143 H       
  47 H47            2.8310    -6.0768     1.4125 H       
  48 H48            3.0781    -4.7122     2.5283 H       
  49 H49            1.4289    -5.2639     2.1485 H       
  50 H50           -4.5225     2.9635     0.0555 H       
  51 H51           -3.7039     5.2817     0.0686 H       
  52 H52            6.8866    -3.1115    -1.7180 H       
  53 H53            6.8484    -4.6650     0.1909 H       
  54 H54            1.4214     0.2189     1.6471 H       
  55 H55            0.1919    -1.1778    -1.8116 H       
  56 H56            1.1669     0.3190    -1.7985 H       
@<TRIPOS>BOND
   1    1    2 1
   2    1    3 2
   3    1   20 1
   4    2   22 1
   5    2   28 1
   6    2   24 1
   7    3   29 1
   8    3   19 1
   9    4   22 1
  10    4   30 1
  11    4   31 1
  12    4   21 1
  13    5   21 1
  14    5   32 1
  15    5   33 1
  16    5   25 1
  17    6   25 ar
  18    6   13 ar
  19    6   27 1
  20    7   34 1
  21    7   35 1
  22    7   36 1
  23    7   19 1
  24    8   20 ar
  25    8   37 1
  26    8   15 ar
  27    9   23 ar
  28    9   38 1
  29    9   16 ar
  30   10   39 1
  31   10   17 ar
  32   10   25 ar
  33   11   40 1
  34   11   41 1
  35   11   42 1
  36   11   26 1
  37   12   43 1
  38   12   44 1
  39   12   45 1
  40   12   26 1
  41   13   18 ar
  42   13   46 1
  43   14   27 1
  44   14   47 1
  45   14   48 1
  46   14   49 1
  47   15   16 ar
  48   15   50 1
  49   16   51 1
  50   17   52 1
  51   17   18 ar
  52   18   53 1
  53   19   23 1
  54   20   23 ar
  55   21   24 1
  56   22   26 1
  57   22   54 1
  58   24   55 1
  59   24   56 1

#	End of record

