#	Name: ASD13680042
#	Creating user name:	WinNT
#	Creation time:	15. 06. 2019 21:30

#	Modifying user name:	WinNT
#	Modification time:	15. 06. 2019 21:30

#	Program:	/corina/corina34_cracker 3.40 0067  02.08.2006

@<TRIPOS>MOLECULE
ASD13680042
  60   62    0    0    0
SMALL
NO_CHARGES


@<TRIPOS>ATOM
   1 O1            -0.0161     1.3381     0.0094 O.3     
   2 C2             0.0021    -0.0041     0.0020 C.2     
   3 O3             1.0565    -0.5939    -0.0112 O.2     
   4 C4            -1.2926    -0.7753     0.0102 C.3     
   5 O5            -1.0162    -2.1715    -0.1173 O.3     
   6 C6            -0.9744    -2.6346    -1.4685 C.3     
   7 C7             0.1209    -1.8861    -2.2306 C.3     
   8 C8            -0.6729    -4.1345    -1.4845 C.3     
   9 C9            -2.3266    -2.3791    -2.1373 C.3     
  10 C10           -2.0191    -0.5234     1.3063 C.2     
  11 C11           -3.1378     0.2999     1.3866 C.2     
  12 C12           -3.7102     0.9958     0.2185 C.2     
  13 C13           -3.1968     2.3678    -0.1083 C.3     
  14 C14           -4.6354     0.3765    -0.4779 C.2     
  15 C15           -5.2963     0.9589    -1.6931 C.3     
  16 C16           -5.0695     2.4713    -1.7423 C.3     
  17 C17           -5.8754     3.1483    -0.6318 C.3     
  18 C18           -5.5126     3.0136    -3.1026 C.3     
  19 C19           -3.5719     2.7426    -1.5435 C.3     
  20 C20           -3.6613     0.4054     2.6521 C.2     
  21 S21           -2.7033    -0.5678     3.7600 S.3     
  22 C22           -1.6403    -1.0771     2.4564 C.2     
  23 C23           -0.4650    -2.0064     2.6179 C.3     
  24 C24           -4.8404     1.2086     3.0232 C.ar    
  25 C25           -5.2705     1.2364     4.3527 C.ar    
  26 C26           -6.3780     1.9946     4.6840 C.ar    
  27 C27           -7.0231     2.7024     3.6779 C.ar    
  28 C28           -6.5450     2.6308     2.3829 C.ar    
  29 N29           -5.4841     1.9057     2.0917 N.ar    
  30 H30            0.8394     1.7888     0.0037 H       
  31 H31           -1.9144    -0.4503    -0.8239 H       
  32 H32            1.0843    -2.0681    -1.7542 H       
  33 H33            0.1528    -2.2394    -3.2613 H       
  34 H34           -0.0939    -0.8175    -2.2193 H       
  35 H35           -1.4533    -4.6678    -0.9416 H       
  36 H36           -0.6410    -4.4878    -2.5151 H       
  37 H37            0.2904    -4.3165    -1.0080 H       
  38 H38           -2.5415    -1.3106    -2.1260 H       
  39 H39           -2.2948    -2.7324    -3.1680 H       
  40 H40           -3.1070    -2.9124    -1.5944 H       
  41 H41           -3.6345     3.0908     0.5801 H       
  42 H42           -2.1118     2.3817    -0.0051 H       
  43 H43           -4.9381    -0.6095    -0.1577 H       
  44 H44           -4.8748     0.5010    -2.5880 H       
  45 H45           -6.3667     0.7571    -1.6539 H       
  46 H46           -6.9361     2.9424    -0.7754 H       
  47 H47           -5.5577     2.7601     0.3359 H       
  48 H48           -5.7064     4.2246    -0.6648 H       
  49 H49           -6.5714     2.8014    -3.2510 H       
  50 H50           -5.3499     4.0909    -3.1348 H       
  51 H51           -4.9321     2.5348    -3.8912 H       
  52 H52           -3.3648     3.7994    -1.7121 H       
  53 H53           -2.9950     2.1373    -2.2428 H       
  54 H54            0.4293    -1.4253     2.8432 H       
  55 H55           -0.6613    -2.7021     3.4337 H       
  56 H56           -0.3128    -2.5638     1.6937 H       
  57 H57           -4.7454     0.6735     5.1102 H       
  58 H58           -6.7340     2.0353     5.7028 H       
  59 H59           -7.8912     3.3033     3.9055 H       
  60 H60           -7.0457     3.1802     1.5994 H       
@<TRIPOS>BOND
   1    1    2 1
   2    1   30 1
   3    2    4 1
   4    2    3 2
   5    4   10 1
   6    4    5 1
   7    4   31 1
   8    5    6 1
   9    6    7 1
  10    6    8 1
  11    6    9 1
  12    7   32 1
  13    7   33 1
  14    7   34 1
  15    8   35 1
  16    8   36 1
  17    8   37 1
  18    9   38 1
  19    9   39 1
  20    9   40 1
  21   10   22 2
  22   10   11 1
  23   11   20 2
  24   11   12 1
  25   12   14 2
  26   12   13 1
  27   13   41 1
  28   13   42 1
  29   13   19 1
  30   14   43 1
  31   14   15 1
  32   15   44 1
  33   15   45 1
  34   15   16 1
  35   16   18 1
  36   16   17 1
  37   16   19 1
  38   17   46 1
  39   17   47 1
  40   17   48 1
  41   18   49 1
  42   18   50 1
  43   18   51 1
  44   19   52 1
  45   19   53 1
  46   20   24 1
  47   20   21 1
  48   21   22 1
  49   22   23 1
  50   23   54 1
  51   23   55 1
  52   23   56 1
  53   24   29 ar
  54   24   25 ar
  55   25   26 ar
  56   25   57 1
  57   26   27 ar
  58   26   58 1
  59   27   28 ar
  60   27   59 1
  61   28   60 1
  62   28   29 ar

#	End of record

