#	Name: ASD13760002
#	Creating user name:	WinNT
#	Creation time:	15. 06. 2019 21:30

#	Modifying user name:	WinNT
#	Modification time:	15. 06. 2019 21:30

#	Program:	/corina/corina34_cracker 3.40 0067  02.08.2006

@<TRIPOS>MOLECULE
ASD13760002
  40   42    0    0    0
SMALL
NO_CHARGES


@<TRIPOS>ATOM
   1 C1            -0.0205     1.4428     0.0275 C.3     
   2 N2            -0.0559    -0.0121    -0.0564 N.2     
   3 C3             0.9723    -0.7523     0.2025 C.2     
   4 N4             2.1812    -0.1983     0.5716 N.pl3   
   5 C5             2.4223     1.1277     0.3228 C.2     
   6 C6             1.3925     1.9525     0.0507 C.2     
   7 C7             0.8499    -2.2260     0.1011 C.ar    
   8 C8            -0.3666    -2.7942    -0.2704 C.ar    
   9 C9            -0.4657    -4.1728    -0.3609 C.ar    
  10 C10            0.6563    -4.9369    -0.0764 C.ar    
  11 C11            1.8333    -4.3052     0.2867 C.ar    
  12 N12            1.9014    -2.9929     0.3597 N.ar    
  13 C13           -0.7246     1.8821     1.2854 C.ar    
  14 C14            0.0112     2.2893     2.3827 C.ar    
  15 C15           -0.6332     2.6923     3.5367 C.ar    
  16 C16           -2.0169     2.6886     3.5945 C.ar    
  17 C17           -2.7536     2.2813     2.4958 C.ar    
  18 C18           -2.1070     1.8832     1.3395 C.ar    
  19 C19            1.6450     3.3175    -0.2164 C.2     
  20 O20            2.7719     3.7619    -0.1003 O.2     
  21 O21            0.6364     4.1278    -0.6001 O.3     
  22 C22            0.9636     5.4956    -0.8534 C.3     
  23 C23            3.8317     1.6603     0.3539 C.3     
  24 Cl24          -3.0301     1.3786    -0.0415 Cl      
  25 F25           -2.6473     3.0817     4.7229 F       
  26 H26           -0.5376     1.8629    -0.8352 H       
  27 H27            2.8561    -0.7440     1.0048 H       
  28 H28           -1.2205    -2.1686    -0.4845 H       
  29 H29           -1.3956    -4.6422    -0.6460 H       
  30 H30            0.6120    -6.0143    -0.1373 H       
  31 H31            2.7088    -4.8972     0.5092 H       
  32 H32            1.0902     2.2920     2.3380 H       
  33 H33           -0.0578     3.0100     4.3937 H       
  34 H34           -3.8327     2.2780     2.5399 H       
  35 H35            0.0648     6.0348    -1.1529 H       
  36 H36            1.3721     5.9451     0.0517 H       
  37 H37            1.7033     5.5504    -1.6520 H       
  38 H38            4.5213     0.8497     0.5896 H       
  39 H39            4.0833     2.0797    -0.6202 H       
  40 H40            3.9100     2.4367     1.1150 H       
@<TRIPOS>BOND
   1    1    2 1
   2    1    6 1
   3    1   13 1
   4    1   26 1
   5    2    3 2
   6    3    4 1
   7    3    7 1
   8    4    5 1
   9    4   27 1
  10    5    6 2
  11    5   23 1
  12    6   19 1
  13    7    8 ar
  14    7   12 ar
  15    8    9 ar
  16    8   28 1
  17    9   10 ar
  18    9   29 1
  19   10   11 ar
  20   10   30 1
  21   11   12 ar
  22   11   31 1
  23   13   14 ar
  24   13   18 ar
  25   14   15 ar
  26   14   32 1
  27   15   16 ar
  28   15   33 1
  29   16   17 ar
  30   16   25 1
  31   17   18 ar
  32   17   34 1
  33   18   24 1
  34   19   20 2
  35   19   21 1
  36   21   22 1
  37   22   35 1
  38   22   36 1
  39   22   37 1
  40   23   38 1
  41   23   39 1
  42   23   40 1

#	End of record

