#	Name: ASD11820012
#	Creating user name:	WinNT
#	Creation time:	15. 06. 2019 21:29

#	Modifying user name:	WinNT
#	Modification time:	15. 06. 2019 21:29

#	Program:	/corina/corina34_cracker 3.40 0067  02.08.2006

@<TRIPOS>MOLECULE
ASD11820012
  33   36    0    0    0
SMALL
NO_CHARGES


@<TRIPOS>ATOM
   1 C1            -0.0165     1.3679     0.0096 C.ar    
   2 C2             0.0021    -0.0041     0.0020 C.ar    
   3 C3             1.2090    -0.6913    -0.0127 C.ar    
   4 C4             2.4057    -0.0092    -0.0205 C.ar    
   5 C5             1.1867     2.0761     0.0019 C.ar    
   6 C6             1.5294     3.5003     0.0058 C.2     
   7 C7             2.4101     1.3818    -0.0135 C.ar    
   8 N8             3.4128     2.3260    -0.0177 N.pl3   
   9 C9             2.8693     3.5817    -0.0068 C.2     
  10 C10            0.5614     4.6552     0.0211 C.3     
  11 C11            0.1576     4.9534     1.4420 C.2     
  12 C12            0.8778     5.8045     2.3922 C.ar    
  13 C13           -0.9334     4.4941     2.0751 C.2     
  14 N14           -0.9682     4.9774     3.3547 N.pl3   
  15 C15            0.1260     5.7827     3.5810 C.ar    
  16 C16            2.0549     6.5525     2.3255 C.ar    
  17 C17            0.5674     6.5102     4.6813 C.ar    
  18 C18            1.7313     7.2422     4.5975 C.ar    
  19 C19            2.4718     7.2631     3.4227 C.ar    
  20 Br20           4.0660     8.2764     3.3352 Br      
  21 Br21          -1.6262    -0.9656     0.0124 Br      
  22 H22           -0.9577     1.8976     0.0169 H       
  23 H23            1.2092    -1.7713    -0.0178 H       
  24 H24            3.3386    -0.5532    -0.0316 H       
  25 H25            4.3628     2.1301    -0.0275 H       
  26 H26            3.4345     4.5019    -0.0077 H       
  27 H27            1.0375     5.5342    -0.4134 H       
  28 H28           -0.3228     4.3958    -0.5612 H       
  29 H29           -1.6742     3.8405     1.6389 H       
  30 H30           -1.6615     4.7836     4.0049 H       
  31 H31            2.6347     6.5713     1.4146 H       
  32 H32           -0.0014     6.5014     5.5993 H       
  33 H33            2.0711     7.8059     5.4538 H       
@<TRIPOS>BOND
   1    1    2 ar
   2    1    5 ar
   3    1   22 1
   4    2    3 ar
   5    2   21 1
   6    3    4 ar
   7    3   23 1
   8    4    7 ar
   9    4   24 1
  10    5    7 ar
  11    5    6 1
  12    6    9 2
  13    6   10 1
  14    7    8 1
  15    8    9 1
  16    8   25 1
  17    9   26 1
  18   10   11 1
  19   10   27 1
  20   10   28 1
  21   11   13 2
  22   11   12 1
  23   12   15 ar
  24   12   16 ar
  25   13   14 1
  26   13   29 1
  27   14   15 1
  28   14   30 1
  29   15   17 ar
  30   16   19 ar
  31   16   31 1
  32   17   18 ar
  33   17   32 1
  34   18   19 ar
  35   18   33 1
  36   19   20 1

#	End of record

