#	Name: ASD13680016
#	Creating user name:	WinNT
#	Creation time:	15. 06. 2019 21:30

#	Modifying user name:	WinNT
#	Modification time:	15. 06. 2019 21:30

#	Program:	/corina/corina34_cracker 3.40 0067  02.08.2006

@<TRIPOS>MOLECULE
ASD13680016
  49   52    0    0    0
SMALL
NO_CHARGES


@<TRIPOS>ATOM
   1 C1            -0.0190     1.5124     0.0242 C.3     
   2 C2             0.0025    -0.0020     0.0099 C.2     
   3 C3             0.7558    -0.7678     0.8049 C.2     
   4 C4             1.7298    -0.2380     1.8431 C.3     
   5 C5             1.8877     2.2211     1.4594 C.3     
   6 C6             1.4089     2.0561     0.0198 C.3     
   7 C7             1.2760     1.1320     2.3377 C.3     
   8 C8             0.5454    -2.1871     0.5660 C.2     
   9 C9            -0.3625    -2.4431    -0.4219 C.2     
  10 S10           -0.9725    -0.9921    -1.0681 S.3     
  11 N11           -0.7348    -3.7101    -0.8408 N.am    
  12 C12            1.2405    -3.2400     1.3120 C.2     
  13 O13            0.7541    -3.6825     2.3362 O.2     
  14 N14            2.4182    -3.7181     0.8639 N.am    
  15 C15            3.1313    -4.6401     1.6268 C.ar    
  16 N16            2.6965    -4.9692     2.8329 N.ar    
  17 C17            3.3417    -5.8379     3.5879 C.ar    
  18 C18            4.5021    -6.4386     3.1423 C.ar    
  19 C19            4.9919    -6.1206     1.8825 C.ar    
  20 C20            4.2904    -5.2106     1.1120 C.ar    
  21 C21           -1.6422    -3.8543    -1.8268 C.2     
  22 O22           -2.1340    -2.8726    -2.3485 O.2     
  23 C23           -2.0393    -5.2059    -2.2737 C.ar    
  24 C24           -2.9790    -5.3588    -3.2948 C.ar    
  25 C25           -3.3448    -6.6232    -3.7075 C.ar    
  26 C26           -2.7827    -7.7384    -3.1118 C.ar    
  27 C27           -1.8508    -7.5940    -2.0993 C.ar    
  28 C28           -1.4721    -6.3352    -1.6806 C.ar    
  29 H29           -0.5467     1.8749    -0.8579 H       
  30 H30           -0.5349     1.8583     0.9199 H       
  31 H31            1.7729    -0.9298     2.6843 H       
  32 H32            2.7209    -0.1514     1.3978 H       
  33 H33            2.9745     2.1438     1.4907 H       
  34 H34            1.5845     3.1996     1.8320 H       
  35 H35            2.0626     1.3584    -0.5036 H       
  36 H36            1.4289     3.0227    -0.4836 H       
  37 H37            0.1888     1.1940     2.2886 H       
  38 H38            1.6011     1.2718     3.3687 H       
  39 H39           -0.3423    -4.4934    -0.4245 H       
  40 H40            2.7693    -3.4202     0.0101 H       
  41 H41            2.9572    -6.0819     4.5672 H       
  42 H42            5.0238    -7.1483     3.7673 H       
  43 H43            5.8975    -6.5767     1.5108 H       
  44 H44            4.6405    -4.9436     0.1259 H       
  45 H45           -3.4187    -4.4891    -3.7603 H       
  46 H46           -4.0719    -6.7430    -4.4970 H       
  47 H47           -3.0729    -8.7261    -3.4384 H       
  48 H48           -1.4159    -8.4686    -1.6385 H       
  49 H49           -0.7414    -6.2238    -0.8933 H       
@<TRIPOS>BOND
   1    1    2 1
   2    1    6 1
   3    1   29 1
   4    1   30 1
   5    2   10 1
   6    2    3 2
   7    3    4 1
   8    3    8 1
   9    4    7 1
  10    4   31 1
  11    4   32 1
  12    5    6 1
  13    5    7 1
  14    5   33 1
  15    5   34 1
  16    6   35 1
  17    6   36 1
  18    7   37 1
  19    7   38 1
  20    8    9 2
  21    8   12 1
  22    9   10 1
  23    9   11 1
  24   11   21 am
  25   11   39 1
  26   12   13 2
  27   12   14 am
  28   14   15 1
  29   14   40 1
  30   15   16 ar
  31   15   20 ar
  32   16   17 ar
  33   17   18 ar
  34   17   41 1
  35   18   19 ar
  36   18   42 1
  37   19   20 ar
  38   19   43 1
  39   20   44 1
  40   21   22 2
  41   21   23 1
  42   23   24 ar
  43   23   28 ar
  44   24   25 ar
  45   24   45 1
  46   25   26 ar
  47   25   46 1
  48   26   27 ar
  49   26   47 1
  50   27   28 ar
  51   27   48 1
  52   28   49 1

#	End of record

