#	Name: ASD11730002
#	Creating user name:	WinNT
#	Creation time:	15. 06. 2019 21:29

#	Modifying user name:	WinNT
#	Modification time:	15. 06. 2019 21:29

#	Program:	/corina/corina34_cracker 3.40 0067  02.08.2006

@<TRIPOS>MOLECULE
ASD11730002
  39   40    0    0    0
SMALL
NO_CHARGES


@<TRIPOS>ATOM
   1 C1             0.4644     1.7618    -0.3239 C.3     
   2 C2             0.2471     0.2534    -0.2583 C.3     
   3 C3             1.7805     0.0462    -0.1979 C.3     
   4 C4             1.9742     1.5589    -0.1755 C.3     
   5 C5            -0.3156    -0.3806    -1.5089 C.3     
   6 C6             0.0699     2.3668    -1.6727 C.3     
   7 C7            -0.1594     2.5096     0.8562 C.3     
   8 C8             2.2085    -0.6651     1.0519 C.2     
   9 C9            -0.6660    -1.8333    -1.3327 C.3     
  10 C10            2.2160    -2.1646     1.1284 C.3     
  11 C11            0.3782    -2.7925    -1.7784 C.2     
  12 C12            0.9121    -2.7728     0.5925 C.3     
  13 C13            2.5818     0.0344     2.0947 C.2     
  14 C14            1.1814    -3.2988    -0.8137 C.2     
  15 C15            0.5345    -3.1803    -3.2262 C.3     
  16 H16           -0.2668    -0.0683     0.6475 H       
  17 H17            2.1833    -0.4221    -1.0960 H       
  18 H18            2.5414     1.9299    -1.0292 H       
  19 H19            2.3637     1.9261     0.7740 H       
  20 H20           -1.2135     0.1627    -1.8031 H       
  21 H21            0.4209    -0.2927    -2.3076 H       
  22 H22           -0.9868     2.1769    -1.8609 H       
  23 H23            0.2483     3.4419    -1.6547 H       
  24 H24            0.6672     1.9125    -2.4632 H       
  25 H25            0.2819     2.1526     1.7868 H       
  26 H26            0.0303     3.5778     0.7505 H       
  27 H27           -1.2345     2.3313     0.8720 H       
  28 H28           -0.8681    -2.0120    -0.2766 H       
  29 H29           -1.5796    -2.0362    -1.8917 H       
  30 H30            3.0522    -2.5455     0.5421 H       
  31 H31            2.3470    -2.4660     2.1677 H       
  32 H32            0.5950    -3.5919     1.2379 H       
  33 H33            0.1359    -2.0083     0.5579 H       
  34 H34            2.4865     1.1101     2.0856 H       
  35 H35            2.9848    -0.4647     2.9635 H       
  36 H36            1.9555    -4.0219    -1.0242 H       
  37 H37            1.2287    -2.4952    -3.7129 H       
  38 H38            0.9224    -4.1969    -3.2903 H       
  39 H39           -0.4345    -3.1291    -3.7227 H       
@<TRIPOS>BOND
   1    1    2 1
   2    1    4 1
   3    1    6 1
   4    1    7 1
   5    2    3 1
   6    2    5 1
   7    2   16 1
   8    3    4 1
   9    3    8 1
  10    3   17 1
  11    4   18 1
  12    4   19 1
  13    5    9 1
  14    5   20 1
  15    5   21 1
  16    6   22 1
  17    6   23 1
  18    6   24 1
  19    7   25 1
  20    7   26 1
  21    7   27 1
  22    8   10 1
  23    8   13 2
  24    9   11 1
  25    9   28 1
  26    9   29 1
  27   10   12 1
  28   10   30 1
  29   10   31 1
  30   11   14 2
  31   11   15 1
  32   12   14 1
  33   12   32 1
  34   12   33 1
  35   13   34 1
  36   13   35 1
  37   14   36 1
  38   15   37 1
  39   15   38 1
  40   15   39 1

#	End of record

