#	Name: ASD15350003
#	Creating user name:	WinNT
#	Creation time:	15. 06. 2019 21:31

#	Modifying user name:	WinNT
#	Modification time:	15. 06. 2019 21:31

#	Program:	/corina/corina34_cracker 3.40 0067  02.08.2006

@<TRIPOS>MOLECULE
ASD15350003
  76   81    0    0    0
SMALL
NO_CHARGES


@<TRIPOS>ATOM
   1 C1            -0.0167     1.3781     0.0096 C.ar    
   2 C2             0.0021    -0.0041     0.0020 C.ar    
   3 C3             1.2084    -0.6789    -0.0132 C.ar    
   4 C4             2.3960     0.0285    -0.0212 C.ar    
   5 C5             2.3773     1.4107    -0.0145 C.ar    
   6 C6             1.1710     2.0855     0.0021 C.ar    
   7 C7            11.7127    -2.2522     3.8028 C.3     
   8 C8            11.2876    -1.7377     5.1796 C.3     
   9 C9            11.0061    -0.2360     5.0983 C.3     
  10 C10            9.8840     0.0187     4.0898 C.3     
  11 C11           10.3091    -0.4958     2.7131 C.3     
  12 C12           10.5906    -1.9975     2.7944 C.3     
  13 C13            9.6498    -0.6246     0.3864 C.3     
  14 N14            9.2317    -0.2513     1.7449 N.3     
  15 C15            8.7904     1.1497     1.7907 C.3     
  16 C16            7.6171     1.3440     0.8273 C.3     
  17 N17            8.0352     0.9707    -0.5312 N.3     
  18 C18            8.4765    -0.4303    -0.5770 C.3     
  19 C19            3.6720     2.1819    -0.0228 C.3     
  20 C20            4.0969     2.4497    -1.4680 C.3     
  21 N21            5.3555     3.1994    -1.4761 N.pl3   
  22 C22            6.5964     2.6782    -1.4899 C.2     
  23 N23            7.4294     3.6901    -1.4928 N.2     
  24 N24            6.7363     4.7762    -1.4813 N.2     
  25 N25            5.4827     4.4833    -1.4768 N.2     
  26 C26            6.9578     1.2152    -1.4994 C.3     
  27 C27            7.4223     0.8215    -2.8779 C.2     
  28 C28            8.6065     1.3782    -3.4065 C.2     
  29 N29            9.0536     1.0523    -4.6318 N.am    
  30 C30            8.3660     0.1545    -5.4230 C.ar    
  31 C31            7.1794    -0.4292    -4.9412 C.ar    
  32 C32            6.7040    -0.0707    -3.6036 C.2     
  33 C33            8.8306    -0.1806    -6.6907 C.ar    
  34 C34            8.1299    -1.0784    -7.4651 C.ar    
  35 C35            6.9550    -1.6585    -6.9921 C.ar    
  36 C36            6.4765    -1.3398    -5.7373 C.ar    
  37 O37            9.2396     2.1749    -2.7355 O.2     
  38 O38            6.2763    -2.5429    -7.7703 O.3     
  39 C39            6.8258    -2.8287    -9.0581 C.3     
  40 H40           -0.9592     1.9054     0.0170 H       
  41 H41           -0.9258    -0.5567     0.0083 H       
  42 H42            1.2231    -1.7588    -0.0184 H       
  43 H43            3.3386    -0.4987    -0.0324 H       
  44 H44            1.1563     3.1654     0.0069 H       
  45 H45           12.6144    -1.7303     3.4824 H       
  46 H46           11.9132    -3.3220     3.8607 H       
  47 H47           10.3858    -2.2595     5.4999 H       
  48 H48           12.0870    -1.9191     5.8980 H       
  49 H49           10.7032     0.1305     6.0791 H       
  50 H50           11.9078     0.2859     4.7779 H       
  51 H51            8.9822    -0.5032     4.4102 H       
  52 H52            9.6834     1.0885     4.0319 H       
  53 H53           11.2108     0.0261     2.3927 H       
  54 H54           10.8934    -2.3640     1.8135 H       
  55 H55            9.6888    -2.5193     3.1147 H       
  56 H56           10.4832     0.0058     0.0762 H       
  57 H57            9.9600    -1.6694     0.3756 H       
  58 H58            8.4742     1.3984     2.8037 H       
  59 H59            9.6141     1.8002     1.4965 H       
  60 H60            6.7837     0.7136     1.1374 H       
  61 H61            7.3069     2.3889     0.8381 H       
  62 H62            8.7927    -0.6790    -1.5901 H       
  63 H63            7.6528    -1.0808    -0.2828 H       
  64 H64            3.5335     3.1300     0.4968 H       
  65 H65            4.4443     1.6008     0.4812 H       
  66 H66            4.2354     1.5016    -1.9876 H       
  67 H67            3.3246     3.0308    -1.9720 H       
  68 H68            6.0838     0.6233    -1.2276 H       
  69 H69            9.8711     1.4543    -4.9648 H       
  70 H70            5.7972    -0.5023    -3.2063 H       
  71 H71            9.7401     0.2633    -7.0676 H       
  72 H72            8.4946    -1.3350    -8.4487 H       
  73 H73            5.5655    -1.7905    -5.3724 H       
  74 H74            6.1884    -3.5469    -9.5739 H       
  75 H75            6.8829    -1.9094    -9.6410 H       
  76 H76            7.8252    -3.2479    -8.9418 H       
@<TRIPOS>BOND
   1    1    2 ar
   2    1    6 ar
   3    1   40 1
   4    2    3 ar
   5    2   41 1
   6    3    4 ar
   7    3   42 1
   8    4    5 ar
   9    4   43 1
  10    5    6 ar
  11    5   19 1
  12    6   44 1
  13    7    8 1
  14    7   12 1
  15    7   45 1
  16    7   46 1
  17    8    9 1
  18    8   47 1
  19    8   48 1
  20    9   10 1
  21    9   49 1
  22    9   50 1
  23   10   11 1
  24   10   51 1
  25   10   52 1
  26   11   12 1
  27   11   14 1
  28   11   53 1
  29   12   54 1
  30   12   55 1
  31   13   14 1
  32   13   18 1
  33   13   56 1
  34   13   57 1
  35   14   15 1
  36   15   16 1
  37   15   58 1
  38   15   59 1
  39   16   17 1
  40   16   60 1
  41   16   61 1
  42   17   18 1
  43   17   26 1
  44   18   62 1
  45   18   63 1
  46   19   20 1
  47   19   64 1
  48   19   65 1
  49   20   21 1
  50   20   66 1
  51   20   67 1
  52   21   22 1
  53   21   25 1
  54   22   23 2
  55   22   26 1
  56   23   24 1
  57   24   25 2
  58   26   27 1
  59   26   68 1
  60   27   28 1
  61   27   32 2
  62   28   29 am
  63   28   37 2
  64   29   30 1
  65   29   69 1
  66   30   31 ar
  67   30   33 ar
  68   31   32 1
  69   31   36 ar
  70   32   70 1
  71   33   34 ar
  72   33   71 1
  73   34   35 ar
  74   34   72 1
  75   35   38 1
  76   35   36 ar
  77   36   73 1
  78   38   39 1
  79   39   74 1
  80   39   75 1
  81   39   76 1

#	End of record

