#	Name: ASD10220025
#	Creating user name:	WinNT
#	Creation time:	15. 06. 2019 21:26

#	Modifying user name:	WinNT
#	Modification time:	15. 06. 2019 21:26

#	Program:	/corina/corina34_cracker 3.40 0067  02.08.2006

@<TRIPOS>MOLECULE
ASD10220025
  34   37    0    0    0
SMALL
NO_CHARGES


@<TRIPOS>ATOM
   1 C1            -0.0808     1.2338    -0.0845 C.2     
   2 C2            -0.0275     0.1350    -0.9742 C.2     
   3 C3            -1.1283    -0.2963    -1.6291 C.2     
   4 C4            -2.4323     0.3428    -1.4595 C.2     
   5 C5            -2.5670     1.4258    -0.6051 C.2     
   6 C6            -1.3962     1.9246     0.1336 C.2     
   7 O7            -3.6410     0.0907    -1.9972 O.3     
   8 C8            -4.5624     0.9443    -1.5464 C.2     
   9 C9            -3.9788     1.8183    -0.6678 C.2     
  10 O10           -1.4885     2.8707     0.8871 O.2     
  11 O11            0.9185     1.6086     0.4963 O.2     
  12 C12           -4.6316     2.9203     0.0606 C.2     
  13 O13           -3.9645     3.6868     0.7290 O.2     
  14 C14           -6.0952     3.0939    -0.0209 C.ar    
  15 C15           -6.6579     4.3674     0.1050 C.ar    
  16 C16           -8.0235     4.5253     0.0284 C.ar    
  17 C17           -8.8430     3.4199    -0.1734 C.ar    
  18 C18           -8.2870     2.1512    -0.2987 C.ar    
  19 C19           -6.9218     1.9861    -0.2300 C.ar    
  20 N20          -10.2295     3.5843    -0.2501 N.pl3   
  21 Br21           1.6204    -0.7495    -1.2534 Br      
  22 Br22          -0.9770    -1.7718    -2.8020 Br      
  23 C23          -11.1586     2.5943    -0.4447 C.2     
  24 C24          -12.3663     3.1892    -0.4519 C.2     
  25 N25          -12.1864     4.5057    -0.2674 N.2     
  26 C26          -10.9118     4.7547    -0.1401 C.2     
  27 H27           -5.6045     0.9459    -1.8299 H       
  28 H28           -6.0222     5.2262     0.2624 H       
  29 H29           -8.4589     5.5089     0.1256 H       
  30 H30           -8.9266     1.2951    -0.4550 H       
  31 H31           -6.4907     1.0006    -0.3273 H       
  32 H32          -10.9596     1.5401    -0.5687 H       
  33 H33          -13.3161     2.6923    -0.5839 H       
  34 H34          -10.4723     5.7282     0.0192 H       
@<TRIPOS>BOND
   1    1    2 1
   2    1   11 2
   3    1    6 1
   4    2    3 2
   5    2   21 1
   6    3    4 1
   7    3   22 1
   8    4    5 2
   9    4    7 1
  10    5    6 1
  11    5    9 1
  12    6   10 2
  13    7    8 1
  14    8    9 2
  15    8   27 1
  16    9   12 1
  17   12   13 2
  18   12   14 1
  19   14   15 ar
  20   14   19 ar
  21   15   16 ar
  22   15   28 1
  23   16   17 ar
  24   16   29 1
  25   17   18 ar
  26   17   20 1
  27   18   19 ar
  28   18   30 1
  29   19   31 1
  30   20   23 1
  31   20   26 1
  32   23   24 2
  33   23   32 1
  34   24   25 1
  35   24   33 1
  36   25   26 2
  37   26   34 1

#	End of record

