#	Name: ASD16510002
#	Creating user name:	WinNT
#	Creation time:	15. 06. 2019 21:31

#	Modifying user name:	WinNT
#	Modification time:	15. 06. 2019 21:31

#	Program:	/corina/corina34_cracker 3.40 0067  02.08.2006

@<TRIPOS>MOLECULE
ASD16510002
  35   37    0    0    0
SMALL
NO_CHARGES


@<TRIPOS>ATOM
   1 N1            -0.0059     1.3077     0.3138 N.ar    
   2 C2            -0.1159     4.1362     0.0709 C.2     
   3 N3             2.0871     4.2642    -0.2517 N.2     
   4 C4             1.2422    -0.6660     0.3167 C.ar    
   5 C5             0.0307    -0.0116     0.4289 C.ar    
   6 C6             4.7850     0.2590    -0.1476 C.ar    
   7 C7             6.0064     2.2537     0.3820 C.ar    
   8 C8             2.3901     0.0946     0.0844 C.ar    
   9 N9             3.6279    -0.5183    -0.0354 N.pl3   
  10 C10            2.4293     6.7332    -0.5246 C.3     
  11 N11            1.0166     3.3902    -0.0213 N.pl3   
  12 Cl12           8.5041     2.7705    -0.5242 Cl      
  13 C13            1.6178     5.4841    -0.2960 C.2     
  14 C14            0.2332     5.4320    -0.0958 C.2     
  15 N15            2.2782     1.4152    -0.0197 N.ar    
  16 C16            1.0985     2.0026     0.0936 C.ar    
  17 C17            5.8545    -0.1915    -0.9108 C.ar    
  18 C18            6.9938     0.5807    -1.0246 C.ar    
  19 C19            7.0705     1.8024    -0.3790 C.ar    
  20 C20            4.8647     1.4855     0.4992 C.ar    
  21 C21           -1.5090     3.6133     0.3094 C.3     
  22 H22            1.3002    -1.7407     0.4068 H       
  23 H23           -0.8765    -0.5693     0.6089 H       
  24 H24            6.0689     3.2075     0.8848 H       
  25 H25            3.6913    -1.4862    -0.0413 H       
  26 H26            2.4817     6.9420    -1.5932 H       
  27 H27            1.9570     7.5719    -0.0132 H       
  28 H28            3.4362     6.5891    -0.1328 H       
  29 H29           -0.4381     6.2779    -0.0774 H       
  30 H30            5.7953    -1.1450    -1.4145 H       
  31 H31            7.8258     0.2307    -1.6176 H       
  32 H32            4.0345     1.8384     1.0930 H       
  33 H33           -1.7043     3.5752     1.3811 H       
  34 H34           -2.2320     4.2744    -0.1684 H       
  35 H35           -1.5984     2.6120    -0.1120 H       
@<TRIPOS>BOND
   1    1    5 ar
   2    1   16 ar
   3    2   11 1
   4    2   14 2
   5    2   21 1
   6    3   11 1
   7    3   13 2
   8    4   22 1
   9    4    5 ar
  10    4    8 ar
  11    5   23 1
  12    6   20 ar
  13    6   17 ar
  14    6    9 1
  15    7   19 ar
  16    7   24 1
  17    7   20 ar
  18    8    9 1
  19    8   15 ar
  20    9   25 1
  21   10   13 1
  22   10   26 1
  23   10   27 1
  24   10   28 1
  25   11   16 1
  26   12   19 1
  27   13   14 1
  28   14   29 1
  29   15   16 ar
  30   17   18 ar
  31   17   30 1
  32   18   19 ar
  33   18   31 1
  34   20   32 1
  35   21   33 1
  36   21   34 1
  37   21   35 1

#	End of record

