#	Name: ASD10160114
#	Creating user name:	WinNT
#	Creation time:	15. 06. 2019 21:25

#	Modifying user name:	WinNT
#	Modification time:	15. 06. 2019 21:25

#	Program:	/corina/corina34_cracker 3.40 0067  02.08.2006

@<TRIPOS>MOLECULE
ASD10160114
  42   43    0    0    0
SMALL
NO_CHARGES


@<TRIPOS>ATOM
   1 C1             0.0748     1.4376     0.6506 C.ar    
   2 C2             0.4076     1.0338    -0.6451 C.ar    
   3 C3             0.9323     1.1404     1.7132 C.ar    
   4 C4             2.1013     0.4512     1.4801 C.ar    
   5 C5             2.4292     0.0516     0.1895 C.ar    
   6 C6             1.5784     0.3450    -0.8702 C.ar    
   7 C7            -1.1763     2.1815     0.8954 C.2     
   8 N8            -1.4956     2.5702     2.1457 N.am    
   9 O9            -1.9188     2.4438    -0.0311 O.2     
  10 S10           -2.8993     3.4048     2.4203 S.o2    
  11 O11           -2.8868     3.6614     3.8179 O.2     
  12 O12           -2.8638     4.4693     1.4797 O.2     
  13 O13            3.5822    -0.6270    -0.0364 O.3     
  14 C14            3.5545    -1.9830     0.0608 C.ar    
  15 C15            2.3510    -2.6497     0.2762 C.ar    
  16 C16            4.7222    -2.7186    -0.0590 C.ar    
  17 N17            4.7036    -4.0350     0.0338 N.ar    
  18 C18            3.5814    -4.7011     0.2432 C.ar    
  19 C19            2.3700    -4.0308     0.3685 C.ar    
  20 Cl20           0.9009    -4.9138     0.6435 Cl      
  21 O21            3.6112    -6.0557     0.3314 O.3     
  22 C22            4.8851    -6.6872     0.1886 C.3     
  23 C23            4.9071    -7.9813     1.0045 C.3     
  24 C24            5.1319    -7.0099    -1.2865 C.3     
  25 F25            5.1117    -5.8266    -2.0325 F       
  26 F26            6.3790    -7.6282    -1.4263 F       
  27 F27            4.1304    -7.8701    -1.7494 F       
  28 F28            3.9057    -8.8415     0.5415 F       
  29 F29            6.1543    -8.5995     0.8646 F       
  30 F30            4.6815    -7.6862     2.3532 F       
  31 C31           -4.2149     2.2284     2.0009 C.3     
  32 H32           -0.2527     1.2614    -1.4688 H       
  33 H33            0.6786     1.4511     2.7160 H       
  34 H34            2.7645     0.2211     2.3008 H       
  35 H35            1.8365     0.0329    -1.8714 H       
  36 H36           -0.9033     2.3610     2.8848 H       
  37 H37            1.4247    -2.1022     0.3693 H       
  38 H38            5.6587    -2.2089    -0.2306 H       
  39 H39            5.6654    -6.0169     0.5493 H       
  40 H40           -4.1329     1.3488     2.6395 H       
  41 H41           -5.1859     2.6993     2.1541 H       
  42 H42           -4.1164     1.9300     0.9572 H       
@<TRIPOS>BOND
   1    1    2 ar
   2    1    3 ar
   3    1    7 1
   4    2    6 ar
   5    2   32 1
   6    3    4 ar
   7    3   33 1
   8    4    5 ar
   9    4   34 1
  10    5    6 ar
  11    5   13 1
  12    6   35 1
  13    7    8 am
  14    7    9 2
  15    8   10 am
  16    8   36 1
  17   10   11 2
  18   10   12 2
  19   10   31 1
  20   13   14 1
  21   14   15 ar
  22   14   16 ar
  23   15   19 ar
  24   15   37 1
  25   16   17 ar
  26   16   38 1
  27   17   18 ar
  28   18   19 ar
  29   18   21 1
  30   19   20 1
  31   21   22 1
  32   22   23 1
  33   22   24 1
  34   22   39 1
  35   23   28 1
  36   23   29 1
  37   23   30 1
  38   24   25 1
  39   24   26 1
  40   24   27 1
  41   31   40 1
  42   31   41 1
  43   31   42 1

#	End of record

