#	Name: ASD11910002
#	Creating user name:	WinNT
#	Creation time:	15. 06. 2019 21:29

#	Modifying user name:	WinNT
#	Modification time:	15. 06. 2019 21:29

#	Program:	/corina/corina34_cracker 3.40 0067  02.08.2006

@<TRIPOS>MOLECULE
ASD11910002
  28   29    0    0    0
SMALL
NO_CHARGES


@<TRIPOS>ATOM
   1 C1            -0.0167     1.3837     0.0096 C.ar    
   2 C2             0.0021    -0.0041     0.0020 C.ar    
   3 C3             1.2305    -0.6866    -0.0134 C.ar    
   4 C4             2.4219     0.0428    -0.0208 C.ar    
   5 C5             2.3841     1.4086    -0.0131 C.ar    
   6 C6             1.1718     2.0829     0.0021 C.ar    
   7 N7            -0.9754    -0.9790     0.0061 N.pl3   
   8 C8            -0.3448    -2.1843    -0.0064 C.2     
   9 N9             0.9451    -2.0142    -0.0178 N.2     
  10 C10           -1.0391    -3.5219    -0.0065 C.3     
  11 C11           -0.5514    -4.3495    -1.1973 C.3     
  12 C12           -1.2563    -5.7075    -1.1974 C.3     
  13 O13           -0.8008    -6.4805    -2.3096 O.3     
  14 C14            1.1536     3.5898     0.0098 C.3     
  15 F15            2.4668     4.0721    -0.0005 F       
  16 F16            0.4774     4.0538    -1.1236 F       
  17 F17            0.4996     4.0423     1.1608 F       
  18 H18           -0.9578     1.9135     0.0170 H       
  19 H19            3.3713    -0.4720    -0.0323 H       
  20 H20            3.3074     1.9690    -0.0186 H       
  21 H21           -1.9341    -0.8319     0.0163 H       
  22 H22           -0.8118    -4.0493     0.9200 H       
  23 H23           -2.1159    -3.3723    -0.0846 H       
  24 H24           -0.7786    -3.8221    -2.1237 H       
  25 H25            0.5255    -4.4991    -1.1191 H       
  26 H26           -1.0290    -6.2349    -0.2709 H       
  27 H27           -2.3331    -5.5579    -1.2756 H       
  28 H28           -1.2066    -7.3560    -2.3727 H       
@<TRIPOS>BOND
   1    1    2 ar
   2    1    6 ar
   3    1   18 1
   4    2    3 ar
   5    2    7 1
   6    3    4 ar
   7    3    9 1
   8    4    5 ar
   9    4   19 1
  10    5    6 ar
  11    5   20 1
  12    6   14 1
  13    7    8 1
  14    7   21 1
  15    8    9 2
  16    8   10 1
  17   10   11 1
  18   10   22 1
  19   10   23 1
  20   11   12 1
  21   11   24 1
  22   11   25 1
  23   12   13 1
  24   12   26 1
  25   12   27 1
  26   13   28 1
  27   14   15 1
  28   14   16 1
  29   14   17 1

#	End of record

