#	Name: ASD10160327
#	Creating user name:	WinNT
#	Creation time:	15. 06. 2019 21:25

#	Modifying user name:	WinNT
#	Modification time:	15. 06. 2019 21:25

#	Program:	/corina/corina34_cracker 3.40 0067  02.08.2006

@<TRIPOS>MOLECULE
ASD10160327
  22   22    0    0    0
SMALL
NO_CHARGES


@<TRIPOS>ATOM
   1 C1            -0.0167     1.3813     0.0096 C.ar    
   2 C2             0.0021    -0.0041     0.0020 C.ar    
   3 C3             1.2263    -0.6660    -0.0132 C.ar    
   4 C4             2.3849     0.0910    -0.0202 C.ar    
   5 C5             2.2884     1.4761    -0.0118 C.ar    
   6 N6             1.1079     2.0714     0.0026 N.ar    
   7 O7            -1.1613    -0.7084     0.0098 O.3     
   8 O8             3.4190     2.2276    -0.0181 O.3     
   9 C9             3.2545     3.6471    -0.0089 C.3     
  10 C10            4.4432     4.2937     0.7050 C.3     
  11 C11            3.1825     4.1615    -1.4481 C.3     
  12 H12           -0.9627     1.9023     0.0169 H       
  13 H13            1.2712    -1.7451    -0.0191 H       
  14 H14            3.3520    -0.3896    -0.0316 H       
  15 H15           -1.5065    -0.9073    -0.8713 H       
  16 H16            2.3333     3.9027     0.5147 H       
  17 H17            5.3644     4.0381     0.1813 H       
  18 H18            4.3177     5.3764     0.7120 H       
  19 H19            4.4944     3.9273     1.7302 H       
  20 H20            2.3357     3.7008    -1.9567 H       
  21 H21            3.0570     5.2442    -1.4411 H       
  22 H22            4.1037     3.9059    -1.9717 H       
@<TRIPOS>BOND
   1    1    2 ar
   2    1    6 ar
   3    1   12 1
   4    2    3 ar
   5    2    7 1
   6    3    4 ar
   7    3   13 1
   8    4    5 ar
   9    4   14 1
  10    5    6 ar
  11    5    8 1
  12    7   15 1
  13    8    9 1
  14    9   10 1
  15    9   11 1
  16    9   16 1
  17   10   17 1
  18   10   18 1
  19   10   19 1
  20   11   20 1
  21   11   21 1
  22   11   22 1

#	End of record

