#	Name: ASD10420014
#	Creating user name:	WinNT
#	Creation time:	15. 06. 2019 21:27

#	Modifying user name:	WinNT
#	Modification time:	15. 06. 2019 21:27

#	Program:	/corina/corina34_cracker 3.40 0067  02.08.2006

@<TRIPOS>MOLECULE
ASD10420014
  55   59    0    0    0
SMALL
NO_CHARGES


@<TRIPOS>ATOM
   1 C1            -0.1196     1.4120     0.3117 C.2     
   2 N2             0.1033     0.0997    -0.0078 N.pl3   
   3 C3            -1.1103    -0.5119    -0.2309 C.2     
   4 C4            -2.1077     0.3961    -0.0573 C.2     
   5 C5            -1.5116     1.6269     0.2931 C.2     
   6 C6             0.9606     2.2622     0.5881 C.2     
   7 C7             2.2309     1.7680     0.5351 C.2     
   8 C8             2.4333     0.4199     0.2054 C.2     
   9 C9             1.3799    -0.3836    -0.0577 C.2     
  10 C10           -2.2050     2.8844     0.5746 C.2     
  11 N11           -2.4579     3.7528    -0.4246 N.am    
  12 C12           -3.1535     5.0222    -0.1635 C.3     
  13 C13           -2.3304     6.1624    -0.7724 C.3     
  14 N14           -2.0744     5.8745    -2.1899 N.3     
  15 C15           -1.2664     4.6581    -2.3491 C.3     
  16 C16           -2.0404     3.4590    -1.8039 C.3     
  17 O17           -2.5534     3.1463     1.7116 O.2     
  18 C18           -3.5842     0.1343    -0.2072 C.3     
  19 C19           -3.9736     0.2689    -1.6568 C.ar    
  20 C20           -3.8095    -0.7994    -2.5186 C.ar    
  21 C21           -4.5002     1.4588    -2.1234 C.ar    
  22 C22           -4.8574     1.5822    -3.4531 C.ar    
  23 C23           -4.6876     0.5159    -4.3163 C.ar    
  24 C24           -4.1667    -0.6760    -3.8483 C.ar    
  25 C25           -1.2987    -1.9299    -0.6008 C.ar    
  26 C26           -0.6432    -2.4570    -1.7153 C.ar    
  27 C27           -0.8237    -3.7817    -2.0550 C.ar    
  28 C28           -1.6521    -4.5877    -1.2942 C.ar    
  29 C29           -2.3047    -4.0717    -0.1885 C.ar    
  30 C30           -2.1287    -2.7503     0.1659 C.ar    
  31 H31            0.7886     3.2982     0.8402 H       
  32 H32            3.0739     2.4096     0.7449 H       
  33 H33            3.4365     0.0222     0.1616 H       
  34 H34            1.5489    -1.4199    -0.3104 H       
  35 H35           -4.1421     4.9990    -0.6219 H       
  36 H36           -3.2488     5.1731     0.9118 H       
  37 H37           -2.8840     7.0973    -0.6853 H       
  38 H38           -1.3822     6.2500    -0.2420 H       
  39 H39           -2.9383     5.8049    -2.7065 H       
  40 H40           -1.0483     4.5020    -3.4056 H       
  41 H41           -0.3330     4.7666    -1.7968 H       
  42 H42           -1.4020     2.5755    -1.8146 H       
  43 H43           -2.9237     3.2834    -2.4180 H       
  44 H44           -3.8112    -0.8744     0.1379 H       
  45 H45           -4.1435     0.8563     0.3878 H       
  46 H46           -3.4019    -1.7304    -2.1531 H       
  47 H47           -4.6328     2.2919    -1.4491 H       
  48 H48           -5.2694     2.5116    -3.8175 H       
  49 H49           -4.9670     0.6122    -5.3550 H       
  50 H50           -4.0340    -1.5091    -4.5226 H       
  51 H51            0.0034    -1.8289    -2.3101 H       
  52 H52           -0.3175    -4.1906    -2.9170 H       
  53 H53           -1.7901    -5.6241    -1.5648 H       
  54 H54           -2.9502    -4.7062     0.4008 H       
  55 H55           -2.6384    -2.3489     1.0293 H       
@<TRIPOS>BOND
   1    1    2 1
   2    1    6 1
   3    1    5 2
   4    2    3 1
   5    2    9 1
   6    3    4 2
   7    3   25 1
   8    4    5 1
   9    4   18 1
  10    5   10 1
  11    6    7 2
  12    6   31 1
  13    7    8 1
  14    7   32 1
  15    8    9 2
  16    8   33 1
  17    9   34 1
  18   10   11 am
  19   10   17 2
  20   11   12 1
  21   11   16 1
  22   12   13 1
  23   12   35 1
  24   12   36 1
  25   13   14 1
  26   13   37 1
  27   13   38 1
  28   14   15 1
  29   14   39 1
  30   15   16 1
  31   15   40 1
  32   15   41 1
  33   16   42 1
  34   16   43 1
  35   18   19 1
  36   18   44 1
  37   18   45 1
  38   19   20 ar
  39   19   21 ar
  40   20   24 ar
  41   20   46 1
  42   21   22 ar
  43   21   47 1
  44   22   23 ar
  45   22   48 1
  46   23   24 ar
  47   23   49 1
  48   24   50 1
  49   25   26 ar
  50   25   30 ar
  51   26   27 ar
  52   26   51 1
  53   27   28 ar
  54   27   52 1
  55   28   29 ar
  56   28   53 1
  57   29   30 ar
  58   29   54 1
  59   30   55 1

#	End of record

