#	Name: ASD11720004
#	Creating user name:	WinNT
#	Creation time:	15. 06. 2019 21:29

#	Modifying user name:	WinNT
#	Modification time:	15. 06. 2019 21:29

#	Program:	/corina/corina34_cracker 3.40 0067  02.08.2006

@<TRIPOS>MOLECULE
ASD11720004
  11   10    0    0    0
SMALL
NO_CHARGES


@<TRIPOS>ATOM
   1 O1             0.0021    -0.0041     0.0020 O.co2   
   2 C2            -0.0145     1.2150     0.0087 C.2     
   3 O3             1.0330     1.8389     0.0021 O.co2   
   4 C4            -1.3296     1.9507     0.0190 C.3     
   5 C5            -2.4617     0.9559     0.0189 C.2     
   6 C6            -3.8764     1.4346     0.0282 C.2     
   7 O7            -2.2249    -0.2283     0.0114 O.2     
   8 O8            -4.7932     0.6290     0.0282 O.co2   
   9 O9            -4.1157     2.6313     0.0359 O.co2   
  10 H10           -1.3917     2.5717     0.9126 H       
  11 H11           -1.4001     2.5813    -0.8673 H       
@<TRIPOS>BOND
   1    1    2 ar
   2    2    3 ar
   3    2    4 1
   4    4    5 1
   5    4   10 1
   6    4   11 1
   7    5    6 1
   8    5    7 2
   9    6    8 ar
  10    6    9 ar

#	End of record

