#	Name: ASD10410234
#	Creating user name:	WinNT
#	Creation time:	15. 06. 2019 21:27

#	Modifying user name:	WinNT
#	Modification time:	15. 06. 2019 21:27

#	Program:	/corina/corina34_cracker 3.40 0067  02.08.2006

@<TRIPOS>MOLECULE
ASD10410234
  53   57    0    0    0
SMALL
NO_CHARGES


@<TRIPOS>ATOM
   1 C1            -0.0183     1.3924    -0.0814 C.ar    
   2 C2            -0.0057     0.0095     0.0247 C.ar    
   3 C3             1.2007    -0.6690     0.1161 C.ar    
   4 C4             2.3904     0.0319     0.1011 C.ar    
   5 C5             2.3788     1.4166    -0.0056 C.ar    
   6 C6             1.1705     2.0951    -0.0966 C.ar    
   7 O7            -1.1769    -0.6816     0.0396 O.3     
   8 N8             3.5842     2.1280    -0.0204 N.pl3   
   9 C9             3.6713     3.3385    -0.7080 C.2     
  10 N10            4.7094     4.1400    -0.7102 N.2     
  11 N11            2.7112     3.8663    -1.4764 N.2     
  12 C12            3.1225     5.0129    -1.9742 C.2     
  13 N13            4.3790     5.2363    -1.5231 N.pl3   
  14 C14            5.1866     6.3389    -1.8091 C.ar    
  15 N15            2.4004     5.8409    -2.8127 N.pl3   
  16 C16            6.4737     6.4205    -1.2586 C.ar    
  17 C17           -1.0897    -2.1036     0.1511 C.3     
  18 C18           -2.4976    -2.7025     0.1512 C.3     
  19 N19           -3.1360    -2.4530    -1.1481 N.3     
  20 C20           -4.3927    -3.2138    -1.2741 C.3     
  21 C21           -5.5158    -2.1963    -1.5654 C.3     
  22 C22           -4.7455    -0.9834    -2.1506 C.3     
  23 C23           -3.4360    -1.0160    -1.3238 C.3     
  24 N24            4.7350     7.2942    -2.6001 N.ar    
  25 C25            5.4631     8.3577    -2.9005 C.ar    
  26 C26            6.7202     8.5218    -2.4072 C.ar    
  27 C27            7.2685     7.5318    -1.5563 C.ar    
  28 C28            8.5616     7.4637    -0.9061 C.2     
  29 C29            8.7554     6.3850    -0.1682 C.2     
  30 S30            7.3530     5.3326    -0.1951 S.3     
  31 H31           -0.9579     1.9196    -0.1567 H       
  32 H32            1.2095    -1.7458     0.1994 H       
  33 H33            3.3296    -0.4964     0.1727 H       
  34 H34            1.1605     3.1718    -0.1799 H       
  35 H35            4.3591     1.7791     0.4475 H       
  36 H36            1.5029     5.5927    -3.0843 H       
  37 H37            2.7911     6.6703    -3.1295 H       
  38 H38           -0.5261    -2.5004    -0.6933 H       
  39 H39           -0.5836    -2.3648     1.0805 H       
  40 H40           -2.4355    -3.7767     0.3252 H       
  41 H41           -3.0891    -2.2400     0.9414 H       
  42 H42           -4.3145    -3.9252    -2.0962 H       
  43 H43           -4.6020    -3.7408    -0.3433 H       
  44 H44           -6.2180    -2.5963    -2.2968 H       
  45 H45           -6.0317    -1.9182    -0.6463 H       
  46 H46           -4.5410    -1.1259    -3.2117 H       
  47 H47           -5.2915    -0.0554    -1.9809 H       
  48 H48           -3.5865    -0.5386    -0.3555 H       
  49 H49           -2.6305    -0.5241    -1.8692 H       
  50 H50            5.0497     9.1127    -3.5527 H       
  51 H51            7.2966     9.3979    -2.6657 H       
  52 H52            9.3095     8.2351    -1.0163 H       
  53 H53            9.6613     6.1786     0.3824 H       
@<TRIPOS>BOND
   1    1    2 ar
   2    1    6 ar
   3    1   31 1
   4    2    3 ar
   5    2    7 1
   6    3    4 ar
   7    3   32 1
   8    4    5 ar
   9    4   33 1
  10    5    6 ar
  11    5    8 1
  12    6   34 1
  13    7   17 1
  14    8    9 1
  15    8   35 1
  16    9   10 2
  17    9   11 1
  18   10   13 1
  19   11   12 2
  20   12   13 1
  21   12   15 1
  22   13   14 1
  23   14   16 ar
  24   14   24 ar
  25   15   36 1
  26   15   37 1
  27   16   27 ar
  28   16   30 1
  29   17   18 1
  30   17   38 1
  31   17   39 1
  32   18   19 1
  33   18   40 1
  34   18   41 1
  35   19   20 1
  36   19   23 1
  37   20   21 1
  38   20   42 1
  39   20   43 1
  40   21   22 1
  41   21   44 1
  42   21   45 1
  43   22   23 1
  44   22   46 1
  45   22   47 1
  46   23   48 1
  47   23   49 1
  48   24   25 ar
  49   25   26 ar
  50   25   50 1
  51   26   27 ar
  52   26   51 1
  53   27   28 1
  54   28   29 2
  55   28   52 1
  56   29   30 1
  57   29   53 1

#	End of record

