#	Name: ASD11550006
#	Creating user name:	WinNT
#	Creation time:	15. 06. 2019 21:29

#	Modifying user name:	WinNT
#	Modification time:	15. 06. 2019 21:29

#	Program:	/corina/corina34_cracker 3.40 0067  02.08.2006

@<TRIPOS>MOLECULE
ASD11550006
  29   28    0    0    0
SMALL
NO_CHARGES


@<TRIPOS>ATOM
   1 O1             0.0021    -0.0041     0.0020 O.2     
   2 C2            -0.0143     1.2034     0.0087 C.2     
   3 C3             1.2804     1.9746     0.0004 C.3     
   4 O4             2.3790     1.0609    -0.0150 O.3     
   5 C5             1.3614     2.8485     1.2537 C.3     
   6 O6             1.1913     2.0331     2.4148 O.3     
   7 C7             2.7273     3.5357     1.3088 C.3     
   8 O8             3.7596     2.5505     1.2334 O.3     
   9 C9             2.8561     4.3099     2.6221 C.3     
  10 O10            1.8238     5.2952     2.6975 O.3     
  11 C11            4.2220     4.9971     2.6772 C.3     
  12 P12            5.7144     6.4415     4.3585 P.3     
  13 O13            6.9029     5.5788     4.1749 O.2     
  14 O14            4.3891     5.6232     3.9508 O.3     
  15 O15            5.6127     6.8941     5.9002 O.3     
  16 O16            5.8485     7.7457     3.4240 O.3     
  17 H17           -0.9568     1.7306     0.0160 H       
  18 H18            1.3211     2.6067    -0.8866 H       
  19 H19            2.4062     0.4657     0.7467 H       
  20 H20            0.5759     3.6035     1.2216 H       
  21 H21            1.8569     1.3379     2.5082 H       
  22 H22            2.8212     4.2252     0.4698 H       
  23 H23            3.7374     1.9019     1.9503 H       
  24 H24            2.7622     3.6204     3.4611 H       
  25 H25            1.8460     5.9437     1.9806 H       
  26 H26            5.0077     4.2560     2.5307 H       
  27 H27            4.2817     5.7502     1.8915 H       
  28 H28            6.3789     7.3931     6.2150 H       
  29 H29            5.1028     8.3575     3.4932 H       
@<TRIPOS>BOND
   1    1    2 2
   2    2    3 1
   3    2   17 1
   4    3    4 1
   5    3    5 1
   6    3   18 1
   7    4   19 1
   8    5    6 1
   9    5    7 1
  10    5   20 1
  11    6   21 1
  12    7    8 1
  13    7    9 1
  14    7   22 1
  15    8   23 1
  16    9   10 1
  17    9   11 1
  18    9   24 1
  19   10   25 1
  20   11   14 1
  21   11   26 1
  22   11   27 1
  23   12   13 2
  24   12   14 1
  25   12   15 1
  26   12   16 1
  27   15   28 1
  28   16   29 1

#	End of record

