#	Name: ASD10160243
#	Creating user name:	WinNT
#	Creation time:	15. 06. 2019 21:25

#	Modifying user name:	WinNT
#	Modification time:	15. 06. 2019 21:25

#	Program:	/corina/corina34_cracker 3.40 0067  02.08.2006

@<TRIPOS>MOLECULE
ASD10160243
  46   48    0    0    0
SMALL
NO_CHARGES


@<TRIPOS>ATOM
   1 C1            -2.2236    -2.5990     4.8627 C.2     
   2 C2            -1.6234    -3.0030     3.5780 C.ar    
   3 C3            -0.2990    -3.4540     3.5327 C.ar    
   4 C4             0.2584    -3.8311     2.3275 C.ar    
   5 C5            -0.4928    -3.7635     1.1618 C.ar    
   6 C6            -1.8107    -3.3155     1.2025 C.ar    
   7 C7            -2.3774    -2.9424     2.4019 C.ar    
   8 O8            -1.5678    -2.6572     5.8851 O.2     
   9 N9            -3.4972    -2.1599     4.9031 N.am    
  10 O10            0.0593    -4.1349    -0.0213 O.3     
  11 C11            3.7748    -5.7176     0.0329 C.ar    
  12 N12            2.7299    -6.5194     0.1719 N.ar    
  13 C13            1.4987    -6.0359     0.1591 C.ar    
  14 C14            1.3104    -4.6678    -0.0027 C.ar    
  15 C15            2.4312    -3.8573    -0.1456 C.ar    
  16 N16            3.6327    -4.4102    -0.1232 N.ar    
  17 N17            5.0503    -6.2601     0.0573 N.3     
  18 C18            6.0694    -5.2164    -0.1116 C.3     
  19 C19            7.4613    -5.8274     0.0654 C.3     
  20 C20            7.6624    -6.9359    -0.9716 C.3     
  21 C21            6.5600    -7.9854    -0.8056 C.3     
  22 C22            5.1942    -7.3119    -0.9573 C.3     
  23 S23           -4.1712    -1.7061     6.3460 S.o2    
  24 O24           -5.5008    -1.3340     6.0100 O.2     
  25 O25           -3.9140    -2.8021     7.2130 O.2     
  26 C26           -3.2131    -0.2526     6.8559 C.3     
  27 F27           -2.5368    -3.2519     0.0650 F       
  28 F28            0.4326    -3.5195     4.6666 F       
  29 H29            1.2802    -4.1788     2.2912 H       
  30 H30           -3.4009    -2.5993     2.4329 H       
  31 H31           -4.0190    -2.1097     4.0869 H       
  32 H32            0.6508    -6.6952     0.2725 H       
  33 H33            2.3221    -2.7904    -0.2733 H       
  34 H34            5.9861    -4.7855    -1.1093 H       
  35 H35            5.9176    -4.4365     0.6345 H       
  36 H36            8.2181    -5.0556    -0.0755 H       
  37 H37            7.5501    -6.2463     1.0677 H       
  38 H38            7.6124    -6.5104    -1.9739 H       
  39 H39            8.6357    -7.4030    -0.8214 H       
  40 H40            6.6728    -8.7555    -1.5688 H       
  41 H41            6.6346    -8.4383     0.1830 H       
  42 H42            4.4067    -8.0539    -0.8255 H       
  43 H43            5.1150    -6.8712    -1.9511 H       
  44 H44           -3.3061     0.5273     6.1002 H       
  45 H45           -3.5930     0.1172     7.8083 H       
  46 H46           -2.1644    -0.5289     6.9657 H       
@<TRIPOS>BOND
   1    1    2 1
   2    1    8 2
   3    1    9 am
   4    2    3 ar
   5    2    7 ar
   6    3    4 ar
   7    3   28 1
   8    4    5 ar
   9    4   29 1
  10    5    6 ar
  11    5   10 1
  12    6    7 ar
  13    6   27 1
  14    7   30 1
  15    9   23 am
  16    9   31 1
  17   10   14 1
  18   11   12 ar
  19   11   16 ar
  20   11   17 1
  21   12   13 ar
  22   13   14 ar
  23   13   32 1
  24   14   15 ar
  25   15   16 ar
  26   15   33 1
  27   17   18 1
  28   17   22 1
  29   18   19 1
  30   18   34 1
  31   18   35 1
  32   19   20 1
  33   19   36 1
  34   19   37 1
  35   20   21 1
  36   20   38 1
  37   20   39 1
  38   21   22 1
  39   21   40 1
  40   21   41 1
  41   22   42 1
  42   22   43 1
  43   23   24 2
  44   23   25 2
  45   23   26 1
  46   26   44 1
  47   26   45 1
  48   26   46 1

#	End of record

