#	Name: ASD13010017
#	Creating user name:	WinNT
#	Creation time:	15. 06. 2019 21:30

#	Modifying user name:	WinNT
#	Modification time:	15. 06. 2019 21:30

#	Program:	/corina/corina34_cracker 3.40 0067  02.08.2006

@<TRIPOS>MOLECULE
ASD13010017
  49   52    0    0    0
SMALL
NO_CHARGES


@<TRIPOS>ATOM
   1 C1             0.3489     1.3998    -0.4953 C.ar    
   2 C2             0.2748     0.0552    -0.2866 C.ar    
   3 C3             1.4078    -0.7563    -0.4459 C.ar    
   4 C4             2.6232    -0.1927    -0.8202 C.ar    
   5 C5             1.5570     1.9854    -0.8714 C.ar    
   6 N6             1.9354     3.2746    -1.1465 N.pl3   
   7 C7             2.7032     1.1812    -1.0349 C.ar    
   8 C8             3.7878     2.0867    -1.4266 C.2     
   9 N9             3.2933     3.2962    -1.4793 N.2     
  10 C10            1.0983     4.3881    -1.1015 C.ar    
  11 S11            5.4551     1.6284    -1.7652 S.3     
  12 C12            6.2148     3.1662    -2.1683 C.ar    
  13 C13            6.2299     3.6125    -3.4860 C.ar    
  14 C14            6.7956     3.9391    -1.1702 C.ar    
  15 C15            7.3908     5.1452    -1.4904 C.ar    
  16 C16            7.4087     5.5833    -2.8016 C.ar    
  17 C17            6.8272     4.8197    -3.7979 C.ar    
  18 C18           -0.5665     6.6019    -1.0115 C.ar    
  19 C19           -1.0669     5.3654    -1.4312 C.ar    
  20 C20           -0.2376     4.2680    -1.4740 C.ar    
  21 C21            1.5985     5.6163    -0.6787 C.ar    
  22 C22            0.7745     6.7177    -0.6326 C.ar    
  23 C23           -1.4520     7.7799    -0.9644 C.2     
  24 O24           -2.6180     7.6768    -1.2904 O.2     
  25 O25           -0.9682     8.9707    -0.5597 O.3     
  26 C26            1.3102    -2.2113    -0.2154 C.2     
  27 O27            0.3513    -2.8302    -0.6346 O.2     
  28 N28            2.2841    -2.8534     0.4596 N.am    
  29 C29            2.1453    -4.2793     0.7660 C.3     
  30 C30            3.4814    -2.1255     0.8871 C.3     
  31 F31            5.6622     2.8671    -4.4593 F       
  32 Cl32           6.7732     3.3913     0.4769 Cl      
  33 H33           -0.5318     2.0130    -0.3733 H       
  34 H34           -0.6652    -0.3898     0.0045 H       
  35 H35            3.4973    -0.8149    -0.9429 H       
  36 H36            7.8423     5.7462    -0.7149 H       
  37 H37            7.8742     6.5261    -3.0481 H       
  38 H38            6.8395     5.1672    -4.8204 H       
  39 H39           -2.1022     5.2725    -1.7242 H       
  40 H40           -0.6236     3.3125    -1.7974 H       
  41 H41            2.6343     5.7050    -0.3861 H       
  42 H42            1.1642     7.6712    -0.3079 H       
  43 H43           -1.5867     9.7139    -0.5454 H       
  44 H44            2.5711    -4.8685    -0.0462 H       
  45 H45            2.6720    -4.5047     1.6933 H       
  46 H46            1.0895    -4.5256     0.8787 H       
  47 H47            3.3622    -1.0658     0.6617 H       
  48 H48            3.6217    -2.2552     1.9602 H       
  49 H49            4.3512    -2.5140     0.3574 H       
@<TRIPOS>BOND
   1    1    2 ar
   2    1    5 ar
   3    1   33 1
   4    2    3 ar
   5    2   34 1
   6    3    4 ar
   7    3   26 1
   8    4    7 ar
   9    4   35 1
  10    5    7 ar
  11    5    6 1
  12    6    9 1
  13    6   10 1
  14    7    8 1
  15    8    9 2
  16    8   11 1
  17   10   21 ar
  18   10   20 ar
  19   11   12 1
  20   12   14 ar
  21   12   13 ar
  22   13   17 ar
  23   13   31 1
  24   14   15 ar
  25   14   32 1
  26   15   16 ar
  27   15   36 1
  28   16   17 ar
  29   16   37 1
  30   17   38 1
  31   18   19 ar
  32   18   22 ar
  33   18   23 1
  34   19   20 ar
  35   19   39 1
  36   20   40 1
  37   21   22 ar
  38   21   41 1
  39   22   42 1
  40   23   24 2
  41   23   25 1
  42   25   43 1
  43   26   27 2
  44   26   28 am
  45   28   29 1
  46   28   30 1
  47   29   44 1
  48   29   45 1
  49   29   46 1
  50   30   47 1
  51   30   48 1
  52   30   49 1

#	End of record

