#	Name: ASD10410127
#	Creating user name:	WinNT
#	Creation time:	15. 06. 2019 21:26

#	Modifying user name:	WinNT
#	Modification time:	15. 06. 2019 21:26

#	Program:	/corina/corina34_cracker 3.40 0067  02.08.2006

@<TRIPOS>MOLECULE
ASD10410127
  74   81    0    0    0
SMALL
NO_CHARGES


@<TRIPOS>ATOM
   1 C1            -0.0184     1.3942    -0.0798 C.ar    
   2 C2            -0.0058     0.0095     0.0248 C.ar    
   3 C3             1.2025    -0.6691     0.1141 C.ar    
   4 C4             2.3914     0.0329     0.0995 C.ar    
   5 C5             2.3788     1.4177    -0.0051 C.ar    
   6 C6             1.1705     2.0963    -0.0949 C.ar    
   7 N7             3.5845     2.1297    -0.0195 N.pl3   
   8 C8             3.6713     3.3402    -0.7065 C.2     
   9 N9             4.7097     4.1410    -0.7073 N.2     
  10 N10            2.7102     3.8668    -1.4745 N.2     
  11 C11            3.1188     5.0142    -1.9724 C.2     
  12 N12            4.3809     5.2389    -1.5188 N.pl3   
  13 C13            5.1872     6.3388    -1.8030 C.ar    
  14 N14            2.3957     5.8414    -2.8099 N.pl3   
  15 N15           -1.2110    -0.7021     0.0406 N.3     
  16 C16           -0.9681    -2.1468     0.1568 C.3     
  17 C17           -2.3078    -2.8807     0.2507 C.3     
  18 N18           -3.1131    -2.5793    -0.9411 N.3     
  19 C19           -3.3560    -1.1346    -1.0574 C.3     
  20 C20           -2.0162    -0.4006    -1.1512 C.3     
  21 N21            4.7476     7.3114    -2.5916 N.ar    
  22 C22            5.5071     8.3570    -2.8644 C.ar    
  23 N23            6.7168     8.4946    -2.3825 N.ar    
  24 C24            7.2557     7.5577    -1.5689 C.ar    
  25 C25            6.4747     6.4392    -1.2556 C.ar    
  26 C26           -4.3779    -3.3261    -0.9245 C.3     
  27 C27           -5.2752    -2.9023    -2.1273 C.3     
  28 C28           -4.1165    -4.8337    -1.1442 C.3     
  29 C29           -4.8804    -5.1789    -2.4589 C.3     
  30 C30           -6.6491    -3.5853    -1.8490 C.3     
  31 C31           -6.3876    -5.0929    -2.0687 C.3     
  32 C32           -4.7097    -3.8367    -3.2544 C.3     
  33 C33            8.5159     7.5223    -0.9596 C.2     
  34 C34            8.7605     6.4482    -0.2012 C.2     
  35 S35            7.3765     5.3680    -0.1937 S.3     
  36 C36           10.0212     6.2057     0.5326 C.ar    
  37 C37           10.1747     5.0490     1.2980 C.ar    
  38 C38           11.3532     4.8279     1.9800 C.ar    
  39 C39           12.3825     5.7513     1.9065 C.ar    
  40 C40           12.2357     6.9011     1.1489 C.ar    
  41 C41           11.0642     7.1299     0.4576 C.ar    
  42 Cl42          13.8626     5.4665     2.7679 Cl      
  43 H43           -0.9579     1.9217    -0.1538 H       
  44 H44            1.2123    -1.7460     0.1955 H       
  45 H45            3.3311    -0.4948     0.1697 H       
  46 H46            1.1607     3.1732    -0.1765 H       
  47 H47            4.3594     1.7810     0.4484 H       
  48 H48            1.4985     5.5921    -3.0815 H       
  49 H49            2.7853     6.6715    -3.1264 H       
  50 H50           -0.4229    -2.4956    -0.7202 H       
  51 H51           -0.3808    -2.3458     1.0533 H       
  52 H52           -2.1309    -3.9547     0.3078 H       
  53 H53           -2.8410    -2.5517     1.1426 H       
  54 H54           -3.9432    -0.9356    -1.9538 H       
  55 H55           -3.9011    -0.7857    -0.1803 H       
  56 H56           -2.1932     0.6734    -1.2084 H       
  57 H57           -1.4830    -0.7297    -2.0431 H       
  58 H58            5.1151     9.1285    -3.5106 H       
  59 H59           -4.9024    -3.1628     0.0169 H       
  60 H60           -5.3091    -1.8345    -2.3435 H       
  61 H61           -3.0494    -5.0208    -1.2645 H       
  62 H62           -4.5132    -5.4136    -0.3108 H       
  63 H63           -4.5704    -6.0937    -2.9640 H       
  64 H64           -6.9645    -3.4000    -0.8223 H       
  65 H65           -7.4018    -3.2241    -2.5498 H       
  66 H66           -7.0118    -5.4730    -2.8774 H       
  67 H67           -6.5745    -5.6488    -1.1499 H       
  68 H68           -5.3265    -3.8127    -4.1529 H       
  69 H69           -3.6641    -3.6230    -3.4762 H       
  70 H70            9.2424     8.3101    -1.0936 H       
  71 H71            9.3723     4.3285     1.3567 H       
  72 H72           11.4732     3.9331     2.5727 H       
  73 H73           13.0418     7.6179     1.0955 H       
  74 H74           10.9508     8.0270    -0.1330 H       
@<TRIPOS>BOND
   1    1    2 ar
   2    1    6 ar
   3    1   43 1
   4    2    3 ar
   5    2   15 1
   6    3    4 ar
   7    3   44 1
   8    4    5 ar
   9    4   45 1
  10    5    6 ar
  11    5    7 1
  12    6   46 1
  13    7    8 1
  14    7   47 1
  15    8    9 2
  16    8   10 1
  17    9   12 1
  18   10   11 2
  19   11   12 1
  20   11   14 1
  21   12   13 1
  22   13   21 ar
  23   13   25 ar
  24   14   48 1
  25   14   49 1
  26   15   16 1
  27   15   20 1
  28   16   17 1
  29   16   50 1
  30   16   51 1
  31   17   18 1
  32   17   52 1
  33   17   53 1
  34   18   19 1
  35   18   26 1
  36   19   20 1
  37   19   54 1
  38   19   55 1
  39   20   56 1
  40   20   57 1
  41   21   22 ar
  42   22   23 ar
  43   22   58 1
  44   23   24 ar
  45   24   25 ar
  46   24   33 1
  47   25   35 1
  48   26   27 1
  49   26   28 1
  50   26   59 1
  51   27   30 1
  52   27   32 1
  53   27   60 1
  54   28   29 1
  55   28   61 1
  56   28   62 1
  57   29   31 1
  58   29   32 1
  59   29   63 1
  60   30   31 1
  61   30   64 1
  62   30   65 1
  63   31   66 1
  64   31   67 1
  65   32   68 1
  66   32   69 1
  67   33   34 2
  68   33   70 1
  69   34   35 1
  70   34   36 1
  71   36   37 ar
  72   36   41 ar
  73   37   38 ar
  74   37   71 1
  75   38   39 ar
  76   38   72 1
  77   39   40 ar
  78   39   42 1
  79   40   41 ar
  80   40   73 1
  81   41   74 1

#	End of record

