#	Name: ASD13110028
#	Creating user name:	WinNT
#	Creation time:	15. 06. 2019 21:30

#	Modifying user name:	WinNT
#	Modification time:	15. 06. 2019 21:30

#	Program:	/corina/corina34_cracker 3.40 0067  02.08.2006

@<TRIPOS>MOLECULE
ASD13110028
  33   34    0    0    0
SMALL
NO_CHARGES


@<TRIPOS>ATOM
   1 C1            -0.0225     1.8097     0.0120 C.3     
   2 S2             0.0021    -0.0041     0.0020 S.o2    
   3 N3             0.7524    -0.4703     1.2063 N.am    
   4 O4            -1.2812    -0.6142     0.0110 O.2     
   5 C5             0.8599    -0.5388    -1.4412 C.ar    
   6 C6             0.1634    -0.7530    -2.6170 C.ar    
   7 C7             0.8302    -1.1714    -3.7506 C.ar    
   8 C8             2.2079    -1.3780    -3.7091 C.ar    
   9 C9             2.9044    -1.1606    -2.5218 C.ar    
  10 C10            2.2281    -0.7372    -1.3957 C.ar    
  11 C11            2.9300    -1.8281    -4.9241 C.ar    
  12 C12            2.4621    -2.9194    -5.6518 C.ar    
  13 C13            3.1374    -3.3342    -6.7821 C.ar    
  14 C14            4.2785    -2.6698    -7.1951 C.ar    
  15 C15            4.7515    -1.5855    -6.4801 C.ar    
  16 C16            4.0804    -1.1550    -5.3472 C.ar    
  17 O17            4.5410    -0.0860    -4.6469 O.3     
  18 C18            5.7215     0.5518    -5.1386 C.3     
  19 F19            5.4043     1.3118    -6.2695 F       
  20 H20            1.0001     2.1870     0.0043 H       
  21 H21           -0.5497     2.1708    -0.8711 H       
  22 H22           -0.5327     2.1613     0.9088 H       
  23 H23            0.4211    -0.2636     2.0942 H       
  24 H24           -0.9042    -0.5929    -2.6479 H       
  25 H25            0.2854    -1.3387    -4.6680 H       
  26 H26            3.9720    -1.3191    -2.4840 H       
  27 H27            2.7675    -0.5645    -0.4761 H       
  28 H28            1.5720    -3.4409    -5.3320 H       
  29 H29            2.7739    -4.1806    -7.3459 H       
  30 H30            4.8023    -3.0002    -8.0799 H       
  31 H31            5.6428    -1.0709    -6.8074 H       
  32 H32            6.1311     1.2029    -4.3664 H       
  33 H33            6.4594    -0.2051    -5.4047 H       
@<TRIPOS>BOND
   1    1    2 1
   2    1   20 1
   3    1   21 1
   4    1   22 1
   5    2    3 2
   6    2    4 2
   7    2    5 1
   8    3   23 1
   9    5   10 ar
  10    5    6 ar
  11    6    7 ar
  12    6   24 1
  13    7    8 ar
  14    7   25 1
  15    8    9 ar
  16    8   11 1
  17    9   10 ar
  18    9   26 1
  19   10   27 1
  20   11   16 ar
  21   11   12 ar
  22   12   13 ar
  23   12   28 1
  24   13   14 ar
  25   13   29 1
  26   14   15 ar
  27   14   30 1
  28   15   16 ar
  29   15   31 1
  30   16   17 1
  31   17   18 1
  32   18   19 1
  33   18   32 1
  34   18   33 1

#	End of record

