#	Name: ASD13750003
#	Creating user name:	WinNT
#	Creation time:	15. 06. 2019 21:30

#	Modifying user name:	WinNT
#	Modification time:	15. 06. 2019 21:30

#	Program:	/corina/corina34_cracker 3.40 0067  02.08.2006

@<TRIPOS>MOLECULE
ASD13750003
  28   30    0    0    0
SMALL
NO_CHARGES


@<TRIPOS>ATOM
   1 C1            -0.0164     1.3565     0.0095 C.ar    
   2 C2             0.0021    -0.0041     0.0020 C.ar    
   3 C3             1.2040    -0.7052    -0.0127 C.ar    
   4 C4             2.4015    -0.0186    -0.0205 C.ar    
   5 C5             2.3983     1.3698    -0.0134 C.ar    
   6 C6             1.1893     2.0880     0.0019 C.ar    
   7 S7             3.6884     2.5742    -0.0194 S.3     
   8 N8             2.6819     3.9352    -0.0031 N.am    
   9 C9             1.4132     3.5272     0.0075 C.2     
  10 C10            3.1101     5.2653     0.0003 C.ar    
  11 C11            3.4122     5.9025    -1.1969 C.ar    
  12 C12            3.8354     7.2180    -1.1896 C.ar    
  13 C13            3.9588     7.9000     0.0088 C.ar    
  14 C14            3.6588     7.2679     1.2012 C.ar    
  15 C15            3.2294     5.9552     1.2003 C.ar    
  16 O16            0.4864     4.3189     0.0202 O.2     
  17 C17            3.2788     5.1600    -2.5014 C.3     
  18 F18            1.1988    -2.0561    -0.0191 F       
  19 Cl19           4.2132     8.0158    -2.6845 Cl      
  20 H20           -0.9611     1.8799     0.0168 H       
  21 H21           -0.9307    -0.5483     0.0080 H       
  22 H22            3.3365    -0.5589    -0.0316 H       
  23 H23            4.2904     8.9278     0.0122 H       
  24 H24            3.7565     7.8027     2.1344 H       
  25 H25            2.9910     5.4638     2.1320 H       
  26 H26            2.2713     5.2948    -2.8949 H       
  27 H27            4.0034     5.5492    -3.2167 H       
  28 H28            3.4653     4.0988    -2.3362 H       
@<TRIPOS>BOND
   1    1    2 ar
   2    1    6 ar
   3    1   20 1
   4    2    3 ar
   5    2   21 1
   6    3    4 ar
   7    3   18 1
   8    4    5 ar
   9    4   22 1
  10    5    7 1
  11    5    6 ar
  12    6    9 1
  13    7    8 1
  14    8    9 am
  15    8   10 1
  16    9   16 2
  17   10   11 ar
  18   10   15 ar
  19   11   12 ar
  20   11   17 1
  21   12   13 ar
  22   12   19 1
  23   13   14 ar
  24   13   23 1
  25   14   15 ar
  26   14   24 1
  27   15   25 1
  28   17   26 1
  29   17   27 1
  30   17   28 1

#	End of record

