#	Name: ASD10950008
#	Creating user name:	WinNT
#	Creation time:	15. 06. 2019 21:28

#	Modifying user name:	WinNT
#	Modification time:	15. 06. 2019 21:28

#	Program:	/corina/corina34_cracker 3.40 0067  02.08.2006

@<TRIPOS>MOLECULE
ASD10950008
  63   67    0    0    0
SMALL
NO_CHARGES


@<TRIPOS>ATOM
   1 C1             0.7293     1.3617    -2.2133 C.3     
   2 O2             0.6275    -0.0363    -1.8345 O.3     
   3 C3             1.1481    -0.3864    -0.6424 C.2     
   4 O4             1.6728     0.4533     0.0613 O.2     
   5 C5             1.0810    -1.7914    -0.1910 C.ar    
   6 C6             1.6197    -2.1577     1.0441 C.ar    
   7 C7             1.5536    -3.4714     1.4594 C.ar    
   8 C8             0.9553    -4.4253     0.6553 C.ar    
   9 C9             0.4195    -4.0692    -0.5698 C.ar    
  10 C10            0.4736    -2.7580    -0.9949 C.ar    
  11 C11            0.8873    -5.8587     1.1155 C.3     
  12 N12           -0.4714    -6.3829     0.9344 N.am    
  13 C13           -1.6871    -5.8635     1.5658 C.3     
  14 C14           -2.3068    -4.7881     0.6712 C.3     
  15 C15           -3.5573    -4.2538     1.3206 C.2     
  16 C16           -4.8145    -4.6649     1.0912 C.2     
  17 N17           -5.6876    -3.9494     1.8645 N.pl3   
  18 C18           -4.9961    -3.0374     2.6297 C.ar    
  19 C19           -3.6311    -3.1917     2.3268 C.ar    
  20 C20           -2.6815    -2.3886     2.9616 C.ar    
  21 C21           -3.0838    -1.4557     3.8751 C.ar    
  22 C22           -4.4297    -1.2998     4.1779 C.ar    
  23 C23           -5.3829    -2.0837     3.5659 C.ar    
  24 C24           -0.4033    -7.4245     0.0856 C.2     
  25 O25           -1.3524    -8.0887    -0.2808 O.2     
  26 C26            0.9970    -7.6412    -0.3358 C.2     
  27 C27            1.7889    -6.7212     0.2634 C.2     
  28 C28            3.2409    -6.5873     0.1140 C.2     
  29 O29            3.7149    -6.2658    -0.9594 O.2     
  30 C30            4.1296    -6.8429     1.2678 C.ar    
  31 C31            3.5932    -7.2642     2.4863 C.ar    
  32 C32            4.4281    -7.5008     3.5587 C.ar    
  33 C33            5.7939    -7.3216     3.4289 C.ar    
  34 C34            6.3322    -6.9037     2.2242 C.ar    
  35 C35            5.5098    -6.6695     1.1422 C.ar    
  36 C36            7.8210    -6.7107     2.0925 C.3     
  37 O37            1.4200    -8.6057    -1.1848 O.3     
  38 H38            1.7793     1.6510    -2.2560 H       
  39 H39            0.2723     1.5070    -3.1922 H       
  40 H40            0.2127     1.9764    -1.4762 H       
  41 H41            2.0873    -1.4142     1.6725 H       
  42 H42            1.9702    -3.7562     2.4143 H       
  43 H43           -0.0458    -4.8188    -1.1927 H       
  44 H44            0.0550    -2.4814    -1.9512 H       
  45 H45            1.1799    -5.9298     2.1631 H       
  46 H46           -2.4002    -6.6761     1.7043 H       
  47 H47           -1.4369    -5.4306     2.5343 H       
  48 H48           -1.5937    -3.9755     0.5326 H       
  49 H49           -2.5570    -5.2210    -0.2974 H       
  50 H50           -5.0951    -5.4445     0.3985 H       
  51 H51           -6.6504    -4.0671     1.8721 H       
  52 H52           -1.6327    -2.5047     2.7316 H       
  53 H53           -2.3489    -0.8348     4.3658 H       
  54 H54           -4.7322    -0.5583     4.9024 H       
  55 H55           -6.4274    -1.9548     3.8082 H       
  56 H56            2.5273    -7.4041     2.5890 H       
  57 H57            4.0146    -7.8264     4.5018 H       
  58 H58            6.4430    -7.5083     4.2717 H       
  59 H59            5.9310    -6.3435     0.2027 H       
  60 H60            8.2808    -7.6436     1.7662 H       
  61 H61            8.0227    -5.9301     1.3590 H       
  62 H62            8.2362    -6.4190     3.0572 H       
  63 H63            0.7125    -9.1749    -1.5172 H       
@<TRIPOS>BOND
   1    1    2 1
   2    1   38 1
   3    1   39 1
   4    1   40 1
   5    2    3 1
   6    3    4 2
   7    3    5 1
   8    5    6 ar
   9    5   10 ar
  10    6    7 ar
  11    6   41 1
  12    7    8 ar
  13    7   42 1
  14    8    9 ar
  15    8   11 1
  16    9   10 ar
  17    9   43 1
  18   10   44 1
  19   11   12 1
  20   11   27 1
  21   11   45 1
  22   12   13 1
  23   12   24 am
  24   13   14 1
  25   13   46 1
  26   13   47 1
  27   14   15 1
  28   14   48 1
  29   14   49 1
  30   15   16 2
  31   15   19 1
  32   16   17 1
  33   16   50 1
  34   17   18 1
  35   17   51 1
  36   18   19 ar
  37   18   23 ar
  38   19   20 ar
  39   20   21 ar
  40   20   52 1
  41   21   22 ar
  42   21   53 1
  43   22   23 ar
  44   22   54 1
  45   23   55 1
  46   24   25 2
  47   24   26 1
  48   26   27 2
  49   26   37 1
  50   27   28 1
  51   28   29 2
  52   28   30 1
  53   30   31 ar
  54   30   35 ar
  55   31   32 ar
  56   31   56 1
  57   32   33 ar
  58   32   57 1
  59   33   34 ar
  60   33   58 1
  61   34   35 ar
  62   34   36 1
  63   35   59 1
  64   36   60 1
  65   36   61 1
  66   36   62 1
  67   37   63 1

#	End of record

