#	Name: ASD11710016
#	Creating user name:	WinNT
#	Creation time:	15. 06. 2019 21:29

#	Modifying user name:	WinNT
#	Modification time:	15. 06. 2019 21:29

#	Program:	/corina/corina34_cracker 3.40 0067  02.08.2006

@<TRIPOS>MOLECULE
ASD11710016
  34   35    0    0    0
SMALL
NO_CHARGES


@<TRIPOS>ATOM
   1 N1            -0.9462     2.0968     0.7676 N.am    
   2 C2            -0.7012     0.8047     0.4730 C.2     
   3 C3            -1.8207    -0.1557     0.3721 C.ar    
   4 O4             0.4403     0.4289     0.2902 O.2     
   5 C5            -1.5704    -1.4946     0.0672 C.ar    
   6 C6            -3.1320     0.2713     0.5871 C.ar    
   7 C7            -4.1721    -0.6300     0.4919 C.ar    
   8 C8            -3.9175    -1.9548     0.1846 C.ar    
   9 C9            -2.6195    -2.3856    -0.0250 C.ar    
  10 S10           -5.2516    -3.0997     0.0661 S.o2    
  11 N11           -5.6728    -3.1979    -1.5325 N.am    
  12 C12           -6.1342    -2.0635    -2.2041 C.ar    
  13 C13           -5.6370    -1.7492    -3.4625 C.ar    
  14 C14           -7.0955    -1.2502    -1.6176 C.ar    
  15 C15           -7.5495    -0.1293    -2.2844 C.ar    
  16 C16           -7.0486     0.1836    -3.5347 C.ar    
  17 C17           -6.0954    -0.6268    -4.1238 C.ar    
  18 O18           -4.7228    -4.3701     0.4205 O.2     
  19 O19           -6.3536    -2.5024     0.7354 O.2     
  20 C20            0.1631     3.0484     0.8675 C.3     
  21 H21           -1.8574     2.3975     0.9095 H       
  22 H22           -0.5576    -1.8321    -0.0966 H       
  23 H23           -3.3320     1.3050     0.8278 H       
  24 H24           -5.1872    -0.3009     0.6580 H       
  25 H25           -2.4276    -3.4211    -0.2646 H       
  26 H26           -5.5990    -4.0433    -2.0024 H       
  27 H27           -4.8925    -2.3817    -3.9231 H       
  28 H28           -7.4877    -1.4944    -0.6414 H       
  29 H29           -8.2969     0.5035    -1.8289 H       
  30 H30           -7.4059     1.0604    -4.0544 H       
  31 H31           -5.7062    -0.3796    -5.1004 H       
  32 H32            0.6921     3.0911    -0.0846 H       
  33 H33           -0.2268     4.0367     1.1112 H       
  34 H34            0.8495     2.7254     1.6503 H       
@<TRIPOS>BOND
   1    1    2 am
   2    1   20 1
   3    1   21 1
   4    2    3 1
   5    2    4 2
   6    3    5 ar
   7    3    6 ar
   8    5    9 ar
   9    5   22 1
  10    6    7 ar
  11    6   23 1
  12    7    8 ar
  13    7   24 1
  14    8    9 ar
  15    8   10 1
  16    9   25 1
  17   10   11 am
  18   10   18 2
  19   10   19 2
  20   11   12 1
  21   11   26 1
  22   12   13 ar
  23   12   14 ar
  24   13   17 ar
  25   13   27 1
  26   14   15 ar
  27   14   28 1
  28   15   16 ar
  29   15   29 1
  30   16   17 ar
  31   16   30 1
  32   17   31 1
  33   20   32 1
  34   20   33 1
  35   20   34 1

#	End of record

