#	Name: ASD10410020
#	Creating user name:	WinNT
#	Creation time:	15. 06. 2019 21:26

#	Modifying user name:	WinNT
#	Modification time:	15. 06. 2019 21:26

#	Program:	/corina/corina34_cracker 3.40 0067  02.08.2006

@<TRIPOS>MOLECULE
ASD10410020
  70   74    0    0    0
SMALL
NO_CHARGES


@<TRIPOS>ATOM
   1 C1             0.1985     0.4162    -0.1521 C.3     
   2 C2            -0.5467    -0.8665    -0.4175 C.ar    
   3 C3             1.6277     0.2701    -0.6072 C.ar    
   4 N4             1.9528     0.4825    -1.8715 N.ar    
   5 C5             2.6197    -0.0832     0.2960 C.ar    
   6 C6             3.9219    -0.2062    -0.1648 C.ar    
   7 N7             4.1773     0.0157    -1.4437 N.ar    
   8 C8             3.2072     0.3565    -2.2789 C.ar    
   9 Cl9            2.2393    -0.3645     1.9663 Cl      
  10 N10            3.5109     0.5814    -3.6123 N.pl3   
  11 C11            4.8426     0.5677    -4.0378 C.ar    
  12 C12            5.1703     0.0450    -5.2823 C.ar    
  13 C13            6.4866     0.0335    -5.6998 C.ar    
  14 C14            7.4780     0.5416    -4.8805 C.ar    
  15 C15            7.1551     1.0628    -3.6409 C.ar    
  16 C16            5.8401     1.0822    -3.2195 C.ar    
  17 C17            8.9134     0.5270    -5.3392 C.3     
  18 N18            9.2103     1.7728    -6.0587 N.3     
  19 C19           10.6516     1.9027    -6.3143 C.3     
  20 C20           10.9097     3.1700    -7.1328 C.3     
  21 N21           10.4007     4.3366    -6.3981 N.3     
  22 C22            8.9594     4.2066    -6.1425 C.3     
  23 C23            8.7013     2.9394    -5.3241 C.3     
  24 C24           10.6976     5.5824    -7.1177 C.3     
  25 C25           -1.4829    -0.9245    -1.4326 C.ar    
  26 C26           -0.2898    -1.9869     0.3508 C.ar    
  27 C27           -0.9733    -3.1633     0.1075 C.ar    
  28 C28           -1.9142    -3.2196    -0.9040 C.ar    
  29 C29           -2.1670    -2.1012    -1.6757 C.ar    
  30 S30           -1.8051     0.5013    -2.4164 S.o2    
  31 N31           -2.5661     1.6055    -1.4449 N.am    
  32 O32           -0.5392     1.0585    -2.7421 O.2     
  33 O33           -2.7557     0.1063    -3.3961 O.2     
  34 C34           -1.9179     2.7305    -0.7552 C.3     
  35 C35           -3.0106     3.4662     0.0487 C.3     
  36 C36           -4.1068     2.3813     0.2184 C.3     
  37 C37           -4.0070     1.6270    -1.1334 C.3     
  38 H38           -0.2754     1.2314    -0.6988 H       
  39 H39            0.1777     0.6343     0.9156 H       
  40 H40            4.7179    -0.4794     0.5121 H       
  41 H41            2.7995     0.7482    -4.2503 H       
  42 H42            4.3966    -0.3524    -5.9225 H       
  43 H43            6.7422    -0.3732    -6.6672 H       
  44 H44            7.9317     1.4589    -3.0034 H       
  45 H45            5.5886     1.4893    -2.2513 H       
  46 H46            9.5705     0.4418    -4.4737 H       
  47 H47            9.0742    -0.3229    -6.0025 H       
  48 H48           11.1847     1.9675    -5.3658 H       
  49 H49           11.0022     1.0331    -6.8702 H       
  50 H50           11.9809     3.2838    -7.2988 H       
  51 H51           10.3987     3.0934    -8.0925 H       
  52 H52            8.6088     5.0762    -5.5867 H       
  53 H53            8.4263     4.1418    -7.0911 H       
  54 H54            7.6301     2.8256    -5.1580 H       
  55 H55            9.2123     3.0160    -4.3643 H       
  56 H56           10.2266     5.5555    -8.1003 H       
  57 H57           10.3101     6.4298    -6.5521 H       
  58 H58           11.7763     5.6863    -7.2345 H       
  59 H59            0.4452    -1.9429     1.1409 H       
  60 H60           -0.7721    -4.0387     0.7072 H       
  61 H61           -2.4480    -4.1389    -1.0944 H       
  62 H62           -2.9020    -2.1451    -2.4658 H       
  63 H63           -1.1485     2.3572    -0.0793 H       
  64 H64           -1.4756     3.4079    -1.4857 H       
  65 H65           -2.6282     3.7831     1.0189 H       
  66 H66           -3.3947     4.3180    -0.5126 H       
  67 H67           -3.8776     1.7219     1.0555 H       
  68 H68           -5.0905     2.8353     0.3388 H       
  69 H69           -4.5597     2.1601    -1.9070 H       
  70 H70           -4.3843     0.6098    -1.0290 H       
@<TRIPOS>BOND
   1    1    2 1
   2    1    3 1
   3    1   38 1
   4    1   39 1
   5    2   25 ar
   6    2   26 ar
   7    3    4 ar
   8    3    5 ar
   9    4    8 ar
  10    5    6 ar
  11    5    9 1
  12    6    7 ar
  13    6   40 1
  14    7    8 ar
  15    8   10 1
  16   10   11 1
  17   10   41 1
  18   11   12 ar
  19   11   16 ar
  20   12   13 ar
  21   12   42 1
  22   13   14 ar
  23   13   43 1
  24   14   15 ar
  25   14   17 1
  26   15   16 ar
  27   15   44 1
  28   16   45 1
  29   17   18 1
  30   17   46 1
  31   17   47 1
  32   18   19 1
  33   18   23 1
  34   19   20 1
  35   19   48 1
  36   19   49 1
  37   20   21 1
  38   20   50 1
  39   20   51 1
  40   21   22 1
  41   21   24 1
  42   22   23 1
  43   22   52 1
  44   22   53 1
  45   23   54 1
  46   23   55 1
  47   24   56 1
  48   24   57 1
  49   24   58 1
  50   25   30 1
  51   25   29 ar
  52   26   27 ar
  53   26   59 1
  54   27   28 ar
  55   27   60 1
  56   28   29 ar
  57   28   61 1
  58   29   62 1
  59   30   31 am
  60   30   32 2
  61   30   33 2
  62   31   34 1
  63   31   37 1
  64   34   35 1
  65   34   63 1
  66   34   64 1
  67   35   36 1
  68   35   65 1
  69   35   66 1
  70   36   37 1
  71   36   67 1
  72   36   68 1
  73   37   69 1
  74   37   70 1

#	End of record

