#	Name: ASD10610137
#	Creating user name:	WinNT
#	Creation time:	15. 06. 2019 21:28

#	Modifying user name:	WinNT
#	Modification time:	15. 06. 2019 21:28

#	Program:	/corina/corina34_cracker 3.40 0067  02.08.2006

@<TRIPOS>MOLECULE
ASD10610137
  19   20    0    0    0
SMALL
NO_CHARGES


@<TRIPOS>ATOM
   1 N1            -0.0178     1.4648     0.0101 N.3     
   2 O2            -0.0514    -1.7333     1.5681 O.3     
   3 C3             0.7121    -0.5544     1.2616 C.3     
   4 C4             0.0021    -0.0041     0.0020 C.3     
   5 C5            -1.3974    -0.5660     0.1610 C.ar    
   6 C6            -1.3247    -1.5754     1.1129 C.ar    
   7 C7            -2.5951    -0.2484    -0.4399 C.ar    
   8 C8            -3.7464    -0.9327    -0.0921 C.ar    
   9 C9            -3.6884    -1.9348     0.8598 C.ar    
  10 C10           -2.4878    -2.2573     1.4604 C.ar    
  11 Br11          -5.2614    -2.8677     1.3408 Br      
  12 H12            0.9191     1.8392     0.0032 H       
  13 H13           -0.5563     1.8234    -0.7642 H       
  14 H14            0.6586     0.1638     2.0798 H       
  15 H15            1.7477    -0.8120     1.0396 H       
  16 H16            0.4727    -0.3804    -0.9062 H       
  17 H17           -2.6358     0.5350    -1.1822 H       
  18 H18           -4.6868    -0.6851    -0.5617 H       
  19 H19           -2.4507    -3.0410     2.2025 H       
@<TRIPOS>BOND
   1    1    4 1
   2    1   12 1
   3    1   13 1
   4    2    3 1
   5    2    6 1
   6    3    4 1
   7    3   14 1
   8    3   15 1
   9    4    5 1
  10    4   16 1
  11    5    6 ar
  12    5    7 ar
  13    6   10 ar
  14    7    8 ar
  15    7   17 1
  16    8    9 ar
  17    8   18 1
  18    9   10 ar
  19    9   11 1
  20   10   19 1

#	End of record

