#	Name: ASD14640026
#	Creating user name:	WinNT
#	Creation time:	15. 06. 2019 21:31

#	Modifying user name:	WinNT
#	Modification time:	15. 06. 2019 21:31

#	Program:	/corina/corina34_cracker 3.40 0067  02.08.2006

@<TRIPOS>MOLECULE
ASD14640026
  34   35    0    0    0
SMALL
NO_CHARGES


@<TRIPOS>ATOM
   1 C1            -0.0167     1.3770     0.0096 C.ar    
   2 C2             0.0021    -0.0041     0.0020 C.ar    
   3 C3            -1.1853    -0.7129     0.0095 C.ar    
   4 C4            -4.7922    -2.9777     3.5636 C.3     
   5 C5            -3.0832    -2.0038     2.1482 C.3     
   6 C6             0.0138     4.0804     0.0359 C.3     
   7 C7            -2.3937    -0.0416     0.0246 C.ar    
   8 C8            -2.4178     1.3399     0.0318 C.ar    
   9 C9            -1.2281     2.0531     0.0306 C.ar    
  10 C10           -3.6858    -0.8172     0.0327 C.3     
  11 C11           -4.1093    -1.0874     1.4779 C.3     
  12 C12           -5.4802    -1.7694     1.4898 C.3     
  13 C13           -5.8693    -2.0903     2.9355 C.3     
  14 N14           -3.5002    -2.2805     3.5287 N.3     
  15 O15           -1.2492     3.4119     0.0377 O.3     
  16 H16            0.9109     1.9301     0.0037 H       
  17 H17            0.9448    -0.5308    -0.0101 H       
  18 H18           -1.1686    -1.7927     0.0032 H       
  19 H19           -5.0591    -3.1963     4.5975 H       
  20 H20           -4.7173    -3.9095     3.0030 H       
  21 H21           -3.0162    -2.9403     1.5944 H       
  22 H22           -2.1090    -1.5150     2.1541 H       
  23 H23           -0.1457     5.1586     0.0421 H       
  24 H24            0.5790     3.7916     0.9221 H       
  25 H25            0.5717     3.8007    -0.8578 H       
  26 H26           -3.3621     1.8639     0.0432 H       
  27 H27           -4.4602    -0.2383    -0.4707 H       
  28 H28           -3.5442    -1.7644    -0.4876 H       
  29 H29           -4.1663    -0.1450     2.0227 H       
  30 H30           -6.2228    -1.1021     1.0523 H       
  31 H31           -5.4332    -2.6917     0.9109 H       
  32 H32           -6.8250    -2.6143     2.9474 H       
  33 H33           -5.9545    -1.1640     3.5037 H       
  34 H34           -3.5325    -1.4319     4.0737 H       
@<TRIPOS>BOND
   1    1    2 ar
   2    1   16 1
   3    1    9 ar
   4    2    3 ar
   5    2   17 1
   6    3   18 1
   7    3    7 ar
   8    4   14 1
   9    4   19 1
  10    4   20 1
  11    4   13 1
  12    5   21 1
  13    5   22 1
  14    5   11 1
  15    5   14 1
  16    6   15 1
  17    6   23 1
  18    6   24 1
  19    6   25 1
  20    7    8 ar
  21    7   10 1
  22    8   26 1
  23    8    9 ar
  24    9   15 1
  25   10   27 1
  26   10   28 1
  27   10   11 1
  28   11   29 1
  29   11   12 1
  30   12   30 1
  31   12   31 1
  32   12   13 1
  33   13   32 1
  34   13   33 1
  35   14   34 1

#	End of record

