#	Name: ASD10610200
#	Creating user name:	WinNT
#	Creation time:	15. 06. 2019 21:28

#	Modifying user name:	WinNT
#	Modification time:	15. 06. 2019 21:28

#	Program:	/corina/corina34_cracker 3.40 0067  02.08.2006

@<TRIPOS>MOLECULE
ASD10610200
  14   14    0    0    0
SMALL
NO_CHARGES


@<TRIPOS>ATOM
   1 C1            -0.0178     1.4641     0.0101 C.2     
   2 C2             0.0021    -0.0041     0.0020 C.ar    
   3 C3            -1.1992    -0.7251     0.0096 C.ar    
   4 C4            -1.1719    -2.1032     0.0015 C.ar    
   5 C5             0.0394    -2.7771    -0.0142 C.ar    
   6 C6             1.2318    -2.0741    -0.0213 C.ar    
   7 C7             1.2231    -0.6925    -0.0192 C.ar    
   8 O8             1.0242     2.0848     0.0035 O.2     
   9 F9             2.3874    -0.0073    -0.0318 F       
  10 Cl10           0.0610    -4.5129    -0.0243 Cl      
  11 Br11          -2.8539     0.1901     0.0316 Br      
  12 H12           -0.9604     1.9913     0.0174 H       
  13 H13           -2.0974    -2.6598     0.0077 H       
  14 H14            2.1711    -2.6069    -0.0332 H       
@<TRIPOS>BOND
   1    1    2 1
   2    1    8 2
   3    1   12 1
   4    2    3 ar
   5    2    7 ar
   6    3    4 ar
   7    3   11 1
   8    4    5 ar
   9    4   13 1
  10    5    6 ar
  11    5   10 1
  12    6    7 ar
  13    6   14 1
  14    7    9 1

#	End of record

