#	Name: ASD10160358
#	Creating user name:	WinNT
#	Creation time:	15. 06. 2019 21:25

#	Modifying user name:	WinNT
#	Modification time:	15. 06. 2019 21:25

#	Program:	/corina/corina34_cracker 3.40 0067  02.08.2006

@<TRIPOS>MOLECULE
ASD10160358
  22   22    0    0    0
SMALL
NO_CHARGES


@<TRIPOS>ATOM
   1 C1            -0.0167     1.3812     0.0096 C.ar    
   2 C2             0.0021    -0.0041     0.0020 C.ar    
   3 C3             1.2262    -0.6663    -0.0132 C.ar    
   4 C4             2.3855     0.0912    -0.0202 C.ar    
   5 C5             2.2884     1.4774    -0.0118 C.ar    
   6 N6             1.1077     2.0719     0.0026 N.ar    
   7 O7            -1.1613    -0.7082     0.0098 O.3     
   8 O8             3.4188     2.2296    -0.0181 O.3     
   9 C9             3.2535     3.6490    -0.0089 C.3     
  10 C10            4.6273     4.3225    -0.0178 C.3     
  11 C11            5.3913     3.9061    -1.2764 C.3     
  12 F12            4.6718     4.2991    -2.4100 F       
  13 F13            6.6474     4.5219    -1.2846 F       
  14 F14            5.5530     2.5165    -1.2854 F       
  15 F15            4.4656     5.7121    -0.0089 F       
  16 F16            5.3467     3.9294     1.1158 F       
  17 Cl17           3.9402    -0.6810    -0.0386 Cl      
  18 H18           -0.9628     1.9020     0.0169 H       
  19 H19            1.2709    -1.7453    -0.0191 H       
  20 H20           -1.5066    -0.9072    -0.8713 H       
  21 H21            2.6930     3.9553    -0.8922 H       
  22 H22            2.7093     3.9457     0.8877 H       
@<TRIPOS>BOND
   1    1    2 ar
   2    1    6 ar
   3    1   18 1
   4    2    3 ar
   5    2    7 1
   6    3    4 ar
   7    3   19 1
   8    4    5 ar
   9    4   17 1
  10    5    6 ar
  11    5    8 1
  12    7   20 1
  13    8    9 1
  14    9   10 1
  15    9   21 1
  16    9   22 1
  17   10   11 1
  18   10   15 1
  19   10   16 1
  20   11   12 1
  21   11   13 1
  22   11   14 1

#	End of record

