#	Name: ASD12970003
#	Creating user name:	WinNT
#	Creation time:	15. 06. 2019 21:30

#	Modifying user name:	WinNT
#	Modification time:	15. 06. 2019 21:30

#	Program:	/corina/corina34_cracker 3.40 0067  02.08.2006

@<TRIPOS>MOLECULE
ASD12970003
  16   16    0    0    0
SMALL
NO_CHARGES


@<TRIPOS>ATOM
   1 C1            -0.0167     1.3831     0.0096 C.ar    
   2 C2             0.0021    -0.0041     0.0020 C.ar    
   3 C3             1.2083    -0.6773    -0.0131 C.ar    
   4 C4             2.3962     0.0303    -0.0207 C.ar    
   5 C5             2.3801     1.4128    -0.0131 C.ar    
   6 C6             1.1765     2.0907     0.0021 C.ar    
   7 O7            -1.2021     2.0477     0.0189 O.3     
   8 C8             3.7106    -0.7066    -0.0367 C.3     
   9 H9            -0.9255    -0.5572     0.0083 H       
  10 H10            1.2235    -1.7571    -0.0187 H       
  11 H11            3.3093     1.9633    -0.0186 H       
  12 H12            1.1645     3.1706     0.0076 H       
  13 H13           -1.5410     2.2352     0.9049 H       
  14 H14            4.0179    -0.8791    -1.0681 H       
  15 H15            4.4675    -0.1106     0.4731 H       
  16 H16            3.5971    -1.6632     0.4734 H       
@<TRIPOS>BOND
   1    1    2 ar
   2    1    6 ar
   3    1    7 1
   4    2    3 ar
   5    2    9 1
   6    3    4 ar
   7    3   10 1
   8    4    5 ar
   9    4    8 1
  10    5    6 ar
  11    5   11 1
  12    6   12 1
  13    7   13 1
  14    8   14 1
  15    8   15 1
  16    8   16 1

#	End of record

