#	Name: ASD10410155
#	Creating user name:	WinNT
#	Creation time:	15. 06. 2019 21:27

#	Modifying user name:	WinNT
#	Modification time:	15. 06. 2019 21:27

#	Program:	/corina/corina34_cracker 3.40 0067  02.08.2006

@<TRIPOS>MOLECULE
ASD10410155
  68   74    0    0    0
SMALL
NO_CHARGES


@<TRIPOS>ATOM
   1 C1            -0.0183     1.3898    -0.0792 C.ar    
   2 C2            -0.0056     0.0095     0.0250 C.ar    
   3 C3             1.1827    -0.6697     0.1133 C.ar    
   4 C4             2.3829     0.0156     0.0989 C.ar    
   5 C5             2.3800     1.4019    -0.0056 C.ar    
   6 C6             1.1748     2.0868    -0.0945 C.ar    
   7 N7             3.5874     2.1051    -0.0206 N.pl3   
   8 C8             3.6812     3.3152    -0.7080 C.2     
   9 N9             4.7244     4.1096    -0.7094 N.2     
  10 N10            2.7230     3.8474    -1.4756 N.2     
  11 C11            3.1382     4.9922    -1.9739 C.2     
  12 N12            4.4019     5.2093    -1.5209 N.pl3   
  13 N13            2.4197     5.8238    -2.8109 N.pl3   
  14 C14            5.2144     6.3046    -1.8049 C.ar    
  15 C15           -1.3174    -0.7479     0.0396 C.3     
  16 C16           -1.5418    -1.3015     1.4488 C.3     
  17 C17           -0.8474    -2.6377     1.6229 C.3     
  18 C18            0.6667    -2.5631     1.6150 C.3     
  19 C19            1.1884    -2.1801     0.2272 C.3     
  20 N20           -1.2783    -3.2240     2.8991 N.3     
  21 N21            4.7801     7.2799    -2.5926 N.ar    
  22 C22            6.5026     6.3972    -1.2583 C.ar    
  23 C23            5.5468     8.3218    -2.8651 C.ar    
  24 N24            6.7586     8.4506    -2.3823 N.ar    
  25 C25            7.2884     7.5121    -1.5661 C.ar    
  26 C26           -2.2616    -5.4140     2.2930 C.3     
  27 C27           -2.8427    -6.2975     3.4389 C.3     
  28 C28           -1.8764    -6.0638     4.6402 C.3     
  29 C29           -2.1540    -4.6106     5.0880 C.3     
  30 C30           -2.5392    -3.9608     2.7408 C.3     
  31 C31           -3.2618    -4.1031     4.1152 C.3     
  32 C32           -4.0715    -5.4272     3.8815 C.3     
  33 Cl33           4.9250     9.5670    -3.9026 Cl      
  34 C34            8.5503     7.4651    -0.9531 C.2     
  35 C35            8.7847     6.4032    -0.1986 C.2     
  36 S36            7.3983     5.3261    -0.1909 S.3     
  37 C37            9.5739     8.5548    -1.1425 C.3     
  38 H38           -0.9566     1.9195    -0.1527 H       
  39 H39            3.3168    -0.5223     0.1686 H       
  40 H40            1.1703     3.1637    -0.1752 H       
  41 H41            4.3603     1.7518     0.4470 H       
  42 H42            1.5207     5.5801    -3.0818 H       
  43 H43            2.8141     6.6514    -3.1278 H       
  44 H44           -2.1326    -0.0738    -0.2233 H       
  45 H45           -1.2735    -1.5703    -0.6744 H       
  46 H46           -1.1467    -0.5947     2.1784 H       
  47 H47           -2.6112    -1.4290     1.6174 H       
  48 H48           -1.1651    -3.3000     0.8176 H       
  49 H49            0.9923    -1.8162     2.3389 H       
  50 H50            1.0746    -3.5342     1.8955 H       
  51 H51            0.5413    -2.6081    -0.5384 H       
  52 H52            2.2050    -2.5531     0.1023 H       
  53 H53           -0.5592    -3.8168     3.2858 H       
  54 H54           -1.1895    -5.5818     2.1902 H       
  55 H55           -2.7721    -5.6262     1.3535 H       
  56 H56           -3.0425    -7.3382     3.1836 H       
  57 H57           -2.1000    -6.7599     5.4486 H       
  58 H58           -0.8399    -6.1715     4.3206 H       
  59 H59           -2.5140    -4.5922     6.1167 H       
  60 H60           -1.2539    -4.0038     4.9886 H       
  61 H61           -3.1845    -3.4579     2.0205 H       
  62 H62           -3.8268    -3.2326     4.4489 H       
  63 H63           -4.8063    -5.3216     3.0834 H       
  64 H64           -4.5243    -5.7971     4.8014 H       
  65 H65            9.7050     6.2222     0.3370 H       
  66 H66            9.4427     9.3145    -0.3719 H       
  67 H67           10.5749     8.1300    -1.0673 H       
  68 H68            9.4445     9.0080    -2.1253 H       
@<TRIPOS>BOND
   1    1    2 ar
   2    1    6 ar
   3    1   38 1
   4    2    3 ar
   5    2   15 1
   6    3    4 ar
   7    3   19 1
   8    4    5 ar
   9    4   39 1
  10    5    6 ar
  11    5    7 1
  12    6   40 1
  13    7    8 1
  14    7   41 1
  15    8    9 2
  16    8   10 1
  17    9   12 1
  18   10   11 2
  19   11   12 1
  20   11   13 1
  21   12   14 1
  22   13   42 1
  23   13   43 1
  24   14   21 ar
  25   14   22 ar
  26   15   16 1
  27   15   44 1
  28   15   45 1
  29   16   17 1
  30   16   46 1
  31   16   47 1
  32   17   18 1
  33   17   20 1
  34   17   48 1
  35   18   19 1
  36   18   49 1
  37   18   50 1
  38   19   51 1
  39   19   52 1
  40   20   30 1
  41   20   53 1
  42   21   23 ar
  43   22   25 ar
  44   22   36 1
  45   23   24 ar
  46   23   33 1
  47   24   25 ar
  48   25   34 1
  49   26   27 1
  50   26   30 1
  51   26   54 1
  52   26   55 1
  53   27   28 1
  54   27   32 1
  55   27   56 1
  56   28   29 1
  57   28   57 1
  58   28   58 1
  59   29   31 1
  60   29   59 1
  61   29   60 1
  62   30   31 1
  63   30   61 1
  64   31   32 1
  65   31   62 1
  66   32   63 1
  67   32   64 1
  68   34   35 2
  69   34   37 1
  70   35   36 1
  71   35   65 1
  72   37   66 1
  73   37   67 1
  74   37   68 1

#	End of record

