#	Name: ASD10160513
#	Creating user name:	WinNT
#	Creation time:	15. 06. 2019 21:26

#	Modifying user name:	WinNT
#	Modification time:	15. 06. 2019 21:26

#	Program:	/corina/corina34_cracker 3.40 0067  02.08.2006

@<TRIPOS>MOLECULE
ASD10160513
  26   28    0    0    0
SMALL
NO_CHARGES


@<TRIPOS>ATOM
   1 C1            -0.0167     1.3833     0.0096 C.ar    
   2 C2             0.0021    -0.0041     0.0020 C.ar    
   3 C3             1.2270    -0.6629    -0.0132 C.ar    
   4 C4             2.3845     0.0990    -0.0201 C.ar    
   5 C5             2.2850     1.4775    -0.0118 C.ar    
   6 N6             1.1076     2.0712     0.0026 N.ar    
   7 O7            -1.1598    -0.7092     0.0097 O.3     
   8 C8             3.5390     2.3134    -0.0187 C.3     
   9 C9             3.7397     3.2762    -1.1908 C.3     
  10 C10            3.3845     3.8206     0.1943 C.3     
  11 C11            3.7360    -0.5676    -0.0361 C.3     
  12 C12            4.0802    -1.4947     1.1314 C.3     
  13 C13            3.7739    -2.0825    -0.2476 C.3     
  14 H14           -0.9624     1.9049     0.0169 H       
  15 H15            1.2749    -1.7418    -0.0191 H       
  16 H16           -1.5048    -0.9085    -0.8714 H       
  17 H17            4.4256     1.8343     0.3966 H       
  18 H18            4.7585     3.4308    -1.5462 H       
  19 H19            2.9648     3.3050    -1.9568 H       
  20 H20            2.3759     4.2076     0.3395 H       
  21 H21            4.1695     4.3334     0.7500 H       
  22 H22            4.5457     0.0214    -0.4667 H       
  23 H23            5.1165    -1.5158     1.4686 H       
  24 H24            3.3292    -1.6223     1.9110 H       
  25 H25            2.8214    -2.5969    -0.3752 H       
  26 H26            4.6087    -2.4903    -0.8175 H       
@<TRIPOS>BOND
   1    1    2 ar
   2    1    6 ar
   3    1   14 1
   4    2    3 ar
   5    2    7 1
   6    3    4 ar
   7    3   15 1
   8    4    5 ar
   9    4   11 1
  10    5    6 ar
  11    5    8 1
  12    7   16 1
  13    8    9 1
  14    8   10 1
  15    8   17 1
  16    9   10 1
  17    9   18 1
  18    9   19 1
  19   10   20 1
  20   10   21 1
  21   11   12 1
  22   11   13 1
  23   11   22 1
  24   12   13 1
  25   12   23 1
  26   12   24 1
  27   13   25 1
  28   13   26 1

#	End of record

