#	Name: ASD11360002
#	Creating user name:	WinNT
#	Creation time:	15. 06. 2019 21:29

#	Modifying user name:	WinNT
#	Modification time:	15. 06. 2019 21:29

#	Program:	/corina/corina34_cracker 3.40 0067  02.08.2006

@<TRIPOS>MOLECULE
ASD11360002
  56   60    0    0    0
SMALL
NO_CHARGES


@<TRIPOS>ATOM
   1 C1             0.7623     2.0213    -0.2868 C.3     
   2 C2             2.0351     2.1191    -1.1369 C.3     
   3 N3             3.1898     1.7771    -0.2946 N.am    
   4 C4             3.4009     2.5224     0.9544 C.3     
   5 C5             2.1281     2.4246     1.8045 C.3     
   6 N6             0.9733     2.7666     0.9622 N.am    
   7 C7            -0.3974     2.6180    -1.0420 C.ar    
   8 C8            -1.6888     2.4301    -0.5861 C.ar    
   9 C9            -2.7528     2.9771    -1.2783 C.ar    
  10 C10           -2.5251     3.7128    -2.4276 C.ar    
  11 C11           -1.2324     3.9005    -2.8834 C.ar    
  12 C12           -0.1688     3.3578    -2.1872 C.ar    
  13 C13            0.1234     3.7464     1.3283 C.2     
  14 O14           -0.8069     4.0456     0.6053 O.2     
  15 C15            0.3225     4.4570     2.6087 C.ar    
  16 C16            4.0397     0.7973    -0.6607 C.2     
  17 C17            5.2592     0.5568     0.1161 C.2     
  18 O18            3.7947     0.1123    -1.6364 O.2     
  19 C19            6.2486    -0.3371    -0.1789 C.2     
  20 N20            7.1752    -0.2441     0.7751 N.2     
  21 C21            6.8012     0.6686     1.6469 C.2     
  22 O22            5.6232     1.1825     1.2605 O.3     
  23 C23            7.5578     1.0664     2.8515 C.ar    
  24 C24            8.7807     0.4591     3.1439 C.ar    
  25 C25            9.4820     0.8354     4.2706 C.ar    
  26 C26            8.9761     1.8119     5.1103 C.ar    
  27 C27            7.7649     2.4178     4.8265 C.ar    
  28 C28            7.0561     2.0556     3.6999 C.ar    
  29 Cl29          -3.8610     4.3996    -3.2979 Cl      
  30 C30            0.8311     3.7761     3.7164 C.ar    
  31 C31            0.0080     5.8132     2.7138 C.ar    
  32 C32            0.1963     6.4710     3.9110 C.ar    
  33 C33            0.6964     5.7889     5.0080 C.ar    
  34 C34            1.0151     4.4447     4.9083 C.ar    
  35 Cl35           0.9313     6.6239     6.5117 Cl      
  36 H36            0.5543     0.9760    -0.0584 H       
  37 H37            1.9719     1.4213    -1.9718 H       
  38 H38            2.1458     3.1357    -1.5142 H       
  39 H39            4.2396     2.0908     1.5006 H       
  40 H40            3.6088     3.5677     0.7260 H       
  41 H41            2.0173     1.4080     2.1818 H       
  42 H42            2.1913     3.1224     2.6394 H       
  43 H43           -1.8665     1.8555     0.3110 H       
  44 H44           -3.7617     2.8299    -0.9222 H       
  45 H45           -1.0540     4.4747    -3.7805 H       
  46 H46            0.8407     3.5079    -2.5405 H       
  47 H47            6.2753    -1.0002    -1.0309 H       
  48 H48            9.1764    -0.3037     2.4898 H       
  49 H49           10.4280     0.3665     4.4980 H       
  50 H50            9.5289     2.1022     5.9915 H       
  51 H51            7.3756     3.1790     5.4863 H       
  52 H52            6.1132     2.5327     3.4769 H       
  53 H53            1.0797     2.7279     3.6400 H       
  54 H54           -0.3816     6.3461     1.8591 H       
  55 H55           -0.0462     7.5202     3.9935 H       
  56 H56            1.4085     3.9190     5.7659 H       
@<TRIPOS>BOND
   1    1    2 1
   2    1    6 1
   3    1    7 1
   4    1   36 1
   5    2    3 1
   6    2   37 1
   7    2   38 1
   8    3    4 1
   9    3   16 am
  10    4    5 1
  11    4   39 1
  12    4   40 1
  13    5    6 1
  14    5   41 1
  15    5   42 1
  16    6   13 am
  17    7    8 ar
  18    7   12 ar
  19    8    9 ar
  20    8   43 1
  21    9   10 ar
  22    9   44 1
  23   10   11 ar
  24   10   29 1
  25   11   12 ar
  26   11   45 1
  27   12   46 1
  28   13   14 2
  29   13   15 1
  30   15   31 ar
  31   15   30 ar
  32   16   17 1
  33   16   18 2
  34   17   19 2
  35   17   22 1
  36   19   20 1
  37   19   47 1
  38   20   21 2
  39   21   22 1
  40   21   23 1
  41   23   24 ar
  42   23   28 ar
  43   24   25 ar
  44   24   48 1
  45   25   26 ar
  46   25   49 1
  47   26   27 ar
  48   26   50 1
  49   27   28 ar
  50   27   51 1
  51   28   52 1
  52   30   34 ar
  53   30   53 1
  54   31   32 ar
  55   31   54 1
  56   32   33 ar
  57   32   55 1
  58   33   34 ar
  59   33   35 1
  60   34   56 1

#	End of record

