#	Name: ASD10100014
#	Creating user name:	WinNT
#	Creation time:	15. 06. 2019 21:24

#	Modifying user name:	WinNT
#	Modification time:	15. 06. 2019 21:24

#	Program:	/corina/corina34_cracker 3.40 0067  02.08.2006

@<TRIPOS>MOLECULE
ASD10100014
  36   37    0    0    0
SMALL
NO_CHARGES


@<TRIPOS>ATOM
   1 P1            -0.0180     1.4758     0.0102 P.3     
   2 O2             0.0021    -0.0041     0.0020 O.2     
   3 O3             1.4924     2.0330    -0.0013 O.3     
   4 O4            -0.7967     2.0091    -1.2942 O.3     
   5 O5            -0.7716     1.9950     1.3348 O.3     
   6 C6             2.4699     1.6523     0.9691 C.3     
   7 C7             3.7916     2.3613     0.6671 C.3     
   8 C8             4.8972     1.8698     1.6275 C.3     
   9 C9             5.7311     3.1372     1.9200 C.3     
  10 C10            5.0306     4.2446     1.1018 C.3     
  11 O11            3.6750     3.7763     0.9319 O.3     
  12 O12            5.7041     0.8746     0.9946 O.3     
  13 N13            5.0444     5.5100     1.8397 N.am    
  14 C14            4.3663     5.6140     2.9971 C.2     
  15 C15            5.7513     6.5736     1.3482 C.2     
  16 C16            5.7639     7.7398     2.0285 C.2     
  17 C17            5.0414     7.8373     3.2420 C.2     
  18 N18            4.3615     6.7647     3.6952 N.am    
  19 O19            3.7488     4.6549     3.4181 O.2     
  20 C20            6.5372     8.9219     1.5031 C.3     
  21 O21            5.0382     8.8787     3.8734 O.2     
  22 H22           -1.7149     1.7116    -1.3531 H       
  23 H23           -0.8222     2.9580     1.4066 H       
  24 H24            2.1244     1.9357     1.9633 H       
  25 H25            2.6193     0.5732     0.9303 H       
  26 H26            4.0850     2.1903    -0.3686 H       
  27 H27            4.4594     1.4802     2.5465 H       
  28 H28            5.7055     3.3742     2.9836 H       
  29 H29            6.7588     3.0047     1.5819 H       
  30 H30            5.5150     4.3642     0.1326 H       
  31 H31            6.4147     0.5307     1.5532 H       
  32 H32            6.2969     6.4804     0.4208 H       
  33 H33            3.8641     6.8237     4.5259 H       
  34 H34            5.8937     9.5188     0.8569 H       
  35 H35            6.8799     9.5323     2.3386 H       
  36 H36            7.3973     8.5694     0.9339 H       
@<TRIPOS>BOND
   1    1    2 2
   2    1    3 1
   3    1    4 1
   4    1    5 1
   5    3    6 1
   6    4   22 1
   7    5   23 1
   8    6    7 1
   9    6   24 1
  10    6   25 1
  11    7    8 1
  12    7   11 1
  13    7   26 1
  14    8    9 1
  15    8   12 1
  16    8   27 1
  17    9   10 1
  18    9   28 1
  19    9   29 1
  20   10   11 1
  21   10   13 1
  22   10   30 1
  23   12   31 1
  24   13   14 am
  25   13   15 1
  26   14   19 2
  27   14   18 am
  28   15   16 2
  29   15   32 1
  30   16   17 1
  31   16   20 1
  32   17   18 am
  33   17   21 2
  34   18   33 1
  35   20   34 1
  36   20   35 1
  37   20   36 1

#	End of record

