#	Name: ASD11000214
#	Creating user name:	WinNT
#	Creation time:	15. 06. 2019 21:28

#	Modifying user name:	WinNT
#	Modification time:	15. 06. 2019 21:28

#	Program:	/corina/corina34_cracker 3.40 0067  02.08.2006

@<TRIPOS>MOLECULE
ASD11000214
  46   50    0    0    0
SMALL
NO_CHARGES


@<TRIPOS>ATOM
   1 N1             0.2138     1.1842     0.1508 N.ar    
   2 C2             0.1129    -0.1366     0.1839 C.ar    
   3 N3             1.1831    -0.9157     0.1263 N.ar    
   4 C4             2.3950    -0.3940     0.0332 C.ar    
   5 C5             2.5367     0.9844    -0.0039 C.ar    
   6 C6             1.3962     1.7698     0.0584 C.ar    
   7 N7            -1.1410    -0.7165     0.2815 N.pl3   
   8 C8            -1.2781    -2.1073     0.1926 C.ar    
   9 C9            -2.2512    -2.7586     0.9391 C.ar    
  10 C10           -0.4449    -2.8352    -0.6465 C.ar    
  11 C11           -0.5810    -4.2067    -0.7339 C.ar    
  12 C12           -1.5501    -4.8571     0.0157 C.ar    
  13 C13           -2.3860    -4.1301     0.8505 C.ar    
  14 O14           -1.6838    -6.2076    -0.0713 O.3     
  15 C15            3.9012     1.6154    -0.1091 C.3     
  16 C16            4.4874     1.8014    -1.5100 C.3     
  17 C17            3.6561     1.3396    -2.6791 C.ar    
  18 C18           -2.7023    -6.8115     0.7287 C.3     
  19 F19           -2.4540    -6.5446     2.0793 F       
  20 F20           -3.9487    -6.2866     0.3710 F       
  21 C21            2.4719     1.9553    -2.9649 C.ar    
  22 C22            1.6979     1.5369    -4.0399 C.ar    
  23 C23            2.1043     0.5020    -4.8340 C.ar    
  24 C24            3.3080    -0.1450    -4.5673 C.ar    
  25 C25            4.0968     0.2812    -3.4809 C.ar    
  26 C26            3.9872     3.0143    -0.7228 C.3     
  27 N27            3.9774    -1.1858    -5.1564 N.pl3   
  28 N28            5.1651    -1.4204    -4.4559 N.2     
  29 C29            5.2741    -0.5810    -3.4660 C.2     
  30 H30            3.2635    -1.0342    -0.0131 H       
  31 H31            1.4722     2.8468     0.0315 H       
  32 H32           -1.9243    -0.1592     0.4114 H       
  33 H33           -2.9021    -2.1927     1.5891 H       
  34 H34            0.3092    -2.3289    -1.2308 H       
  35 H35            0.0670    -4.7730    -1.3865 H       
  36 H36           -3.1403    -4.6372     1.4339 H       
  37 H37            4.5932     1.3764     0.6984 H       
  38 H38            5.5651     1.6847    -1.6242 H       
  39 H39           -2.7014    -7.8892     0.5651 H       
  40 H40            2.1331     2.7753    -2.3491 H       
  41 H41            0.7633     2.0355    -4.2504 H       
  42 H42            1.4930     0.1862    -5.6666 H       
  43 H43            3.0569     3.4782    -1.0505 H       
  44 H44            4.7359     3.6959    -0.3191 H       
  45 H45            3.6757    -1.6806    -5.9342 H       
  46 H46            6.0898    -0.5321    -2.7598 H       
@<TRIPOS>BOND
   1    1    2 ar
   2    1    6 ar
   3    2    3 ar
   4    2    7 1
   5    3    4 ar
   6    4    5 ar
   7    4   30 1
   8    5    6 ar
   9    5   15 1
  10    6   31 1
  11    7    8 1
  12    7   32 1
  13    8    9 ar
  14    8   10 ar
  15    9   13 ar
  16    9   33 1
  17   10   11 ar
  18   10   34 1
  19   11   12 ar
  20   11   35 1
  21   12   13 ar
  22   12   14 1
  23   13   36 1
  24   14   18 1
  25   15   16 1
  26   15   26 1
  27   15   37 1
  28   16   17 1
  29   16   26 1
  30   16   38 1
  31   17   21 ar
  32   17   25 ar
  33   18   19 1
  34   18   20 1
  35   18   39 1
  36   21   22 ar
  37   21   40 1
  38   22   23 ar
  39   22   41 1
  40   23   24 ar
  41   23   42 1
  42   24   25 ar
  43   24   27 1
  44   25   29 1
  45   26   43 1
  46   26   44 1
  47   27   28 1
  48   27   45 1
  49   28   29 2
  50   29   46 1

#	End of record

