#	Name: ASD10610080
#	Creating user name:	WinNT
#	Creation time:	15. 06. 2019 21:27

#	Modifying user name:	WinNT
#	Modification time:	15. 06. 2019 21:27

#	Program:	/corina/corina34_cracker 3.40 0067  02.08.2006

@<TRIPOS>MOLECULE
ASD10610080
  59   64    0    0    0
SMALL
NO_CHARGES


@<TRIPOS>ATOM
   1 C1             0.0695     1.2588    -0.1703 C.ar    
   2 C2             0.1404    -0.1331    -0.1735 C.ar    
   3 C3             1.3976    -0.7418    -0.1230 C.ar    
   4 C4             2.5209     0.0665    -0.0718 C.ar    
   5 C5             2.3706     1.4418    -0.0717 C.ar    
   6 N6             1.1649     1.9854    -0.1205 N.ar    
   7 C7             3.9891    -0.2918    -0.0120 C.3     
   8 C8             4.7352     0.9982    -0.4144 C.3     
   9 C9             3.7338     2.1005    -0.0099 C.3     
  10 C10           -1.0939    -0.9523    -0.2288 C.ar    
  11 C11           -1.2104    -1.9791    -1.1606 C.ar    
  12 C12           -2.3627    -2.7410    -1.2101 C.ar    
  13 C13           -3.4067    -2.4894    -0.3360 C.ar    
  14 C14           -3.3073    -1.4730     0.5966 C.ar    
  15 C15           -2.1490    -0.6997     0.6627 C.ar    
  16 F16           -4.3297    -1.2331     1.4465 F       
  17 Cl17          -2.5020    -4.0202    -2.3754 Cl      
  18 C18           -2.0369     0.3907     1.6600 C.2     
  19 N19           -2.9743     0.7492     2.5670 N.2     
  20 C20           -2.4542     1.7490     3.2340 C.2     
  21 O21           -1.2373     1.9703     2.7271 O.3     
  22 N22           -1.0103     1.1837     1.8322 N.2     
  23 C23           -3.1056     2.5079     4.3613 C.3     
  24 N24            3.8008     3.2190    -0.9537 N.am    
  25 C25            3.4291     4.4540    -0.5625 C.2     
  26 O26            2.9545     4.6235     0.5407 O.2     
  27 C27            3.6033     5.6243    -1.4957 C.3     
  28 N28            4.8016     5.5882    -2.3377 N.am    
  29 C29            2.3392     6.2464    -2.0923 C.3     
  30 C30            3.1224     6.9931    -1.0097 C.3     
  31 C31            6.0236     5.6657    -1.7745 C.2     
  32 O32            6.1355     5.6739    -0.5645 O.2     
  33 C33            7.2303     5.7408    -2.6305 C.ar    
  34 C34            8.5117     5.8221    -2.0707 C.ar    
  35 C35            9.5920     5.8893    -2.9355 C.ar    
  36 N36            9.3939     5.8756    -4.2394 N.ar    
  37 N37            8.2232     5.8014    -4.7583 N.ar    
  38 C38            7.1297     5.7273    -4.0245 C.ar    
  39 H39           -0.8937     1.7454    -0.2136 H       
  40 H40            1.4909    -1.8177    -0.1236 H       
  41 H41            4.2652    -0.5887     0.9998 H       
  42 H42            4.2119    -1.0932    -0.7164 H       
  43 H43            5.6664     1.0971     0.1434 H       
  44 H44            4.9215     1.0190    -1.4882 H       
  45 H45            3.9410     2.4464     1.0028 H       
  46 H46           -0.4002    -2.1807    -1.8457 H       
  47 H47           -4.3033    -3.0897    -0.3829 H       
  48 H48           -2.8608     2.0302     5.3100 H       
  49 H49           -2.7403     3.5348     4.3668 H       
  50 H50           -4.1867     2.5075     4.2226 H       
  51 H51            4.1127     3.0707    -1.8601 H       
  52 H52            4.7155     5.5084    -3.3006 H       
  53 H53            2.3992     6.6290    -3.1112 H       
  54 H54            1.3815     5.8091    -1.8098 H       
  55 H55            2.6798     7.0471    -0.0151 H       
  56 H56            3.6974     7.8667    -1.3167 H       
  57 H57            8.6530     5.8323    -1.0000 H       
  58 H58           10.5958     5.9533    -2.5422 H       
  59 H59            6.1612     5.6657    -4.4982 H       
@<TRIPOS>BOND
   1    1    2 ar
   2    1    6 ar
   3    1   39 1
   4    2    3 ar
   5    2   10 1
   6    3    4 ar
   7    3   40 1
   8    4    5 ar
   9    4    7 1
  10    5    6 ar
  11    5    9 1
  12    7    8 1
  13    7   41 1
  14    7   42 1
  15    8    9 1
  16    8   43 1
  17    8   44 1
  18    9   24 1
  19    9   45 1
  20   10   11 ar
  21   10   15 ar
  22   11   12 ar
  23   11   46 1
  24   12   13 ar
  25   12   17 1
  26   13   14 ar
  27   13   47 1
  28   14   15 ar
  29   14   16 1
  30   15   18 1
  31   18   19 1
  32   18   22 2
  33   19   20 2
  34   20   21 1
  35   20   23 1
  36   21   22 1
  37   23   48 1
  38   23   49 1
  39   23   50 1
  40   24   25 am
  41   24   51 1
  42   25   26 2
  43   25   27 1
  44   27   28 1
  45   27   29 1
  46   27   30 1
  47   28   31 am
  48   28   52 1
  49   29   30 1
  50   29   53 1
  51   29   54 1
  52   30   55 1
  53   30   56 1
  54   31   32 2
  55   31   33 1
  56   33   34 ar
  57   33   38 ar
  58   34   35 ar
  59   34   57 1
  60   35   36 ar
  61   35   58 1
  62   36   37 ar
  63   37   38 ar
  64   38   59 1

#	End of record

