#	Name: ASD10420195
#	Creating user name:	WinNT
#	Creation time:	15. 06. 2019 21:27

#	Modifying user name:	WinNT
#	Modification time:	15. 06. 2019 21:27

#	Program:	/corina/corina34_cracker 3.40 0067  02.08.2006

@<TRIPOS>MOLECULE
ASD10420195
  44   45    0    0    0
SMALL
NO_CHARGES


@<TRIPOS>ATOM
   1 O1             0.3213     1.2894     0.5271 O.3     
   2 C2             0.3165    -0.0676     0.4594 C.ar    
   3 C3             0.4646    -0.8190     1.6181 C.ar    
   4 C4             0.4600    -2.1956     1.5546 C.ar    
   5 C5             0.3059    -2.8355     0.3214 C.ar    
   6 C6             0.1571    -2.0750    -0.8419 C.ar    
   7 C7             0.1577    -0.6989    -0.7675 C.ar    
   8 C8            -0.0088     0.1223    -2.0201 C.3     
   9 C9             0.6312    -0.1278     2.9468 C.3     
  10 C10            0.3007    -4.3071     0.2480 C.2     
  11 C11            0.1524    -4.9198    -0.9380 C.2     
  12 C12            0.1473    -6.3912    -1.0114 C.ar    
  13 C13           -0.0069    -7.0308    -2.2450 C.ar    
  14 C14           -0.0113    -8.4068    -2.3095 C.ar    
  15 C15            0.1370    -9.1596    -1.1495 C.ar    
  16 C16            0.2906    -8.5270     0.0796 C.ar    
  17 C17            0.3023    -7.1515     0.1516 C.ar    
  18 N18            0.1311   -10.5531    -1.2189 N.am    
  19 S19           -1.2007   -11.4014    -0.7200 S.o2    
  20 O20           -0.8571   -12.7608    -0.9507 O.2     
  21 O21           -1.4497   -10.9216     0.5942 O.2     
  22 C22           -2.5201   -10.8778    -1.8494 C.3     
  23 C23           -3.7852   -11.6908    -1.5676 C.3     
  24 H24            1.1991     1.6846     0.4362 H       
  25 H25            0.5756    -2.7790     2.4560 H       
  26 H26            0.0377    -2.5650    -1.7969 H       
  27 H27            0.9701     0.3233    -2.4555 H       
  28 H28           -0.6191    -0.4275    -2.7365 H       
  29 H29           -0.4976     1.0650    -1.7742 H       
  30 H30           -0.3482     0.0367     3.3961 H       
  31 H31            1.2340    -0.7509     3.6075 H       
  32 H32            1.1283     0.8308     2.7979 H       
  33 H33            0.4161    -4.8931     1.1479 H       
  34 H34            0.0370    -4.3339    -1.8379 H       
  35 H35           -0.1228    -6.4469    -3.1461 H       
  36 H36           -0.1303    -8.9016    -3.2621 H       
  37 H37            0.4055    -9.1151     0.9782 H       
  38 H38            0.4261    -6.6610     1.1058 H       
  39 H39            0.9072   -11.0251    -1.5594 H       
  40 H40           -2.7280    -9.8185    -1.6990 H       
  41 H41           -2.2038   -11.0434    -2.8793 H       
  42 H42           -4.1016   -11.5253    -0.5377 H       
  43 H43           -4.5780   -11.3762    -2.2463 H       
  44 H44           -3.5773   -12.7502    -1.7180 H       
@<TRIPOS>BOND
   1    1    2 1
   2    1   24 1
   3    2    3 ar
   4    2    7 ar
   5    3    4 ar
   6    3    9 1
   7    4    5 ar
   8    4   25 1
   9    5    6 ar
  10    5   10 1
  11    6    7 ar
  12    6   26 1
  13    7    8 1
  14    8   27 1
  15    8   28 1
  16    8   29 1
  17    9   30 1
  18    9   31 1
  19    9   32 1
  20   10   11 2
  21   10   33 1
  22   11   12 1
  23   11   34 1
  24   12   13 ar
  25   12   17 ar
  26   13   14 ar
  27   13   35 1
  28   14   15 ar
  29   14   36 1
  30   15   16 ar
  31   15   18 1
  32   16   17 ar
  33   16   37 1
  34   17   38 1
  35   18   19 am
  36   18   39 1
  37   19   20 2
  38   19   21 2
  39   19   22 1
  40   22   23 1
  41   22   40 1
  42   22   41 1
  43   23   42 1
  44   23   43 1
  45   23   44 1

#	End of record

