#	Name: ASD10410142
#	Creating user name:	WinNT
#	Creation time:	15. 06. 2019 21:26

#	Modifying user name:	WinNT
#	Modification time:	15. 06. 2019 21:26

#	Program:	/corina/corina34_cracker 3.40 0067  02.08.2006

@<TRIPOS>MOLECULE
ASD10410142
  54   57    0    0    0
SMALL
NO_CHARGES


@<TRIPOS>ATOM
   1 C1            -0.2831     1.9272    -0.0413 C.ar    
   2 C2            -0.1617     0.5456    -0.0610 C.ar    
   3 C3             1.0944    -0.0404    -0.1165 C.ar    
   4 C4             2.2252     0.7516    -0.1527 C.ar    
   5 C5             2.1045     2.1349    -0.1335 C.ar    
   6 C6             0.8466     2.7206    -0.0774 C.ar    
   7 O7            -1.2746    -0.2350    -0.0253 O.3     
   8 N8             3.2504     2.9385    -0.1698 N.pl3   
   9 C9             3.2113     4.1708    -0.7966 C.2     
  10 N10            4.2095     5.0836    -0.8204 N.pl3   
  11 N11            2.1982     4.6602    -1.4801 N.2     
  12 C12            2.5129     5.8744    -1.9444 C.2     
  13 N13            3.7323     6.1740    -1.5655 N.2     
  14 N14            1.6800     6.6892    -2.7112 N.pl3   
  15 C15           -1.0757    -1.6499    -0.0484 C.3     
  16 C16           -2.4320    -2.3564    -0.0024 C.3     
  17 N17           -3.2058    -2.0096    -1.2020 N.3     
  18 C18           -4.4818    -2.7358    -1.2333 C.3     
  19 C19           -5.3214    -2.2437    -2.4144 C.3     
  20 C20           -4.5484    -2.4759    -3.7156 C.3     
  21 C21           -3.2031    -1.7489    -3.6376 C.3     
  22 C22           -2.4249    -2.2553    -2.4211 C.3     
  23 C23            5.4694     4.9648    -0.2200 C.ar    
  24 C24            6.5878     5.5118    -0.8353 C.ar    
  25 C25            5.6019     4.3048     0.9946 C.ar    
  26 C26            6.8455     4.1898     1.5843 C.ar    
  27 C27            7.9580     4.7310     0.9665 C.ar    
  28 C28            7.8286     5.3934    -0.2405 C.ar    
  29 H29           -1.2616     2.3826    -0.0023 H       
  30 H30            1.1881    -1.1162    -0.1311 H       
  31 H31            3.2031     0.2952    -0.1956 H       
  32 H32            0.7518     3.7964    -0.0628 H       
  33 H33            4.0717     2.6311     0.2448 H       
  34 H34            0.7897     6.3859    -2.9487 H       
  35 H35            1.9910     7.5591    -3.0070 H       
  36 H36           -0.5519    -1.9283    -0.9629 H       
  37 H37           -0.4815    -1.9474     0.8156 H       
  38 H38           -2.2789    -3.4351     0.0319 H       
  39 H39           -2.9774    -2.0384     0.8862 H       
  40 H40           -4.2896    -3.8030    -1.3439 H       
  41 H41           -5.0233    -2.5588    -0.3040 H       
  42 H42           -6.2618    -2.7939    -2.4466 H       
  43 H43           -5.5255    -1.1794    -2.2974 H       
  44 H44           -4.3780    -3.5438    -3.8525 H       
  45 H45           -5.1243    -2.0874    -4.5556 H       
  46 H46           -2.6301    -1.9455    -4.5438 H       
  47 H47           -3.3740    -0.6768    -3.5398 H       
  48 H48           -1.4725    -1.7294    -2.3545 H       
  49 H49           -2.2424    -3.3248    -2.5261 H       
  50 H50            6.4874     6.0289    -1.7781 H       
  51 H51            4.7334     3.8822     1.4778 H       
  52 H52            6.9492     3.6769     2.5291 H       
  53 H53            8.9294     4.6401     1.4298 H       
  54 H54            8.6994     5.8147    -0.7207 H       
@<TRIPOS>BOND
   1    1    2 ar
   2    1    6 ar
   3    1   29 1
   4    2    3 ar
   5    2    7 1
   6    3    4 ar
   7    3   30 1
   8    4    5 ar
   9    4   31 1
  10    5    6 ar
  11    5    8 1
  12    6   32 1
  13    7   15 1
  14    8    9 1
  15    8   33 1
  16    9   10 1
  17    9   11 2
  18   10   23 1
  19   10   13 1
  20   11   12 1
  21   12   13 2
  22   12   14 1
  23   14   34 1
  24   14   35 1
  25   15   16 1
  26   15   36 1
  27   15   37 1
  28   16   17 1
  29   16   38 1
  30   16   39 1
  31   17   18 1
  32   17   22 1
  33   18   19 1
  34   18   40 1
  35   18   41 1
  36   19   20 1
  37   19   42 1
  38   19   43 1
  39   20   21 1
  40   20   44 1
  41   20   45 1
  42   21   22 1
  43   21   46 1
  44   21   47 1
  45   22   48 1
  46   22   49 1
  47   23   24 ar
  48   23   25 ar
  49   24   28 ar
  50   24   50 1
  51   25   26 ar
  52   25   51 1
  53   26   27 ar
  54   26   52 1
  55   27   28 ar
  56   27   53 1
  57   28   54 1

#	End of record

