#	Name: ASD13490043
#	Creating user name:	WinNT
#	Creation time:	15. 06. 2019 21:30

#	Modifying user name:	WinNT
#	Modification time:	15. 06. 2019 21:30

#	Program:	/corina/corina34_cracker 3.40 0067  02.08.2006

@<TRIPOS>MOLECULE
ASD13490043
  45   49    0    0    0
SMALL
NO_CHARGES


@<TRIPOS>ATOM
   1 C1            -0.0167     1.3821     0.0096 C.ar    
   2 C2             0.0021    -0.0041     0.0020 C.ar    
   3 C3             1.2105    -0.6879    -0.0129 C.ar    
   4 C4             2.3966     0.0197    -0.0164 C.ar    
   5 C5             2.3677     1.4092    -0.0047 C.ar    
   6 C6             1.1758     2.0941     0.0021 C.ar    
   7 N7            -1.2056    -0.7194     0.0099 N.pl3   
   8 C8            -2.4563    -0.1913     0.0244 C.2     
   9 N9            -3.3213    -1.1693     0.0269 N.2     
  10 C10           -2.6680    -2.3408     0.0143 C.2     
  11 C11           -1.3451    -2.0840    -0.0016 C.2     
  12 Cl12          -3.3999    -3.9150     0.0132 Cl      
  13 C13            1.1206     3.5904    -0.0087 C.3     
  14 N14            3.5695     2.1292     0.0132 N.pl3   
  15 C15            1.5302     4.1852    -1.3403 C.3     
  16 C16            3.8602     3.0183    -1.0272 C.2     
  17 C17            2.9771     3.8970    -1.6593 C.2     
  18 C18            3.6596     4.5132    -2.6614 C.2     
  19 N19            5.0431     3.1414    -1.5922 N.2     
  20 N20            4.9319     4.0704    -2.6332 N.pl3   
  21 C21            6.0095     4.4876    -3.5338 C.3     
  22 C22            7.1767     4.9882    -2.7225 C.ar    
  23 C23            8.3258     6.7832    -1.6316 C.ar    
  24 C24            7.2552     6.3240    -2.3758 C.ar    
  25 C25            8.1659     4.1104    -2.3202 C.ar    
  26 C26            9.2366     4.5696    -1.5760 C.ar    
  27 C27            9.3182     5.9066    -1.2346 C.ar    
  28 H28           -0.9595     1.9089     0.0170 H       
  29 H29            1.2228    -1.7678    -0.0214 H       
  30 H30            3.3412    -0.5038    -0.0276 H       
  31 H31           -2.6957     0.8618     0.0325 H       
  32 H32           -0.5480    -2.8126    -0.0184 H       
  33 H33            0.1024     3.9060     0.2187 H       
  34 H34            1.7856     3.9721     0.7660 H       
  35 H35            4.1972     2.0115     0.7433 H       
  36 H36            0.9024     3.7645    -2.1257 H       
  37 H37            1.3815     5.2646    -1.3082 H       
  38 H38            3.2531     5.2317    -3.3579 H       
  39 H39            6.3257     3.6385    -4.1397 H       
  40 H40            5.6508     5.2850    -4.1846 H       
  41 H41            8.3873     7.8269    -1.3610 H       
  42 H42            6.4802     7.0090    -2.6866 H       
  43 H43            8.1021     3.0658    -2.5870 H       
  44 H44           10.0091     3.8837    -1.2611 H       
  45 H45           10.1546     6.2654    -0.6531 H       
@<TRIPOS>BOND
   1    1    2 ar
   2    1    6 ar
   3    1   28 1
   4    2    3 ar
   5    2    7 1
   6    3    4 ar
   7    3   29 1
   8    4    5 ar
   9    4   30 1
  10    5    6 ar
  11    5   14 1
  12    6   13 1
  13    7    8 1
  14    7   11 1
  15    8    9 2
  16    8   31 1
  17    9   10 1
  18   10   11 2
  19   10   12 1
  20   11   32 1
  21   13   15 1
  22   13   33 1
  23   13   34 1
  24   14   16 1
  25   14   35 1
  26   15   17 1
  27   15   36 1
  28   15   37 1
  29   16   19 2
  30   16   17 1
  31   17   18 2
  32   18   20 1
  33   18   38 1
  34   19   20 1
  35   20   21 1
  36   21   22 1
  37   21   39 1
  38   21   40 1
  39   22   25 ar
  40   22   24 ar
  41   23   24 ar
  42   23   27 ar
  43   23   41 1
  44   24   42 1
  45   25   26 ar
  46   25   43 1
  47   26   27 ar
  48   26   44 1
  49   27   45 1

#	End of record

