#	Name: ASD11000271
#	Creating user name:	WinNT
#	Creation time:	15. 06. 2019 21:29

#	Modifying user name:	WinNT
#	Modification time:	15. 06. 2019 21:29

#	Program:	/corina/corina34_cracker 3.40 0067  02.08.2006

@<TRIPOS>MOLECULE
ASD11000271
  40   42    0    0    0
SMALL
NO_CHARGES


@<TRIPOS>ATOM
   1 C1            -0.0162     1.3201     0.0177 C.ar    
   2 N2             0.0010    -0.0048     0.0230 N.ar    
   3 C3             1.1465    -0.6660     0.0169 C.ar    
   4 C4             2.3370     0.0439     0.0047 C.ar    
   5 C5             2.2826     1.4290    -0.0006 C.ar    
   6 N6             1.1036     2.0284     0.0061 N.ar    
   7 N7            -1.2337     1.9804     0.0186 N.pl3   
   8 C8            -1.2735     3.3756     0.1321 C.ar    
   9 C9            -2.2517     4.0994    -0.5369 C.ar    
  10 C10           -2.2906     5.4752    -0.4241 C.ar    
  11 C11           -1.3529     6.1341     0.3572 C.ar    
  12 C12           -0.3751     5.4119     1.0254 C.ar    
  13 C13           -0.3384     4.0356     0.9183 C.ar    
  14 O14           -1.3918     7.4889     0.4678 O.3     
  15 C15           -0.3956     8.1018     1.2888 C.3     
  16 F16           -0.5042     7.6147     2.5957 F       
  17 F17            0.8741     7.8022     0.7834 F       
  18 C18            3.6617    -0.6745    -0.0022 C.3     
  19 O19            4.0703    -0.9076    -1.3515 O.3     
  20 C20            7.5866    -2.8182    -1.8989 C.ar    
  21 N21            6.8830    -2.4461    -2.9573 N.ar    
  22 C22            5.7269    -1.8185    -2.8156 C.ar    
  23 C23            5.2543    -1.5513    -1.5359 C.ar    
  24 C24            6.0202    -1.9568    -0.4489 C.ar    
  25 N25            7.1669    -2.5800    -0.6657 N.ar    
  26 N26            8.7909    -3.4790    -2.0868 N.pl3   
  27 H27            1.1542    -1.7460     0.0216 H       
  28 H28            3.1919     2.0116    -0.0097 H       
  29 H29           -2.0588     1.4764    -0.0594 H       
  30 H30           -2.9817     3.5865    -1.1456 H       
  31 H31           -3.0511     6.0382    -0.9447 H       
  32 H32            0.3549     5.9258     1.6333 H       
  33 H33            0.4200     3.4731     1.4424 H       
  34 H34           -0.5404     9.1821     1.2905 H       
  35 H35            4.4093    -0.0631     0.5033 H       
  36 H36            3.5608    -1.6278     0.5167 H       
  37 H37            5.1581    -1.5174    -3.6829 H       
  38 H38            5.6834    -1.7659     0.5593 H       
  39 H39            9.1081    -3.6632    -2.9847 H       
  40 H40            9.3163    -3.7571    -1.3202 H       
@<TRIPOS>BOND
   1    1    2 ar
   2    1    6 ar
   3    1    7 1
   4    2    3 ar
   5    3    4 ar
   6    3   27 1
   7    4    5 ar
   8    4   18 1
   9    5    6 ar
  10    5   28 1
  11    7    8 1
  12    7   29 1
  13    8    9 ar
  14    8   13 ar
  15    9   10 ar
  16    9   30 1
  17   10   11 ar
  18   10   31 1
  19   11   12 ar
  20   11   14 1
  21   12   13 ar
  22   12   32 1
  23   13   33 1
  24   14   15 1
  25   15   16 1
  26   15   17 1
  27   15   34 1
  28   18   19 1
  29   18   35 1
  30   18   36 1
  31   19   23 1
  32   20   21 ar
  33   20   25 ar
  34   20   26 1
  35   21   22 ar
  36   22   23 ar
  37   22   37 1
  38   23   24 ar
  39   24   25 ar
  40   24   38 1
  41   26   39 1
  42   26   40 1

#	End of record

