#	Name: ASD10160506
#	Creating user name:	WinNT
#	Creation time:	15. 06. 2019 21:26

#	Modifying user name:	WinNT
#	Modification time:	15. 06. 2019 21:26

#	Program:	/corina/corina34_cracker 3.40 0067  02.08.2006

@<TRIPOS>MOLECULE
ASD10160506
  15   15    0    0    0
SMALL
NO_CHARGES


@<TRIPOS>ATOM
   1 C1            -0.0168     1.3844     0.0097 C.ar    
   2 C2             0.0021    -0.0041     0.0020 C.ar    
   3 C3             1.2265    -0.6625    -0.0133 C.ar    
   4 C4             2.3845     0.0996    -0.0203 C.ar    
   5 C5             2.2857     1.4778    -0.0119 C.ar    
   6 N6             1.1083     2.0723     0.0026 N.ar    
   7 O7            -1.1599    -0.7094     0.0098 O.3     
   8 C8            -1.0539    -2.1344     0.0011 C.3     
   9 F9            -0.3730    -2.5444    -1.1502 F       
  10 F10           -0.3502    -2.5566     1.1342 F       
  11 Br11          -2.8536    -2.9255     0.0148 Br      
  12 Br12          -1.6724     2.2980     0.0224 Br      
  13 H13            1.2744    -1.7414    -0.0192 H       
  14 H14            3.3529    -0.3785    -0.0318 H       
  15 H15            3.1846     2.0763    -0.0173 H       
@<TRIPOS>BOND
   1    1    2 ar
   2    1    6 ar
   3    1   12 1
   4    2    3 ar
   5    2    7 1
   6    3    4 ar
   7    3   13 1
   8    4    5 ar
   9    4   14 1
  10    5    6 ar
  11    5   15 1
  12    7    8 1
  13    8    9 1
  14    8   10 1
  15    8   11 1

#	End of record

