#	Name: ASD11920004
#	Creating user name:	WinNT
#	Creation time:	15. 06. 2019 21:29

#	Modifying user name:	WinNT
#	Modification time:	15. 06. 2019 21:29

#	Program:	/corina/corina34_cracker 3.40 0067  02.08.2006

@<TRIPOS>MOLECULE
ASD11920004
  19   20    0    0    0
SMALL
NO_CHARGES


@<TRIPOS>ATOM
   1 O1             0.0021    -0.0041     0.0020 O.2     
   2 C2            -0.0144     1.2109     0.0087 C.2     
   3 O3             1.1433     1.9005     0.0013 O.3     
   4 C4            -1.3011     1.9307     0.0187 C.ar    
   5 C5            -1.3162     3.3332     0.0264 C.ar    
   6 C6            -2.4987     4.0092     0.0352 C.ar    
   7 C7            -3.7068     3.3038     0.0367 C.ar    
   8 C8            -5.1133     3.7042     0.0450 C.2     
   9 C9            -5.8442     2.5756     0.0420 C.2     
  10 N10           -5.0209     1.4863     0.0325 N.pl3   
  11 C11           -3.7043     1.8945     0.0290 C.ar    
  12 C12           -2.4966     1.2141     0.0147 C.ar    
  13 H13            1.9614     1.3850    -0.0092 H       
  14 H14           -0.3850     3.8802     0.0257 H       
  15 H15           -2.5036     5.0891     0.0415 H       
  16 H16           -5.4931     4.7152     0.0521 H       
  17 H17           -6.9235     2.5364     0.0471 H       
  18 H18           -5.3181     0.5630     0.0293 H       
  19 H19           -2.4821     0.1342     0.0046 H       
@<TRIPOS>BOND
   1    1    2 2
   2    2    3 1
   3    2    4 1
   4    3   13 1
   5    4    5 ar
   6    4   12 ar
   7    5    6 ar
   8    5   14 1
   9    6    7 ar
  10    6   15 1
  11    7    8 1
  12    7   11 ar
  13    8    9 2
  14    8   16 1
  15    9   10 1
  16    9   17 1
  17   10   11 1
  18   10   18 1
  19   11   12 ar
  20   12   19 1

#	End of record

