#	Name: ASD10010004
#	Creating user name:	WinNT
#	Creation time:	15. 06. 2019 21:24

#	Modifying user name:	WinNT
#	Modification time:	15. 06. 2019 21:24

#	Program:	/corina/corina34_cracker 3.40 0067  02.08.2006

@<TRIPOS>MOLECULE
ASD10010004
  47   50    0    0    0
SMALL
NO_CHARGES


@<TRIPOS>ATOM
   1 C1            -0.0184     1.5054     0.0103 C.3     
   2 C2             0.0021    -0.0041     0.0020 C.2     
   3 C3            -0.2213    -0.6982     1.1330 C.2     
   4 O4            -0.4541    -0.0749     2.3033 O.3     
   5 C5            -0.9012     1.1906     2.3080 C.2     
   6 C6            -0.7236     2.0056     1.2400 C.2     
   7 C7             0.2626    -0.6571    -1.2181 C.2     
   8 C8             0.3165    -2.1582    -1.3030 C.3     
   9 C9             0.7508    -2.7166     0.0564 C.3     
  10 C10           -0.2223    -2.2089     1.1222 C.3     
  11 N11           -1.5522     1.6693     3.4178 N.pl3   
  12 O12            0.4467     0.0038    -2.2205 O.2     
  13 C13            0.7196    -4.2228     0.0184 C.ar    
  14 C14            1.8842    -4.9510     0.2518 C.ar    
  15 C15           -0.4641    -4.8836    -0.2419 C.ar    
  16 C16           -0.4943    -6.2658    -0.2761 C.ar    
  17 C17            0.6602    -6.9938    -0.0498 C.ar    
  18 C18            1.8481    -6.3436     0.2156 C.ar    
  19 C19            3.1585    -4.2463     0.5372 C.ar    
  20 C20            3.9294    -4.6139     1.6381 C.ar    
  21 C21            3.5913    -3.2184    -0.2980 C.ar    
  22 C22            4.7776    -2.5666    -0.0280 C.ar    
  23 C23            5.5366    -2.9324     1.0689 C.ar    
  24 C24            5.1141    -3.9554     1.8986 C.ar    
  25 C25            1.4180     2.0324    -0.0006 C.3     
  26 C26           -1.2106     3.3516     1.2830 C.1     
  27 N27           -1.5970     4.4193     1.3172 N.1     
  28 H28           -0.5419     1.8647    -0.8757 H       
  29 H29           -0.6700    -2.5451    -1.5584 H       
  30 H30            1.0358    -2.4550    -2.0663 H       
  31 H31            1.7593    -2.3739     0.2879 H       
  32 H32            0.0855    -2.5791     2.1002 H       
  33 H33           -1.2263    -2.5692     0.8980 H       
  34 H34           -1.6850     1.0944     4.1877 H       
  35 H35           -1.8794     2.5823     3.4319 H       
  36 H36           -1.3683    -4.3202    -0.4189 H       
  37 H37           -1.4226    -6.7788    -0.4798 H       
  38 H38            0.6309    -8.0731    -0.0773 H       
  39 H39            2.7488    -6.9129     0.3918 H       
  40 H40            3.6004    -5.4125     2.2865 H       
  41 H41            2.9998    -2.9324    -1.1551 H       
  42 H42            5.1141    -1.7697    -0.6747 H       
  43 H43            6.4646    -2.4203     1.2761 H       
  44 H44            5.7104    -4.2368     2.7540 H       
  45 H45            1.9275     1.6799    -0.8974 H       
  46 H46            1.4052     3.1223     0.0054 H       
  47 H47            1.9445     1.6703     0.8825 H       
@<TRIPOS>BOND
   1    1    2 1
   2    1   25 1
   3    1    6 1
   4    1   28 1
   5    2    3 2
   6    2    7 1
   7    3    4 1
   8    3   10 1
   9    4    5 1
  10    5    6 2
  11    5   11 1
  12    6   26 1
  13    7    8 1
  14    7   12 2
  15    8    9 1
  16    8   29 1
  17    8   30 1
  18    9   10 1
  19    9   13 1
  20    9   31 1
  21   10   32 1
  22   10   33 1
  23   11   34 1
  24   11   35 1
  25   13   14 ar
  26   13   15 ar
  27   14   19 1
  28   14   18 ar
  29   15   16 ar
  30   15   36 1
  31   16   17 ar
  32   16   37 1
  33   17   18 ar
  34   17   38 1
  35   18   39 1
  36   19   20 ar
  37   19   21 ar
  38   20   24 ar
  39   20   40 1
  40   21   22 ar
  41   21   41 1
  42   22   23 ar
  43   22   42 1
  44   23   24 ar
  45   23   43 1
  46   24   44 1
  47   25   45 1
  48   25   46 1
  49   25   47 1
  50   26   27 3

#	End of record

