#	Name: ASD13490049
#	Creating user name:	WinNT
#	Creation time:	15. 06. 2019 21:30

#	Modifying user name:	WinNT
#	Modification time:	15. 06. 2019 21:30

#	Program:	/corina/corina34_cracker 3.40 0067  02.08.2006

@<TRIPOS>MOLECULE
ASD13490049
  48   51    0    0    0
SMALL
NO_CHARGES


@<TRIPOS>ATOM
   1 C1            -0.0159     1.3749     0.0954 C.ar    
   2 C2             0.0030    -0.0037     0.1143 C.ar    
   3 C3             1.2144    -0.6833     0.0952 C.ar    
   4 C4             2.4097     0.0234     0.0564 C.ar    
   5 C5             2.3966     1.4021     0.0368 C.ar    
   6 C6             1.1822     2.0868     0.0565 C.ar    
   7 N7             1.2307    -2.0852     0.1155 N.pl3   
   8 C8             2.3422    -2.8876     0.1006 C.2     
   9 C9             1.9045    -4.1608     0.1299 C.2     
  10 N10            0.5638    -4.1422     0.1619 N.2     
  11 C11            0.1484    -2.9047     0.1596 C.2     
  12 C12            1.1650     3.5696     0.0360 C.2     
  13 N13            0.0320     4.2695     0.0539 N.2     
  14 C14            0.1412     5.5621     0.0334 C.2     
  15 S15            1.8446     6.0057    -0.0141 S.3     
  16 C16            2.2920     4.3016     0.0037 C.2     
  17 N17           -0.9185     6.4552     0.0465 N.pl3   
  18 C18           -0.6744     7.8297     0.1577 C.ar    
  19 C19           -0.1911    10.5479     0.3768 C.ar    
  20 C20            0.6245     9.6417     1.0423 C.ar    
  21 C21            0.3836     8.2867     0.9331 C.ar    
  22 C22           -1.4865     8.7355    -0.5118 C.ar    
  23 C23           -1.2455    10.0909    -0.4025 C.ar    
  24 C24           -2.6305     8.2394    -1.3580 C.3     
  25 N25            0.0529    11.9216     0.4880 N.pl3   
  26 C26            1.1685    12.4036     1.3061 C.3     
  27 C27            1.2130    13.9322     1.2581 C.3     
  28 H28           -0.9581     1.9027     0.1061 H       
  29 H29           -0.9248    -0.5557     0.1445 H       
  30 H30            3.3501    -0.5075     0.0420 H       
  31 H31            3.3262     1.9510     0.0071 H       
  32 H32            3.3712    -2.5613     0.0706 H       
  33 H33            2.5257    -5.0443     0.1276 H       
  34 H34           -0.8832    -2.5859     0.1856 H       
  35 H35            3.2991     3.9119    -0.0104 H       
  36 H36           -1.8292     6.1283    -0.0214 H       
  37 H37            1.4448     9.9972     1.6482 H       
  38 H38            1.0175     7.5821     1.4508 H       
  39 H39           -1.8796    10.7955    -0.9200 H       
  40 H40           -3.5293     8.1644    -0.7460 H       
  41 H41           -2.8058     8.9370    -2.1770 H       
  42 H42           -2.3839     7.2580    -1.7632 H       
  43 H43           -0.5166    12.5545     0.0232 H       
  44 H44            1.0311    12.0763     2.3367 H       
  45 H45            2.1041    12.0005     0.9185 H       
  46 H46            2.0430    14.2908     1.8668 H       
  47 H47            1.3503    14.2594     0.2275 H       
  48 H48            0.2774    14.3353     1.6457 H       
@<TRIPOS>BOND
   1    1    2 ar
   2    1    6 ar
   3    1   28 1
   4    2    3 ar
   5    2   29 1
   6    3    4 ar
   7    3    7 1
   8    4    5 ar
   9    4   30 1
  10    5    6 ar
  11    5   31 1
  12    6   12 1
  13    7    8 1
  14    7   11 1
  15    8    9 2
  16    8   32 1
  17    9   10 1
  18    9   33 1
  19   10   11 2
  20   11   34 1
  21   12   13 1
  22   12   16 2
  23   13   14 2
  24   14   15 1
  25   14   17 1
  26   15   16 1
  27   16   35 1
  28   17   18 1
  29   17   36 1
  30   18   22 ar
  31   18   21 ar
  32   19   20 ar
  33   19   23 ar
  34   19   25 1
  35   20   21 ar
  36   20   37 1
  37   21   38 1
  38   22   23 ar
  39   22   24 1
  40   23   39 1
  41   24   40 1
  42   24   41 1
  43   24   42 1
  44   25   26 1
  45   25   43 1
  46   26   27 1
  47   26   44 1
  48   26   45 1
  49   27   46 1
  50   27   47 1
  51   27   48 1

#	End of record

