#	Name: ASD10420183
#	Creating user name:	WinNT
#	Creation time:	15. 06. 2019 21:27

#	Modifying user name:	WinNT
#	Modification time:	15. 06. 2019 21:27

#	Program:	/corina/corina34_cracker 3.40 0067  02.08.2006

@<TRIPOS>MOLECULE
ASD10420183
  30   31    0    0    0
SMALL
NO_CHARGES


@<TRIPOS>ATOM
   1 C1            -0.0066     1.3646     0.3256 C.ar    
   2 C2             0.7804     1.5572    -0.7949 C.ar    
   3 C3             0.4083     0.5042     1.3254 C.ar    
   4 C4             1.9837     0.8901    -0.9181 C.ar    
   5 C5             1.6107    -0.1654     1.2071 C.ar    
   6 C6             5.7343     1.8115     1.5857 C.ar    
   7 C7             7.0916     0.0105     0.7098 C.ar    
   8 C8             4.6023     1.1881     1.1085 C.ar    
   9 C9             5.9527    -0.6092     0.2340 C.ar    
  10 C10            7.3593    -2.3378    -0.5964 C.3     
  11 C11            8.2018     1.8937     1.8999 C.2     
  12 C12            6.9889     1.2274     1.3901 C.ar    
  13 C13            4.7041    -0.0209     0.4327 C.ar    
  14 O14            9.2918     1.3847     1.7292 O.2     
  15 O15            8.1012     3.0669     2.5550 O.3     
  16 O16            6.0489    -1.7929    -0.4286 O.3     
  17 O17            3.5855    -0.6316    -0.0353 O.3     
  18 C18            2.4025     0.0261     0.0837 C.ar    
  19 H19           -0.9450     1.8905     0.4221 H       
  20 H20            0.4539     2.2294    -1.5745 H       
  21 H21           -0.2082     0.3558     2.1996 H       
  22 H22            2.5979     1.0406    -1.7936 H       
  23 H23            1.9345    -0.8370     1.9884 H       
  24 H24            5.6527     2.7538     2.1070 H       
  25 H25            8.0592    -0.4442     0.5570 H       
  26 H26            3.6335     1.6403     1.2607 H       
  27 H27            7.8082    -2.5121     0.3814 H       
  28 H28            7.2940    -3.2805    -1.1395 H       
  29 H29            7.9752    -1.6362    -1.1591 H       
  30 H30            8.9238     3.4655     2.8705 H       
@<TRIPOS>BOND
   1    1    2 ar
   2    1    3 ar
   3    1   19 1
   4    2    4 ar
   5    2   20 1
   6    3    5 ar
   7    3   21 1
   8    4   18 ar
   9    4   22 1
  10    5   18 ar
  11    5   23 1
  12    6    8 ar
  13    6   12 ar
  14    6   24 1
  15    7    9 ar
  16    7   12 ar
  17    7   25 1
  18    8   13 ar
  19    8   26 1
  20    9   13 ar
  21    9   16 1
  22   10   16 1
  23   10   27 1
  24   10   28 1
  25   10   29 1
  26   11   12 1
  27   11   14 2
  28   11   15 1
  29   13   17 1
  30   15   30 1
  31   17   18 1

#	End of record

