#	Name: ASD14640005
#	Creating user name:	WinNT
#	Creation time:	15. 06. 2019 21:31

#	Modifying user name:	WinNT
#	Modification time:	15. 06. 2019 21:31

#	Program:	/corina/corina34_cracker 3.40 0067  02.08.2006

@<TRIPOS>MOLECULE
ASD14640005
 102  104    0    0    0
SMALL
NO_CHARGES


@<TRIPOS>ATOM
   1 C1            -0.3709     1.6043    -0.8186 C.ar    
   2 C2            -0.2691     0.2276    -0.7480 C.ar    
   3 C3             0.9668    -0.3809    -0.8633 C.ar    
   4 C4             2.1008     0.3874    -1.0497 C.ar    
   5 C5             1.9988     1.7641    -1.1212 C.ar    
   6 C6             0.7632     2.3727    -1.0045 C.ar    
   7 C7            -1.5053    -0.6100    -0.5448 C.3     
   8 C8            -2.1000    -0.9798    -1.9051 C.3     
   9 N9            -2.5615     0.2344    -2.5827 N.am    
  10 C10           -3.2631    -1.9173    -1.7068 C.2     
  11 O11           -4.3687    -1.6023    -2.0933 O.2     
  12 N12           -3.0747    -3.1058    -1.0999 N.am    
  13 C13           -1.6966     0.9725    -3.3062 C.2     
  14 C14           -2.1713     2.2215    -4.0032 C.3     
  15 O15           -0.5362     0.6315    -3.3965 O.2     
  16 N16           -1.0227     3.0801    -4.3028 N.am    
  17 C17           -0.0288     2.6251    -5.0912 C.2     
  18 C18            1.1527     3.5083    -5.3994 C.3     
  19 O19           -0.0852     1.5049    -5.5526 O.2     
  20 C20           -2.8776     1.8413    -5.3061 C.3     
  21 C21           -3.4681     3.0968    -5.9512 C.3     
  22 C22           -4.1743     2.7166    -7.2541 C.3     
  23 C23           -4.7648     3.9720    -7.8992 C.3     
  24 N24           -5.4429     3.6071    -9.1502 N.3     
  25 C25            0.7853     4.5064    -6.5149 C.3     
  26 C26            1.7673     4.1855    -7.6770 C.3     
  27 N27            2.2793     2.6869    -5.9043 N.3     
  28 C28            1.0621     3.1694    -8.5781 C.3     
  29 C29            2.0583     2.4934    -9.5165 C.3     
  30 C30            3.0832     1.7282    -8.6719 C.3     
  31 C31            3.8586     2.7383    -7.8265 C.3     
  32 C32            2.9374     3.5256    -6.9249 C.3     
  33 H33            2.0768     5.0801    -8.2175 H       
  34 H34            3.5126     4.2980    -6.4143 H       
  35 C35           -6.2213     4.7365    -9.6759 C.3     
  36 C36           -4.4807     3.1209   -10.1481 C.3     
  37 C37           -5.2682     5.8208   -10.1827 C.3     
  38 C38           -7.1045     4.2545   -10.8286 C.3     
  39 C39           -4.2054    -4.0172    -0.9070 C.3     
  40 C40           -3.6899    -5.4538    -0.7998 C.3     
  41 C41           -4.9364    -3.6500     0.3586 C.2     
  42 N42           -4.2472    -3.5768     1.5625 N.pl3   
  43 C43           -6.2315    -3.3980     0.3232 C.2     
  44 C44           -3.0424    -5.8635    -2.1241 C.3     
  45 C45           -2.3999    -7.2437    -1.9721 C.3     
  46 C46           -4.1097    -5.9155    -3.2191 C.3     
  47 H47           -1.3370     2.0794    -0.7330 H       
  48 H48            1.0464    -1.4565    -0.8074 H       
  49 H49            3.0664    -0.0879    -1.1390 H       
  50 H50            2.8848     2.3644    -1.2664 H       
  51 H51            0.6836     3.4483    -1.0599 H       
  52 H52           -1.2433    -1.5191    -0.0036 H       
  53 H53           -2.2377    -0.0432     0.0300 H       
  54 H54           -1.3391    -1.4685    -2.5136 H       
  55 H55           -3.4896     0.5071    -2.5105 H       
  56 H56           -2.1905    -3.3578    -0.7907 H       
  57 H57           -2.8661     2.7568    -3.3561 H       
  58 H58           -0.9776     3.9760    -3.9338 H       
  59 H59            1.4560     4.0487    -4.5027 H       
  60 H60           -2.1603     1.3853    -5.9885 H       
  61 H61           -3.6773     1.1322    -5.0924 H       
  62 H62           -4.1853     3.5528    -5.2688 H       
  63 H63           -2.6683     3.8059    -6.1649 H       
  64 H64           -3.4571     2.2605    -7.9365 H       
  65 H65           -4.9740     2.0075    -7.0404 H       
  66 H66           -5.4821     4.4281    -7.2168 H       
  67 H67           -3.9651     4.6812    -8.1129 H       
  68 H68           -0.2451     4.3537    -6.8360 H       
  69 H69            0.9280     5.5303    -6.1696 H       
  70 H70            2.9193     2.4544    -5.1598 H       
  71 H71            0.5828     2.4120    -7.9579 H       
  72 H72            0.3026     3.6808    -9.1695 H       
  73 H73            1.5314     1.7987   -10.1707 H       
  74 H74            2.5680     3.2486   -10.1148 H       
  75 H75            2.5684     1.0221    -8.0203 H       
  76 H76            3.7707     1.1916    -9.3256 H       
  77 H77            4.5872     2.2064    -7.2147 H       
  78 H78            4.3848     3.4270    -8.4875 H       
  79 H79           -6.8487     5.1454    -8.8839 H       
  80 H80           -3.9672     2.2415    -9.7594 H       
  81 H81           -5.0092     2.8578   -11.0643 H       
  82 H82           -3.7517     3.9028   -10.3610 H       
  83 H83           -5.8458     6.6588   -10.5728 H       
  84 H84           -4.6390     6.1642    -9.3615 H       
  85 H85           -4.6409     5.4119   -10.9747 H       
  86 H86           -7.7835     3.4820   -10.4676 H       
  87 H87           -7.6821     5.0926   -11.2187 H       
  88 H88           -6.4772     3.8456   -11.6206 H       
  89 H89           -4.8851    -3.9375    -1.7554 H       
  90 H90           -2.9521    -5.5163     0.0001 H       
  91 H91           -4.5219    -6.1228    -0.5798 H       
  92 H92           -3.2954    -3.7620     1.5885 H       
  93 H93           -4.7177    -3.3404     2.3771 H       
  94 H94           -6.7673    -3.4549    -0.6127 H       
  95 H95           -6.7554    -3.1348     1.2302 H       
  96 H96           -2.2784    -5.1350    -2.3957 H       
  97 H97           -2.0160    -7.5740    -2.9373 H       
  98 H98           -1.5806    -7.1862    -1.2556 H       
  99 H99           -3.1455    -7.9543    -1.6153 H       
 100 H100          -4.5675    -4.9322    -3.3273 H       
 101 H101          -3.6484    -6.2074    -4.1625 H       
 102 H102          -4.8737    -6.6440    -2.9475 H       
@<TRIPOS>BOND
   1    1    2 ar
   2    1    6 ar
   3    1   47 1
   4    2    3 ar
   5    2    7 1
   6    3    4 ar
   7    3   48 1
   8    4    5 ar
   9    4   49 1
  10    5    6 ar
  11    5   50 1
  12    6   51 1
  13    7    8 1
  14    7   52 1
  15    7   53 1
  16    8    9 1
  17    8   10 1
  18    8   54 1
  19    9   13 am
  20    9   55 1
  21   10   11 2
  22   10   12 am
  23   12   39 1
  24   12   56 1
  25   13   14 1
  26   13   15 2
  27   14   16 1
  28   14   20 1
  29   14   57 1
  30   16   17 am
  31   16   58 1
  32   17   19 2
  33   17   18 1
  34   18   25 1
  35   18   27 1
  36   18   59 1
  37   20   21 1
  38   20   60 1
  39   20   61 1
  40   21   22 1
  41   21   62 1
  42   21   63 1
  43   22   23 1
  44   22   64 1
  45   22   65 1
  46   23   24 1
  47   23   66 1
  48   23   67 1
  49   24   35 1
  50   24   36 1
  51   25   26 1
  52   25   68 1
  53   25   69 1
  54   26   32 1
  55   26   33 1
  56   26   28 1
  57   27   32 1
  58   27   70 1
  59   28   29 1
  60   28   71 1
  61   28   72 1
  62   29   30 1
  63   29   73 1
  64   29   74 1
  65   30   31 1
  66   30   75 1
  67   30   76 1
  68   31   32 1
  69   31   77 1
  70   31   78 1
  71   32   34 1
  72   35   37 1
  73   35   38 1
  74   35   79 1
  75   36   80 1
  76   36   81 1
  77   36   82 1
  78   37   83 1
  79   37   84 1
  80   37   85 1
  81   38   86 1
  82   38   87 1
  83   38   88 1
  84   39   40 1
  85   39   41 1
  86   39   89 1
  87   40   44 1
  88   40   90 1
  89   40   91 1
  90   41   42 1
  91   41   43 2
  92   42   92 1
  93   42   93 1
  94   43   94 1
  95   43   95 1
  96   44   45 1
  97   44   46 1
  98   44   96 1
  99   45   97 1
 100   45   98 1
 101   45   99 1
 102   46  100 1
 103   46  101 1
 104   46  102 1

#	End of record

