#	Name: ASD11000325
#	Creating user name:	WinNT
#	Creation time:	15. 06. 2019 21:29

#	Modifying user name:	WinNT
#	Modification time:	15. 06. 2019 21:29

#	Program:	/corina/corina34_cracker 3.40 0067  02.08.2006

@<TRIPOS>MOLECULE
ASD11000325
  45   48    0    0    0
SMALL
NO_CHARGES


@<TRIPOS>ATOM
   1 C1            -0.0342     1.3773     0.1720 C.ar    
   2 C2             0.0103     0.0022    -0.0580 C.ar    
   3 C3             1.2259    -0.6431     0.1024 C.ar    
   4 C4             2.3235     0.1175     0.4817 C.ar    
   5 N5             2.1910     1.4141     0.6783 N.ar    
   6 N6             1.0683     2.0185     0.5316 N.ar    
   7 N7            -1.2289     2.0731     0.0192 N.pl3   
   8 C8            -1.2458     3.4683     0.1325 C.ar    
   9 C9            -0.1459     4.2119    -0.2750 C.ar    
  10 C10           -0.1634     5.5881    -0.1628 C.ar    
  11 C11           -1.2791     6.2279     0.3567 C.ar    
  12 C12           -2.3780     5.4860     0.7644 C.ar    
  13 C13           -2.3646     4.1101     0.6472 C.ar    
  14 O14           -1.2955     7.5833     0.4669 O.3     
  15 C15           -2.4768     8.1758     1.0105 C.3     
  16 F16           -3.5742     7.8507     0.2059 F       
  17 F17           -2.6882     7.6908     2.3056 F       
  18 C18            3.6668    -0.5394     0.6693 C.3     
  19 C19            4.7065     0.1679    -0.2022 C.3     
  20 N20            9.6568    -2.4456     0.2971 N.pl3   
  21 N21            9.5099    -3.3858    -0.7280 N.2     
  22 C22            8.3522    -3.2396    -1.3066 C.2     
  23 C23            7.6597    -2.1381    -0.6459 C.ar    
  24 C24            6.4123    -1.5284    -0.8212 C.ar    
  25 C25            6.0498    -0.4890    -0.0146 C.ar    
  26 C26            6.9077    -0.0303     0.9777 C.ar    
  27 C27            8.1305    -0.6085     1.1676 C.ar    
  28 C28            8.5278    -1.6715     0.3600 C.ar    
  29 H29           -0.8749    -0.5424    -0.3515 H       
  30 H30            1.3168    -1.7066    -0.0624 H       
  31 H31           -2.0503     1.5916    -0.1660 H       
  32 H32            0.7230     3.7139    -0.6792 H       
  33 H33            0.6920     6.1665    -0.4794 H       
  34 H34           -3.2460     5.9849     1.1695 H       
  35 H35           -3.2221     3.5329     0.9602 H       
  36 H36           -2.3582     9.2588     1.0429 H       
  37 H37            3.9622    -0.4698     1.7162 H       
  38 H38            3.6021    -1.5880     0.3789 H       
  39 H39            4.4111     0.0983    -1.2491 H       
  40 H40            4.7712     1.2165     0.0882 H       
  41 H41           10.4318    -2.3583     0.8738 H       
  42 H42            7.9727    -3.8281    -2.1288 H       
  43 H43            5.7404    -1.8783    -1.5910 H       
  44 H44            6.6039     0.7937     1.6063 H       
  45 H45            8.7881    -0.2419     1.9420 H       
@<TRIPOS>BOND
   1    1    2 ar
   2    1    6 ar
   3    1    7 1
   4    2    3 ar
   5    2   29 1
   6    3    4 ar
   7    3   30 1
   8    4    5 ar
   9    4   18 1
  10    5    6 ar
  11    7    8 1
  12    7   31 1
  13    8    9 ar
  14    8   13 ar
  15    9   10 ar
  16    9   32 1
  17   10   11 ar
  18   10   33 1
  19   11   12 ar
  20   11   14 1
  21   12   13 ar
  22   12   34 1
  23   13   35 1
  24   14   15 1
  25   15   16 1
  26   15   17 1
  27   15   36 1
  28   18   19 1
  29   18   37 1
  30   18   38 1
  31   19   25 1
  32   19   39 1
  33   19   40 1
  34   20   21 1
  35   20   28 1
  36   20   41 1
  37   21   22 2
  38   22   23 1
  39   22   42 1
  40   23   24 ar
  41   23   28 ar
  42   24   25 ar
  43   24   43 1
  44   25   26 ar
  45   26   27 ar
  46   26   44 1
  47   27   28 ar
  48   27   45 1

#	End of record

