#	Name: ASD14880001
#	Creating user name:	WinNT
#	Creation time:	15. 06. 2019 21:31

#	Modifying user name:	WinNT
#	Modification time:	15. 06. 2019 21:31

#	Program:	/corina/corina34_cracker 3.40 0067  02.08.2006

@<TRIPOS>MOLECULE
ASD14880001
  40   42    0    0    0
SMALL
NO_CHARGES


@<TRIPOS>ATOM
   1 C1            -0.0162     1.3448     0.0094 C.2     
   2 N2             0.0021    -0.0041     0.0020 N.am    
   3 C3             1.1634    -0.6807    -0.0123 C.2     
   4 N4             2.3504    -0.0453    -0.0202 N.am    
   5 C5             1.2000     2.0496     0.0016 C.2     
   6 N6             1.5437     3.3952     0.0051 N.pl3   
   7 C7             2.3962     1.3397    -0.0131 C.2     
   8 N8             3.3914     2.2274    -0.0184 N.2     
   9 C9             2.9028     3.4519    -0.0078 C.2     
  10 C10            3.5945    -0.8187    -0.0357 C.3     
  11 S11            3.8607     4.9308    -0.0097 S.3     
  12 C12            0.6211     4.5331     0.0194 C.3     
  13 C13            0.3135     4.9221     1.4668 C.3     
  14 C14           -0.5490     6.1857     1.4831 C.3     
  15 O15           -0.7393     6.6152     2.8326 O.3     
  16 O16           -0.3910     3.8563     2.1070 O.3     
  17 C17           -1.4886     7.7329     3.0246 C.ar    
  18 C18           -3.0138    10.0081     3.4155 C.ar    
  19 C19           -2.7952     9.5345     2.1339 C.ar    
  20 C20           -2.0340     8.3987     1.9367 C.ar    
  21 C21           -1.7136     8.2059     4.3091 C.ar    
  22 C22           -2.4754     9.3421     4.5023 C.ar    
  23 Cl23          -3.9708    11.4356     3.6607 Cl      
  24 O24           -1.0763     1.9462     0.0177 O.2     
  25 O25            1.1415    -1.8965    -0.0178 O.2     
  26 H26           -0.8356    -0.4931     0.0074 H       
  27 H27            3.3605    -1.8833    -0.0389 H       
  28 H28            4.1660    -0.5696    -0.9298 H       
  29 H29            4.1827    -0.5786     0.8500 H       
  30 H30            4.0072     5.1293     1.3786 H       
  31 H31            1.0788     5.3784    -0.4945 H       
  32 H32           -0.3038     4.2574    -0.4871 H       
  33 H33            1.2461     5.1119     1.9981 H       
  34 H34           -0.0504     6.9732     0.9180 H       
  35 H35           -1.5170     5.9707     1.0303 H       
  36 H36           -1.2326     3.6327     1.6866 H       
  37 H37           -3.2163    10.0557     1.2869 H       
  38 H38           -1.8633     8.0296     0.9362 H       
  39 H39           -1.2938     7.6862     5.1577 H       
  40 H40           -2.6471     9.7132     5.5018 H       
@<TRIPOS>BOND
   1    1    2 am
   2    1    5 1
   3    1   24 2
   4    2    3 am
   5    2   26 1
   6    3    4 am
   7    3   25 2
   8    4    7 1
   9    4   10 1
  10    5    7 2
  11    5    6 1
  12    6    9 1
  13    6   12 1
  14    7    8 1
  15    8    9 2
  16    9   11 1
  17   10   27 1
  18   10   28 1
  19   10   29 1
  20   11   30 1
  21   12   13 1
  22   12   31 1
  23   12   32 1
  24   13   14 1
  25   13   16 1
  26   13   33 1
  27   14   15 1
  28   14   34 1
  29   14   35 1
  30   15   17 1
  31   16   36 1
  32   17   21 ar
  33   17   20 ar
  34   18   19 ar
  35   18   22 ar
  36   18   23 1
  37   19   20 ar
  38   19   37 1
  39   20   38 1
  40   21   22 ar
  41   21   39 1
  42   22   40 1

#	End of record

