#	Name: ASD10420185
#	Creating user name:	WinNT
#	Creation time:	15. 06. 2019 21:27

#	Modifying user name:	WinNT
#	Modification time:	15. 06. 2019 21:27

#	Program:	/corina/corina34_cracker 3.40 0067  02.08.2006

@<TRIPOS>MOLECULE
ASD10420185
  30   32    0    0    0
SMALL
NO_CHARGES


@<TRIPOS>ATOM
   1 C1            -0.0166     1.3730     0.0096 C.ar    
   2 C2             2.3924     1.4139    -0.0136 C.ar    
   3 C3             0.0021    -0.0041     0.0020 C.ar    
   4 C4             2.4203     0.0370    -0.0208 C.ar    
   5 C5            -0.0705    -6.9604    -0.0369 C.ar    
   6 C6             2.4514    -2.7929    -0.0358 C.2     
   7 C7            -1.1996    -4.8284    -0.0154 C.ar    
   8 C8             1.1762     2.0862     0.0020 C.ar    
   9 C9            -1.2436    -6.2143    -0.0226 C.ar    
  10 C10            1.1574    -6.3243    -0.0441 C.ar    
  11 C11            1.2230    -0.6843    -0.0133 C.ar    
  12 C12            1.2480    -2.1591    -0.0209 C.2     
  13 C13            2.4952    -4.2072    -0.0439 C.2     
  14 C14            0.0216    -4.1732    -0.0220 C.ar    
  15 C15            1.2092    -4.9251    -0.0365 C.ar    
  16 O16            3.5570    -4.8087    -0.0568 O.2     
  17 O17            1.1532     3.4436     0.0095 O.3     
  18 O18           -2.4438    -6.8487    -0.0161 O.3     
  19 O19            2.3036    -7.0509    -0.0576 O.3     
  20 O20            0.0820    -2.8246    -0.0147 O.3     
  21 H21           -0.9596     1.8995     0.0169 H       
  22 H22            3.3170     1.9720    -0.0194 H       
  23 H23           -0.9253    -0.5575     0.0082 H       
  24 H24            3.3658    -0.4847    -0.0330 H       
  25 H25           -0.1184    -8.0393    -0.0379 H       
  26 H26            3.3673    -2.2206    -0.0411 H       
  27 H27           -2.1174    -4.2593    -0.0043 H       
  28 H28            1.1550     3.8321     0.8950 H       
  29 H29           -2.7840    -7.0376     0.8692 H       
  30 H30            2.6283    -7.2569    -0.9449 H       
@<TRIPOS>BOND
   1    1    3 ar
   2    1    8 ar
   3    1   21 1
   4    2    4 ar
   5    2    8 ar
   6    2   22 1
   7    3   11 ar
   8    3   23 1
   9    4   11 ar
  10    4   24 1
  11    5    9 ar
  12    5   10 ar
  13    5   25 1
  14    6   12 2
  15    6   13 1
  16    6   26 1
  17    7    9 ar
  18    7   14 ar
  19    7   27 1
  20    8   17 1
  21    9   18 1
  22   10   15 ar
  23   10   19 1
  24   11   12 1
  25   12   20 1
  26   13   15 1
  27   13   16 2
  28   14   15 ar
  29   14   20 1
  30   17   28 1
  31   18   29 1
  32   19   30 1

#	End of record

