#	Name: ASD12630003
#	Creating user name:	WinNT
#	Creation time:	15. 06. 2019 21:30

#	Modifying user name:	WinNT
#	Modification time:	15. 06. 2019 21:30

#	Program:	/corina/corina34_cracker 3.40 0067  02.08.2006

@<TRIPOS>MOLECULE
ASD12630003
  42   44    0    0    0
SMALL
NO_CHARGES


@<TRIPOS>ATOM
   1 C1            -0.0244     1.3524     0.1028 C.2     
   2 N2             0.0109     0.0035    -0.0923 N.am    
   3 N3             1.3485    -0.3849     0.0870 N.2     
   4 C4             2.0282     0.6995     0.3696 C.2     
   5 N5             1.1985     1.7499     0.3792 N.2     
   6 C6            -1.0298    -0.7971    -0.3966 C.2     
   7 N7            -0.8364    -2.1209    -0.5599 N.am    
   8 O8            -2.1425    -0.3253    -0.5236 O.2     
   9 C9            -1.9676    -2.9911    -0.8906 C.3     
  10 C10           -1.4643    -4.2209    -1.6014 C.ar    
  11 C11           -2.6867    -3.4036     0.3953 C.3     
  12 N12           -1.1426     2.1579     0.0194 N.pl3   
  13 C13           -1.0146     3.5459     0.1319 C.ar    
  14 C14            0.2775     5.5436    -0.1702 C.ar    
  15 C15            0.1539     4.1726    -0.2820 C.ar    
  16 C16           -2.0578     4.3010     0.6523 C.ar    
  17 C17           -1.9288     5.6716     0.7618 C.ar    
  18 C18           -0.7617     6.2929     0.3531 C.ar    
  19 Cl19          -0.6027     8.0159     0.4927 Cl      
  20 N20            3.3977     0.7509     0.6202 N.pl3   
  21 C21           -2.1712    -4.7394    -2.6702 C.ar    
  22 C22           -1.7095    -5.8675    -3.3222 C.ar    
  23 C23           -0.5408    -6.4770    -2.9055 C.ar    
  24 C24            0.1665    -5.9580    -1.8373 C.ar    
  25 C25           -0.2929    -4.8273    -1.1881 C.ar    
  26 H26            0.0517    -2.4974    -0.4586 H       
  27 H27           -2.6610    -2.4551    -1.5387 H       
  28 H28           -1.9933    -3.9396     1.0434 H       
  29 H29           -3.0507    -2.5140     0.9094 H       
  30 H30           -3.5284    -4.0510     0.1493 H       
  31 H31           -2.0171     1.7610    -0.1172 H       
  32 H32            1.1859     6.0313    -0.4915 H       
  33 H33            0.9651     3.5883    -0.6904 H       
  34 H34           -2.9691     3.8167     0.9707 H       
  35 H35           -2.7396     6.2592     1.1663 H       
  36 H36            3.9267    -0.0617     0.5924 H       
  37 H37            3.8222     1.5993     0.8226 H       
  38 H38           -3.0843    -4.2632    -2.9958 H       
  39 H39           -2.2622    -6.2730    -4.1568 H       
  40 H40           -0.1805    -7.3588    -3.4144 H       
  41 H41            1.0794    -6.4343    -1.5115 H       
  42 H42            0.2597    -4.4218    -0.3534 H       
@<TRIPOS>BOND
   1    1    2 1
   2    1    5 2
   3    1   12 1
   4    2    3 1
   5    2    6 am
   6    3    4 2
   7    4    5 1
   8    4   20 1
   9    6    7 am
  10    6    8 2
  11    7    9 1
  12    7   26 1
  13    9   10 1
  14    9   11 1
  15    9   27 1
  16   10   21 ar
  17   10   25 ar
  18   11   28 1
  19   11   29 1
  20   11   30 1
  21   12   13 1
  22   12   31 1
  23   13   16 ar
  24   13   15 ar
  25   14   15 ar
  26   14   18 ar
  27   14   32 1
  28   15   33 1
  29   16   17 ar
  30   16   34 1
  31   17   18 ar
  32   17   35 1
  33   18   19 1
  34   20   36 1
  35   20   37 1
  36   21   22 ar
  37   21   38 1
  38   22   23 ar
  39   22   39 1
  40   23   24 ar
  41   23   40 1
  42   24   25 ar
  43   24   41 1
  44   25   42 1

#	End of record

