#	Name: ASD10420188
#	Creating user name:	WinNT
#	Creation time:	15. 06. 2019 21:27

#	Modifying user name:	WinNT
#	Modification time:	15. 06. 2019 21:27

#	Program:	/corina/corina34_cracker 3.40 0067  02.08.2006

@<TRIPOS>MOLECULE
ASD10420188
  32   34    0    0    0
SMALL
NO_CHARGES


@<TRIPOS>ATOM
   1 C1            -0.0168     1.3847     0.0097 C.ar    
   2 O2             1.1450     3.4507     0.0028 O.3     
   3 C3             0.0021    -0.0041     0.0020 C.ar    
   4 O4             4.7149     1.6239     0.2101 O.2     
   5 C5             1.2066    -0.6968    -0.0145 C.ar    
   6 O6             1.6381     9.6661    -0.4979 O.3     
   7 C7             2.4041    -0.0044    -0.0212 C.ar    
   8 O8            -1.1676    -0.6914     0.0112 O.3     
   9 C9             2.3913     1.3993    -0.0086 C.ar    
  10 O10            3.5818    -0.6767    -0.0393 O.3     
  11 C11            1.1695     2.0972     0.0022 C.ar    
  12 C12            3.6462     2.1592    -0.0008 C.2     
  13 C13            3.5395     3.6496    -0.2696 C.3     
  14 C14            2.2935     4.1566     0.4712 C.3     
  15 C15            2.1182     5.6307     0.2119 C.ar    
  16 C16            2.6201     6.5540     1.1104 C.ar    
  17 C17            2.4608     7.9059     0.8750 C.ar    
  18 C18            1.7965     8.3368    -0.2642 C.ar    
  19 C19            1.2939     7.4084    -1.1643 C.ar    
  20 C20            1.4608     6.0577    -0.9271 C.ar    
  21 H21           -0.9603     1.9102     0.0170 H       
  22 H22            1.2078    -1.7768    -0.0217 H       
  23 H23            2.3575    10.0646    -1.0066 H       
  24 H24           -1.5164    -0.8859    -0.8695 H       
  25 H25            3.9140    -0.8641    -0.9279 H       
  26 H26            4.4272     4.1590     0.1054 H       
  27 H27            3.4329     3.8271    -1.3398 H       
  28 H28            2.4135     3.9867     1.5412 H       
  29 H29            3.1368     6.2180     1.9973 H       
  30 H30            2.8526     8.6267     1.5773 H       
  31 H31            0.7761     7.7413    -2.0516 H       
  32 H32            1.0739     5.3346    -1.6298 H       
@<TRIPOS>BOND
   1    1    3 ar
   2    1   11 ar
   3    1   21 1
   4    2   11 1
   5    2   14 1
   6    3    5 ar
   7    3    8 1
   8    4   12 2
   9    5    7 ar
  10    5   22 1
  11    6   18 1
  12    6   23 1
  13    7    9 ar
  14    7   10 1
  15    8   24 1
  16    9   11 ar
  17    9   12 1
  18   10   25 1
  19   12   13 1
  20   13   14 1
  21   13   26 1
  22   13   27 1
  23   14   15 1
  24   14   28 1
  25   15   16 ar
  26   15   20 ar
  27   16   17 ar
  28   16   29 1
  29   17   18 ar
  30   17   30 1
  31   18   19 ar
  32   19   20 ar
  33   19   31 1
  34   20   32 1

#	End of record

