#	Name: ASD11000054
#	Creating user name:	WinNT
#	Creation time:	15. 06. 2019 21:28

#	Modifying user name:	WinNT
#	Modification time:	15. 06. 2019 21:28

#	Program:	/corina/corina34_cracker 3.40 0067  02.08.2006

@<TRIPOS>MOLECULE
ASD11000054
  63   66    0    0    0
SMALL
NO_CHARGES


@<TRIPOS>ATOM
   1 C1            -1.4285    -0.0240    -0.5411 C.ar    
   2 C2            -0.9221    -1.2862    -0.3156 C.ar    
   3 C3             0.4495    -1.5010    -0.3432 C.ar    
   4 C4             1.3158    -0.4461    -0.5978 C.ar    
   5 C5             0.8165     0.8188    -0.8242 C.ar    
   6 C6            -0.5610     1.0383    -0.7973 C.ar    
   7 C7            -1.1009     2.3948    -1.0403 C.2     
   8 O8            -2.4426     2.6067    -1.0138 O.3     
   9 O9             0.9451    -2.7462    -0.1200 O.3     
  10 C10            2.3655    -2.8964    -0.1630 C.3     
  11 C11            2.7324    -4.3565     0.1097 C.3     
  12 N12            2.2379    -4.7447     1.4348 N.am    
  13 C13            2.1071    -5.2363    -0.9439 C.ar    
  14 C14            1.4008    -6.3758    -0.6277 C.ar    
  15 C15            2.2642    -4.8640    -2.2722 C.ar    
  16 C16            0.8611    -7.1543    -1.6446 C.ar    
  17 C17            1.0182    -6.7902    -2.9690 C.ar    
  18 C18            1.7231    -5.6330    -3.2864 C.ar    
  19 C19            2.1786    -6.1840     1.7390 C.3     
  20 C20            1.1649    -6.8229     0.7912 C.3     
  21 C21            1.8537    -3.8210     2.3380 C.2     
  22 O22            2.0226    -2.6394     2.1082 O.2     
  23 O23            1.8798    -5.2615    -4.5851 O.3     
  24 C24            2.6154    -4.0616    -4.8324 C.3     
  25 O25            0.4863    -7.5589    -3.9568 O.3     
  26 C26           -0.2243    -8.7316    -3.5547 C.3     
  27 C27            1.2268    -4.2449     3.6081 C.ar    
  28 C28            1.3616    -3.4582     4.7529 C.ar    
  29 C29            0.4929    -5.4309     3.6658 C.ar    
  30 C30           -0.0897    -5.8208     4.8548 C.ar    
  31 C31            0.0525    -5.0379     5.9881 C.ar    
  32 C32            0.7742    -3.8591     5.9353 C.ar    
  33 C33           -0.2716     3.4074    -1.2851 C.2     
  34 C34           -2.8936     3.9407    -1.2569 C.3     
  35 Br35          -1.0845    -7.4269     4.9362 Br      
  36 H36           -2.4956     0.1415    -0.5240 H       
  37 H37           -1.5929    -2.1089    -0.1169 H       
  38 H38            2.3821    -0.6167    -0.6181 H       
  39 H39            1.4909     1.6388    -1.0221 H       
  40 H40            2.7318    -2.6076    -1.1481 H       
  41 H41            2.8213    -2.2596     0.5952 H       
  42 H42            3.8161    -4.4699     0.0794 H       
  43 H43            2.8132    -3.9663    -2.5155 H       
  44 H44            0.3142    -8.0523    -1.3980 H       
  45 H45            3.1598    -6.6338     1.5870 H       
  46 H46            1.8612    -6.3300     2.7714 H       
  47 H47            0.1587    -6.5345     1.0953 H       
  48 H48            1.2577    -7.9076     0.8453 H       
  49 H49            2.6658    -3.8811    -5.9062 H       
  50 H50            2.1169    -3.2231    -4.3461 H       
  51 H51            3.6245    -4.1653    -4.4337 H       
  52 H52           -0.5957    -9.2520    -4.4375 H       
  53 H53            0.4447    -9.3894    -2.9998 H       
  54 H54           -1.0638    -8.4481    -2.9200 H       
  55 H55            1.9247    -2.5375     4.7134 H       
  56 H56            0.3810    -6.0417     2.7822 H       
  57 H57           -0.4054    -5.3470     6.9160 H       
  58 H58            0.8815    -3.2530     6.8228 H       
  59 H59           -0.6655     4.3972    -1.4625 H       
  60 H60            0.7950     3.2389    -1.3062 H       
  61 H61           -3.9820     3.9710    -1.2071 H       
  62 H62           -2.4766     4.6083    -0.5029 H       
  63 H63           -2.5661     4.2603    -2.2462 H       
@<TRIPOS>BOND
   1    1    2 ar
   2    1    6 ar
   3    1   36 1
   4    2    3 ar
   5    2   37 1
   6    3    4 ar
   7    3    9 1
   8    4    5 ar
   9    4   38 1
  10    5    6 ar
  11    5   39 1
  12    6    7 1
  13    7    8 1
  14    7   33 2
  15    8   34 1
  16    9   10 1
  17   10   11 1
  18   10   40 1
  19   10   41 1
  20   11   12 1
  21   11   13 1
  22   11   42 1
  23   12   19 1
  24   12   21 am
  25   13   14 ar
  26   13   15 ar
  27   14   16 ar
  28   14   20 1
  29   15   18 ar
  30   15   43 1
  31   16   17 ar
  32   16   44 1
  33   17   18 ar
  34   17   25 1
  35   18   23 1
  36   19   20 1
  37   19   45 1
  38   19   46 1
  39   20   47 1
  40   20   48 1
  41   21   22 2
  42   21   27 1
  43   23   24 1
  44   24   49 1
  45   24   50 1
  46   24   51 1
  47   25   26 1
  48   26   52 1
  49   26   53 1
  50   26   54 1
  51   27   28 ar
  52   27   29 ar
  53   28   32 ar
  54   28   55 1
  55   29   30 ar
  56   29   56 1
  57   30   31 ar
  58   30   35 1
  59   31   32 ar
  60   31   57 1
  61   32   58 1
  62   33   59 1
  63   33   60 1
  64   34   61 1
  65   34   62 1
  66   34   63 1

#	End of record

