#	Name: ASD14300009
#	Creating user name:	WinNT
#	Creation time:	15. 06. 2019 21:31

#	Modifying user name:	WinNT
#	Modification time:	15. 06. 2019 21:31

#	Program:	/corina/corina34_cracker 3.40 0067  02.08.2006

@<TRIPOS>MOLECULE
ASD14300009
  77   80    0    0    0
SMALL
NO_CHARGES


@<TRIPOS>ATOM
   1 N1            -0.2252     1.1412    -0.2832 N.pl3   
   2 C2            -0.2019    -0.1562    -0.6869 C.2     
   3 C3             0.9109    -0.7422    -0.1889 C.2     
   4 C4             1.6067     0.2229     0.5515 C.2     
   5 C5             0.8895     1.3820     0.4823 C.2     
   6 C6             1.2480     2.6646     1.1156 C.ar    
   7 N7             2.3693     2.7660     1.8294 N.ar    
   8 C8             2.6907     3.9223     2.3993 C.ar    
   9 N9             1.8944     4.9779     2.2585 N.ar    
  10 C10            0.7758     4.8786     1.5470 C.ar    
  11 N11            0.4542     3.7252     0.9706 N.ar    
  12 N12           -0.0492     5.9757     1.4022 N.pl3   
  13 N13            3.8516     4.0277     3.1385 N.3     
  14 C14            4.5416     2.8124     3.1636 C.3     
  15 C15            6.8655     3.6035     3.5505 C.3     
  16 C16            4.6550     5.1859     2.6994 C.3     
  17 C17            5.4350     5.6910     3.8873 C.3     
  18 C18            6.8540     5.0985     3.9272 C.3     
  19 C19           -1.3260     5.8440     0.6961 C.3     
  20 C20            0.3520     7.2719     1.9546 C.3     
  21 C21            5.7179     2.8423     4.1638 C.3     
  22 C22           -2.4455     5.5947     1.7088 C.3     
  23 C23           -3.7790     5.4571     0.9714 C.3     
  24 C24           -4.8985     5.2079     1.9840 C.3     
  25 C25            1.1455     8.0507     0.9035 C.3     
  26 C26            1.5645     9.4043     1.4805 C.3     
  27 C27            2.3580    10.1831     0.4294 C.3     
  28 C28           -1.2626     2.1211    -0.6145 C.3     
  29 C29           -0.9463     2.7611    -1.9677 C.3     
  30 C30           -2.0817     3.6650    -2.3737 C.ar    
  31 C31           -4.1645     5.3234    -3.1189 C.ar    
  32 C32           -4.2463     3.9634    -3.3525 C.ar    
  33 C33           -3.2048     3.1342    -2.9801 C.ar    
  34 C34           -2.0025     5.0242    -2.1344 C.ar    
  35 C35           -3.0440     5.8534    -2.5068 C.ar    
  36 H36           -0.9473    -0.6387    -1.3017 H       
  37 H37            1.2095    -1.7697    -0.3357 H       
  38 H38            2.5375     0.0766     1.0792 H       
  39 H39            3.8521     2.0182     3.4497 H       
  40 H40            4.9285     2.6029     2.1663 H       
  41 H41            6.8085     3.5131     2.4658 H       
  42 H42            7.8025     3.1620     3.8900 H       
  43 H43            5.3423     4.8796     1.9108 H       
  44 H44            3.9965     5.9721     2.3300 H       
  45 H45            5.5044     6.7773     3.8315 H       
  46 H46            4.9088     5.4159     4.8014 H       
  47 H47            7.2582     5.2139     4.9328 H       
  48 H48            7.4862     5.6453     3.2276 H       
  49 H49           -1.5326     6.7612     0.1446 H       
  50 H50           -1.2720     5.0063     0.0008 H       
  51 H51           -0.5363     7.8389     2.2330 H       
  52 H52            0.9735     7.1145     2.8361 H       
  53 H53            5.4025     3.3362     5.0829 H       
  54 H54            6.0337     1.8230     4.3859 H       
  55 H55           -2.2390     4.6775     2.2603 H       
  56 H56           -2.4996     6.4324     2.4041 H       
  57 H57           -3.9855     6.3743     0.4199 H       
  58 H58           -3.7249     4.6194     0.2760 H       
  59 H59           -4.6919     4.2907     2.5355 H       
  60 H60           -4.9526     6.0455     2.6794 H       
  61 H61           -5.8485     5.1098     1.4587 H       
  62 H62            2.0338     7.4837     0.6252 H       
  63 H63            0.5239     8.2081     0.0221 H       
  64 H64            0.6762     9.9713     1.7588 H       
  65 H65            2.1861     9.2469     2.3619 H       
  66 H66            3.2463     9.6161     0.1510 H       
  67 H67            1.7365    10.3405    -0.4521 H       
  68 H68            2.6565    11.1475     0.8404 H       
  69 H69           -2.2304     1.6223    -0.6659 H       
  70 H70           -1.2922     2.8931     0.1545 H       
  71 H71           -0.0285     3.3438    -1.8884 H       
  72 H72           -0.8173     1.9806    -2.7175 H       
  73 H73           -4.9782     5.9712    -3.4098 H       
  74 H74           -5.1217     3.5493    -3.8307 H       
  75 H75           -3.2684     2.0718    -3.1634 H       
  76 H76           -1.1272     5.4383    -1.6563 H       
  77 H77           -2.9801     6.9159    -2.3243 H       
@<TRIPOS>BOND
   1    1    2 1
   2    1    5 1
   3    1   28 1
   4    2    3 2
   5    2   36 1
   6    3    4 1
   7    3   37 1
   8    4    5 2
   9    4   38 1
  10    5    6 1
  11    6    7 ar
  12    6   11 ar
  13    7    8 ar
  14    8    9 ar
  15    8   13 1
  16    9   10 ar
  17   10   11 ar
  18   10   12 1
  19   12   19 1
  20   12   20 1
  21   13   14 1
  22   13   16 1
  23   14   21 1
  24   14   39 1
  25   14   40 1
  26   15   18 1
  27   15   21 1
  28   15   41 1
  29   15   42 1
  30   16   17 1
  31   16   43 1
  32   16   44 1
  33   17   18 1
  34   17   45 1
  35   17   46 1
  36   18   47 1
  37   18   48 1
  38   19   22 1
  39   19   49 1
  40   19   50 1
  41   20   25 1
  42   20   51 1
  43   20   52 1
  44   21   53 1
  45   21   54 1
  46   22   23 1
  47   22   55 1
  48   22   56 1
  49   23   24 1
  50   23   57 1
  51   23   58 1
  52   24   59 1
  53   24   60 1
  54   24   61 1
  55   25   26 1
  56   25   62 1
  57   25   63 1
  58   26   27 1
  59   26   64 1
  60   26   65 1
  61   27   66 1
  62   27   67 1
  63   27   68 1
  64   28   29 1
  65   28   69 1
  66   28   70 1
  67   29   30 1
  68   29   71 1
  69   29   72 1
  70   30   34 ar
  71   30   33 ar
  72   31   32 ar
  73   31   35 ar
  74   31   73 1
  75   32   33 ar
  76   32   74 1
  77   33   75 1
  78   34   35 ar
  79   34   76 1
  80   35   77 1

#	End of record

