#	Name: ASD12970005
#	Creating user name:	WinNT
#	Creation time:	15. 06. 2019 21:30

#	Modifying user name:	WinNT
#	Modification time:	15. 06. 2019 21:30

#	Program:	/corina/corina34_cracker 3.40 0067  02.08.2006

@<TRIPOS>MOLECULE
ASD12970005
  14   14    0    0    0
SMALL
NO_CHARGES


@<TRIPOS>ATOM
   1 C1            -0.0169     1.3943     0.0097 C.ar    
   2 C2             0.0021    -0.0041     0.0020 C.ar    
   3 C3             1.2075    -0.6735    -0.0131 C.ar    
   4 C4             2.3965     0.0349    -0.0206 C.ar    
   5 C5             2.3861     1.4188    -0.0126 C.ar    
   6 C6             1.1889     2.1028     0.0020 C.ar    
   7 C7            -1.2991     2.1166     0.0197 C.2     
   8 O8            -1.3119     3.3290     0.0264 O.2     
   9 H9            -2.2286     1.5667     0.0211 H       
  10 H10           -0.9249    -0.5582     0.0083 H       
  11 H11            1.2238    -1.7533    -0.0187 H       
  12 H12            3.3374    -0.4952    -0.0325 H       
  13 H13            3.3181     1.9645    -0.0179 H       
  14 H14            1.1823     3.1828     0.0075 H       
@<TRIPOS>BOND
   1    1    2 ar
   2    1    6 ar
   3    1    7 1
   4    2    3 ar
   5    2   10 1
   6    3    4 ar
   7    3   11 1
   8    4    5 ar
   9    4   12 1
  10    5    6 ar
  11    5   13 1
  12    6   14 1
  13    7    8 2
  14    7    9 1

#	End of record

