#	Name: ASD10610086
#	Creating user name:	WinNT
#	Creation time:	15. 06. 2019 21:27

#	Modifying user name:	WinNT
#	Modification time:	15. 06. 2019 21:27

#	Program:	/corina/corina34_cracker 3.40 0067  02.08.2006

@<TRIPOS>MOLECULE
ASD10610086
  59   63    0    0    0
SMALL
NO_CHARGES


@<TRIPOS>ATOM
   1 C1             0.7789     2.9870     1.3225 C.ar    
   2 C2             1.5521     3.0947     2.4812 C.ar    
   3 C3             2.7823     2.4519     2.5033 C.ar    
   4 C4             3.1682     1.7436     1.3765 C.ar    
   5 N5             2.3738     1.6939     0.3213 N.ar    
   6 N6             1.2346     2.2846     0.2920 N.ar    
   7 C7            -0.5450     3.6478     1.2463 C.2     
   8 O8            -0.9611     4.2856     2.1933 O.2     
   9 N9            -1.2878     3.5415     0.1268 N.am    
  10 O10           -2.5318     5.7073    -1.2114 O.3     
  11 C11           -2.7040     5.6282     0.2095 C.3     
  12 C12           -2.6415     4.1004     0.0900 C.3     
  13 C13           -3.1601     4.4231    -1.3167 C.3     
  14 C14           -3.6211     3.3629     0.9661 C.2     
  15 N15           -3.5291     2.0251     1.1018 N.am    
  16 O16           -4.4921     3.9731     1.5490 O.2     
  17 C17           -4.5450     1.2947     1.8639 C.3     
  18 C18           -4.1855     1.3230     3.3508 C.3     
  19 C19           -4.5995    -0.1340     1.3874 C.ar    
  20 C20           -5.8291    -0.7306     1.1593 C.ar    
  21 C21           -5.8730    -2.0447     0.7207 C.ar    
  22 C22           -4.6639    -2.7186     0.5253 C.ar    
  23 C23           -3.4691    -2.0470     0.7776 C.ar    
  24 N24           -3.4761    -0.7956     1.1887 N.ar    
  25 F25           -6.9721    -0.0395     1.3624 F       
  26 C26           -4.6529    -4.1254     0.0577 C.ar    
  27 C27           -3.8465    -4.5016    -1.0286 C.ar    
  28 C28           -3.8448    -5.8278    -1.4591 C.ar    
  29 C29           -4.6347    -6.7634    -0.8163 C.ar    
  30 C30           -5.4296    -6.3904     0.2544 C.ar    
  31 C31           -5.4372    -5.0808     0.6966 C.ar    
  32 O32           -2.1331    -1.6742    -2.1654 O.3     
  33 N33           -2.9102    -2.2243    -1.4139 N.2     
  34 C34           -3.0024    -3.4946    -1.7139 C.2     
  35 N35           -2.1822    -3.7164    -2.7665 N.2     
  36 C36           -1.6398    -2.5563    -3.0403 C.2     
  37 C37           -0.6459    -2.2695    -4.1362 C.3     
  38 F38           -3.0723    -6.1984    -2.5037 F       
  39 Cl39          -6.4163    -7.5760     1.0510 Cl      
  40 H40            1.2038     3.6605     3.3327 H       
  41 H41            3.4203     2.5027     3.3732 H       
  42 H42            4.1191     1.2319     1.3604 H       
  43 H43           -0.9261     3.0950    -0.6547 H       
  44 H44           -1.8716     6.0528     0.7706 H       
  45 H45           -3.6720     5.9964     0.5493 H       
  46 H46           -4.2472     4.4767    -1.3754 H       
  47 H47           -2.7273     3.7920    -2.0929 H       
  48 H48           -2.7904     1.5460     0.6950 H       
  49 H49           -5.5175     1.7643     1.7162 H       
  50 H50           -3.2130     0.8534     3.4984 H       
  51 H51           -4.1460     2.3563     3.6954 H       
  52 H52           -4.9413     0.7795     3.9178 H       
  53 H53           -6.8170    -2.5355     0.5350 H       
  54 H54           -2.5281    -2.5563     0.6306 H       
  55 H55           -4.6319    -7.7901    -1.1514 H       
  56 H56           -6.0556    -4.7980     1.5356 H       
  57 H57           -0.3772    -1.2133    -4.1158 H       
  58 H58            0.2477    -2.8748    -3.9839 H       
  59 H59           -1.0894    -2.5129    -5.1018 H       
@<TRIPOS>BOND
   1    1    2 ar
   2    1    6 ar
   3    1    7 1
   4    2    3 ar
   5    2   40 1
   6    3    4 ar
   7    3   41 1
   8    4    5 ar
   9    4   42 1
  10    5    6 ar
  11    7    8 2
  12    7    9 am
  13    9   12 1
  14    9   43 1
  15   10   11 1
  16   10   13 1
  17   11   12 1
  18   11   44 1
  19   11   45 1
  20   12   13 1
  21   12   14 1
  22   13   46 1
  23   13   47 1
  24   14   15 am
  25   14   16 2
  26   15   17 1
  27   15   48 1
  28   17   18 1
  29   17   19 1
  30   17   49 1
  31   18   50 1
  32   18   51 1
  33   18   52 1
  34   19   20 ar
  35   19   24 ar
  36   20   21 ar
  37   20   25 1
  38   21   22 ar
  39   21   53 1
  40   22   23 ar
  41   22   26 1
  42   23   24 ar
  43   23   54 1
  44   26   27 ar
  45   26   31 ar
  46   27   28 ar
  47   27   34 1
  48   28   29 ar
  49   28   38 1
  50   29   30 ar
  51   29   55 1
  52   30   31 ar
  53   30   39 1
  54   31   56 1
  55   32   33 1
  56   32   36 1
  57   33   34 2
  58   34   35 1
  59   35   36 2
  60   36   37 1
  61   37   57 1
  62   37   58 1
  63   37   59 1

#	End of record

