#	Name: ASD10160206
#	Creating user name:	WinNT
#	Creation time:	15. 06. 2019 21:25

#	Modifying user name:	WinNT
#	Modification time:	15. 06. 2019 21:25

#	Program:	/corina/corina34_cracker 3.40 0067  02.08.2006

@<TRIPOS>MOLECULE
ASD10160206
  37   39    0    0    0
SMALL
NO_CHARGES


@<TRIPOS>ATOM
   1 C1            -0.3572     1.4546     0.0796 C.2     
   2 C2            -0.2480    -0.0157     0.0533 C.ar    
   3 C3             0.9996    -0.6239    -0.1282 C.ar    
   4 C4             1.0967    -2.0007    -0.1516 C.ar    
   5 C5            -0.0406    -2.7815     0.0044 C.ar    
   6 C6            -1.2836    -2.1803     0.1847 C.ar    
   7 C7            -1.3895    -0.8066     0.2153 C.ar    
   8 O8             0.6375     2.1407    -0.0564 O.2     
   9 N9            -1.5603     2.0381     0.2489 N.am    
  10 O10            0.0594    -4.1351    -0.0193 O.3     
  11 C11           -0.1515    -4.7681    -1.1988 C.ar    
  12 N12           -0.4638    -4.0829    -2.2826 N.ar    
  13 N13           -0.6734    -4.6280    -3.4226 N.ar    
  14 C14           -0.5997    -5.9224    -3.6314 C.ar    
  15 C15           -0.2742    -6.7704    -2.5569 C.ar    
  16 C16           -0.1742    -8.1612    -2.6923 C.ar    
  17 C17            0.1462    -8.9178    -1.6047 C.ar    
  18 C18            0.3749    -8.3303    -0.3623 C.ar    
  19 C19            0.2853    -6.9800    -0.1955 C.ar    
  20 C20           -0.0354    -6.1721    -1.2921 C.ar    
  21 S21           -1.6829     3.6893     0.2785 S.o2    
  22 O22           -3.0657     3.9341     0.4958 O.2     
  23 O23           -0.7086     4.0960     1.2296 O.2     
  24 C24           -1.1990     4.2091    -1.3907 C.3     
  25 F25           -2.3870    -2.9452     0.3356 F       
  26 F26            2.1067     0.1353    -0.2806 F       
  27 H27            2.0587    -2.4712    -0.2919 H       
  28 H28           -2.3535    -0.3416     0.3600 H       
  29 H29           -2.3543     1.4908     0.3535 H       
  30 H30           -0.7865    -6.3302    -4.6138 H       
  31 H31           -0.3496    -8.6296    -3.6495 H       
  32 H32            0.2237    -9.9901    -1.7076 H       
  33 H33            0.6268    -8.9544     0.4823 H       
  34 H34            0.4647    -6.5376     0.7733 H       
  35 H35           -1.8754     3.7638    -2.1203 H       
  36 H36           -1.2513     5.2954    -1.4624 H       
  37 H37           -0.1795     3.8803    -1.5924 H       
@<TRIPOS>BOND
   1    1    2 1
   2    1    8 2
   3    1    9 am
   4    2    3 ar
   5    2    7 ar
   6    3    4 ar
   7    3   26 1
   8    4    5 ar
   9    4   27 1
  10    5    6 ar
  11    5   10 1
  12    6    7 ar
  13    6   25 1
  14    7   28 1
  15    9   21 am
  16    9   29 1
  17   10   11 1
  18   11   12 ar
  19   11   20 ar
  20   12   13 ar
  21   13   14 ar
  22   14   15 ar
  23   14   30 1
  24   15   16 ar
  25   15   20 ar
  26   16   17 ar
  27   16   31 1
  28   17   18 ar
  29   17   32 1
  30   18   19 ar
  31   18   33 1
  32   19   20 ar
  33   19   34 1
  34   21   22 2
  35   21   23 2
  36   21   24 1
  37   24   35 1
  38   24   36 1
  39   24   37 1

#	End of record

