#	Name: ASD10410032
#	Creating user name:	WinNT
#	Creation time:	15. 06. 2019 21:26

#	Modifying user name:	WinNT
#	Modification time:	15. 06. 2019 21:26

#	Program:	/corina/corina34_cracker 3.40 0067  02.08.2006

@<TRIPOS>MOLECULE
ASD10410032
  59   62    0    0    0
SMALL
NO_CHARGES


@<TRIPOS>ATOM
   1 C1            -0.1755     1.3177    -0.5826 C.ar    
   2 N2            -0.1492    -0.0057    -0.5689 N.ar    
   3 C3             0.8515    -0.6696    -1.1424 C.ar    
   4 C4             1.8764     0.0519    -1.7606 C.ar    
   5 C5             1.8082     1.4336    -1.7510 C.ar    
   6 N6             0.7825     2.0272    -1.1613 N.ar    
   7 N7            -1.2348     1.9780     0.0186 N.pl3   
   8 C8            -1.2231     3.3724     0.1187 C.ar    
   9 C9            -2.4099     4.0874     0.0190 C.ar    
  10 C10           -2.3948     5.4648     0.1183 C.ar    
  11 C11           -1.2001     6.1322     0.3166 C.ar    
  12 C12           -0.0168     5.4235     0.4162 C.ar    
  13 C13           -0.0255     4.0456     0.3236 C.ar    
  14 C14           -1.1874     7.6354     0.4239 C.3     
  15 N15           -1.3570     8.0274     1.8295 N.3     
  16 C16           -1.1143     9.4657     2.0080 C.3     
  17 C17           -1.3779     9.8476     3.4665 C.3     
  18 N18           -0.5035     9.0561     4.3431 N.3     
  19 C19           -0.7462     7.6178     4.1646 C.3     
  20 C20           -0.4826     7.2358     2.7061 C.3     
  21 C21           -0.6731     9.4481     5.7487 C.3     
  22 C22            3.0292    -0.6587    -2.4219 C.3     
  23 C23            0.8789    -2.1524    -1.1252 C.ar    
  24 C24            0.3912    -2.8475    -0.0207 C.ar    
  25 C25            0.4192    -4.2321    -0.0111 C.ar    
  26 C26            0.9323    -4.9239    -1.1000 C.ar    
  27 C27            1.4167    -4.2349    -2.1958 C.ar    
  28 C28            1.3874    -2.8547    -2.2165 C.ar    
  29 O29           -0.0552    -4.9138     1.0647 O.3     
  30 C30            0.0046    -6.3404     1.0067 C.3     
  31 H31            2.5836     2.0216    -2.2193 H       
  32 H32           -1.9845     1.4727     0.3701 H       
  33 H33           -3.3432     3.5667    -0.1362 H       
  34 H34           -3.3171     6.0213     0.0405 H       
  35 H35            0.9146     5.9478     0.5711 H       
  36 H36            0.8983     3.4923     0.4060 H       
  37 H37           -0.2370     8.0182     0.0521 H       
  38 H38           -2.0029     8.0489    -0.1695 H       
  39 H39           -0.0793     9.6942     1.7537 H       
  40 H40           -1.7821    10.0307     1.3577 H       
  41 H41           -1.1706    10.9084     3.6078 H       
  42 H42           -2.4201     9.6445     3.7129 H       
  43 H43           -0.0784     7.0528     4.8149 H       
  44 H44           -1.7812     7.3893     4.4190 H       
  45 H45           -0.6900     6.1751     2.5648 H       
  46 H46            0.5595     7.4390     2.4597 H       
  47 H47           -1.7083     9.2858     6.0488 H       
  48 H48           -0.0146     8.8469     6.3756 H       
  49 H49           -0.4223    10.5025     5.8646 H       
  50 H50            2.7867    -0.8498    -3.4672 H       
  51 H51            3.9215    -0.0354    -2.3640 H       
  52 H52            3.2131    -1.6047    -1.9127 H       
  53 H53           -0.0073    -2.3081     0.8258 H       
  54 H54            0.9532    -6.0037    -1.0906 H       
  55 H55            1.8151    -4.7777    -3.0402 H       
  56 H56            1.7623    -2.3193    -3.0763 H       
  57 H57           -0.5775    -6.6942     0.1557 H       
  58 H58            1.0417    -6.6563     0.8939 H       
  59 H59           -0.4047    -6.7589     1.9261 H       
@<TRIPOS>BOND
   1    1    2 ar
   2    1    6 ar
   3    1    7 1
   4    2    3 ar
   5    3    4 ar
   6    3   23 1
   7    4    5 ar
   8    4   22 1
   9    5    6 ar
  10    5   31 1
  11    7    8 1
  12    7   32 1
  13    8    9 ar
  14    8   13 ar
  15    9   10 ar
  16    9   33 1
  17   10   11 ar
  18   10   34 1
  19   11   12 ar
  20   11   14 1
  21   12   13 ar
  22   12   35 1
  23   13   36 1
  24   14   15 1
  25   14   37 1
  26   14   38 1
  27   15   16 1
  28   15   20 1
  29   16   17 1
  30   16   39 1
  31   16   40 1
  32   17   18 1
  33   17   41 1
  34   17   42 1
  35   18   19 1
  36   18   21 1
  37   19   20 1
  38   19   43 1
  39   19   44 1
  40   20   45 1
  41   20   46 1
  42   21   47 1
  43   21   48 1
  44   21   49 1
  45   22   50 1
  46   22   51 1
  47   22   52 1
  48   23   24 ar
  49   23   28 ar
  50   24   25 ar
  51   24   53 1
  52   25   26 ar
  53   25   29 1
  54   26   27 ar
  55   26   54 1
  56   27   28 ar
  57   27   55 1
  58   28   56 1
  59   29   30 1
  60   30   57 1
  61   30   58 1
  62   30   59 1

#	End of record

