#	Name: ASD11890001
#	Creating user name:	WinNT
#	Creation time:	15. 06. 2019 21:29

#	Modifying user name:	WinNT
#	Modification time:	15. 06. 2019 21:29

#	Program:	/corina/corina34_cracker 3.40 0067  02.08.2006

@<TRIPOS>MOLECULE
ASD11890001
  71   76    0    0    0
SMALL
NO_CHARGES


@<TRIPOS>ATOM
   1 C1             1.1959     0.2035    -1.0156 C.3     
   2 C2             0.9037    -1.2147    -0.5213 C.3     
   3 C3             1.6751    -2.2219    -1.3765 C.3     
   4 C4             1.2386    -2.0908    -2.8370 C.3     
   5 C5             1.5308    -0.6727    -3.3313 C.3     
   6 C6             0.7594     0.3346    -2.4761 C.3     
   7 C7             2.6960     0.4833    -0.9045 C.3     
   8 C8             3.0309    -0.3929    -3.2203 C.3     
   9 C9             3.4674    -0.5239    -1.7597 C.3     
  10 C10            3.1752    -1.9421    -1.2654 C.3     
  11 N11           -0.5327    -1.4826    -0.6276 N.am    
  12 C12           -1.1071    -2.4045     0.1703 C.2     
  13 N13           -2.4285    -2.6510     0.0725 N.am    
  14 O14           -0.4332    -3.0138     0.9784 O.2     
  15 C15           -3.0529    -3.6531     0.9398 C.3     
  16 C16           -4.2984    -4.1840     0.2782 C.2     
  17 C17           -3.4209    -3.0105     2.2787 C.3     
  18 O18           -4.8683    -3.5209    -0.5623 O.2     
  19 N19           -4.7791    -5.3957     0.6206 N.am    
  20 N20           -5.9751    -5.9614     0.1604 N.pl3   
  21 C21           -5.9448    -7.4179     0.3509 C.3     
  22 C22           -4.5973    -7.7311     1.0319 C.3     
  23 C23           -4.1319    -6.3508     1.5369 C.3     
  24 C24           -7.0395    -5.2463    -0.3974 C.ar    
  25 C25           -6.8860    -4.6134    -1.6235 C.ar    
  26 C26           -8.2563    -5.1720     0.2721 C.ar    
  27 C27           -9.3062    -4.4637    -0.2831 C.ar    
  28 C28           -9.1464    -3.8304    -1.5020 C.ar    
  29 C29           -7.9393    -3.9076    -2.1721 C.ar    
  30 F30           -8.4124    -5.7912     1.4626 F       
  31 C31           -6.0277    -8.1172    -0.9814 C.ar    
  32 C32           -5.5706    -7.4862    -2.1227 C.ar    
  33 C33           -6.5563    -9.3935    -1.0613 C.ar    
  34 C34           -6.6320   -10.0348    -2.2847 C.ar    
  35 C35           -6.1797    -9.4004    -3.4265 C.ar    
  36 C36           -5.6470    -8.1275    -3.3453 C.ar    
  37 Cl37          -7.1236   -10.1899     0.3731 Cl      
  38 H38            0.6464     0.9210    -0.4063 H       
  39 H39            1.2147    -1.3081     0.5192 H       
  40 H40            1.4669    -3.2323    -1.0243 H       
  41 H41            1.7881    -2.8084    -3.4463 H       
  42 H42            0.1699    -2.2902    -2.9161 H       
  43 H43            1.2198    -0.5793    -4.3718 H       
  44 H44           -0.3093     0.1352    -2.5552 H       
  45 H45            0.9676     1.3449    -2.8283 H       
  46 H46            2.9042     1.4936    -1.2567 H       
  47 H47            3.0070     0.3899     0.1360 H       
  48 H48            3.5804    -1.1104    -3.8295 H       
  49 H49            3.2390     0.6175    -3.5724 H       
  50 H50            4.5361    -0.3246    -1.6806 H       
  51 H51            3.4861    -2.0355    -0.2249 H       
  52 H52            3.7247    -2.6597    -1.8747 H       
  53 H53           -1.0703    -0.9966    -1.2723 H       
  54 H54           -2.9661    -2.1649    -0.5722 H       
  55 H55           -2.3544    -4.4724     1.1098 H       
  56 H56           -4.0484    -2.1369     2.1021 H       
  57 H57           -3.9645    -3.7307     2.8901 H       
  58 H58           -2.5120    -2.7061     2.7976 H       
  59 H59           -6.7702    -7.7298     0.9910 H       
  60 H60           -4.7372    -8.4215     1.8637 H       
  61 H61           -3.8857    -8.1337     0.3111 H       
  62 H62           -3.0467    -6.2679     1.4771 H       
  63 H63           -4.4734    -6.1824     2.5582 H       
  64 H64           -5.9437    -4.6726    -2.1480 H       
  65 H65          -10.2518    -4.4055     0.2354 H       
  66 H66           -9.9679    -3.2781    -1.9339 H       
  67 H67           -7.8182    -3.4113    -3.1236 H       
  68 H68           -5.1539    -6.4918    -2.0598 H       
  69 H69           -7.0442   -11.0311    -2.3476 H       
  70 H70           -6.2385    -9.9011    -4.3816 H       
  71 H71           -5.2941    -7.6321    -4.2377 H       
@<TRIPOS>BOND
   1    1    2 1
   2    1    7 1
   3    1    6 1
   4    1   38 1
   5    2    3 1
   6    2   11 1
   7    2   39 1
   8    3    4 1
   9    3   10 1
  10    3   40 1
  11    4    5 1
  12    4   41 1
  13    4   42 1
  14    5    6 1
  15    5    8 1
  16    5   43 1
  17    6   44 1
  18    6   45 1
  19    7    9 1
  20    7   46 1
  21    7   47 1
  22    8    9 1
  23    8   48 1
  24    8   49 1
  25    9   10 1
  26    9   50 1
  27   10   51 1
  28   10   52 1
  29   11   12 am
  30   11   53 1
  31   12   13 am
  32   12   14 2
  33   13   15 1
  34   13   54 1
  35   15   16 1
  36   15   17 1
  37   15   55 1
  38   16   18 2
  39   16   19 am
  40   17   56 1
  41   17   57 1
  42   17   58 1
  43   19   20 1
  44   19   23 1
  45   20   21 1
  46   20   24 1
  47   21   22 1
  48   21   31 1
  49   21   59 1
  50   22   23 1
  51   22   60 1
  52   22   61 1
  53   23   62 1
  54   23   63 1
  55   24   25 ar
  56   24   26 ar
  57   25   29 ar
  58   25   64 1
  59   26   27 ar
  60   26   30 1
  61   27   28 ar
  62   27   65 1
  63   28   29 ar
  64   28   66 1
  65   29   67 1
  66   31   32 ar
  67   31   33 ar
  68   32   36 ar
  69   32   68 1
  70   33   34 ar
  71   33   37 1
  72   34   35 ar
  73   34   69 1
  74   35   36 ar
  75   35   70 1
  76   36   71 1

#	End of record

