#	Name: ASD11030042
#	Creating user name:	WinNT
#	Creation time:	15. 06. 2019 21:29

#	Modifying user name:	WinNT
#	Modification time:	15. 06. 2019 21:29

#	Program:	/corina/corina34_cracker 3.40 0067  02.08.2006

@<TRIPOS>MOLECULE
ASD11030042
  76   81    0    0    0
SMALL
NO_CHARGES


@<TRIPOS>ATOM
   1 C1             3.0662     4.7133    -6.4093 C.ar    
   2 C2             2.0272     3.8362    -6.1317 C.ar    
   3 C3             2.0222     3.1472    -4.9322 C.ar    
   4 N4             2.9885     3.3128    -4.0528 N.ar    
   5 C5             4.0010     4.1425    -4.2793 C.ar    
   6 C6             4.0690     4.8690    -5.4683 C.ar    
   7 C7             5.0640     4.2970    -3.2635 C.2     
   8 C8             5.4548     3.3398    -2.3846 C.2     
   9 C9             6.4924     3.8814    -1.5878 C.ar    
  10 C10            6.7007     5.2028    -2.0323 C.ar    
  11 N11            5.8158     5.4314    -3.0650 N.pl3   
  12 C12            7.2653     3.3665    -0.5371 C.ar    
  13 C13            8.2154     4.1421     0.0531 C.ar    
  14 C14            8.4297     5.4580    -0.3824 C.ar    
  15 C15            7.6711     5.9854    -1.4248 C.ar    
  16 C16            5.6907     6.6805    -3.8202 C.3     
  17 C17            4.8860     1.9486    -2.2759 C.3     
  18 C18            9.4634     6.2876     0.2668 C.2     
  19 N19           10.1989     5.7804     1.2759 N.am    
  20 O20            9.6514     7.4287    -0.1087 O.2     
  21 C21           11.2990     6.5624     1.8455 C.3     
  22 C22           10.8286     7.8144     2.5400 C.2     
  23 N23            9.6356     7.8296     3.1670 N.am    
  24 O24           11.5235     8.8083     2.5348 O.2     
  25 C25            9.2250     8.9698     3.8572 C.ar    
  26 C26            8.5465     8.8423     5.0657 C.ar    
  27 C27            8.1390     9.9639     5.7509 C.ar    
  28 C28            8.4082    11.2358     5.2311 C.ar    
  29 C29            9.0922    11.3600     4.0140 C.ar    
  30 C30            9.5001    10.2310     3.3381 C.ar    
  31 C31           12.2809     5.7256     2.6825 C.3     
  32 C32           13.4076     6.5604     2.0513 C.3     
  33 C33           12.4581     6.8011     0.8636 C.3     
  34 C34            7.9748    12.4359     5.9586 C.2     
  35 C35            7.3151    12.3136     7.1318 C.2     
  36 C36            5.9914     0.9065    -2.5210 C.3     
  37 C37            6.0969     0.0646    -1.2326 C.3     
  38 C38            4.7101     0.2224    -0.5611 C.3     
  39 C39            4.3584     1.7035    -0.8471 C.3     
  40 Cl40           9.4299    12.9333     3.3626 Cl      
  41 C41            6.8970    13.4716     7.8337 C.2     
  42 O42            7.1319    14.5757     7.3803 O.2     
  43 O43            6.2383    13.3494     9.0051 O.3     
  44 H44            3.0939     5.2590    -7.3409 H       
  45 H45            1.2295     3.6931    -6.8456 H       
  46 H46            1.2146     2.4643    -4.7136 H       
  47 H47            4.8924     5.5433    -5.6518 H       
  48 H48            7.1064     2.3542    -0.1958 H       
  49 H49            8.8079     3.7418     0.8625 H       
  50 H50            7.8378     6.9990    -1.7582 H       
  51 H51            6.2777     6.6118    -4.7360 H       
  52 H52            4.6437     6.8497    -4.0716 H       
  53 H53            6.0575     7.5094    -3.2148 H       
  54 H54            4.0816     1.8168    -2.9995 H       
  55 H55            9.9999     4.8975     1.6250 H       
  56 H56            9.0626     7.0474     3.1382 H       
  57 H57            8.3390     7.8611     5.4664 H       
  58 H58            7.6120     9.8632     6.6882 H       
  59 H59           10.0272    10.3250     2.4002 H       
  60 H60           12.1761     5.8750     3.7571 H       
  61 H61           12.3073     4.6729     2.4011 H       
  62 H62           13.6450     7.4662     2.6093 H       
  63 H63           14.2915     5.9769     1.7936 H       
  64 H64           12.5326     6.0426     0.0844 H       
  65 H65           12.4981     7.8174     0.4716 H       
  66 H66            8.1834    13.4161     5.5560 H       
  67 H67            7.1065    11.3333     7.5344 H       
  68 H68            5.7230     0.2685    -3.3630 H       
  69 H69            6.9393     1.4071    -2.7185 H       
  70 H70            6.2868    -0.9810    -1.4747 H       
  71 H71            6.8812     0.4556    -0.5845 H       
  72 H72            3.9801    -0.4437    -1.0211 H       
  73 H73            4.7775     0.0416     0.5117 H       
  74 H74            4.8620     2.3592    -0.1368 H       
  75 H75            3.2795     1.8539    -0.8078 H       
  76 H76            5.9943    14.1935     9.4090 H       
@<TRIPOS>BOND
   1    1    2 ar
   2    1    6 ar
   3    1   44 1
   4    2    3 ar
   5    2   45 1
   6    3    4 ar
   7    3   46 1
   8    4    5 ar
   9    5    6 ar
  10    5    7 1
  11    6   47 1
  12    7    8 2
  13    7   11 1
  14    8    9 1
  15    8   17 1
  16    9   10 ar
  17    9   12 ar
  18   10   11 1
  19   10   15 ar
  20   11   16 1
  21   12   13 ar
  22   12   48 1
  23   13   14 ar
  24   13   49 1
  25   14   15 ar
  26   14   18 1
  27   15   50 1
  28   16   51 1
  29   16   52 1
  30   16   53 1
  31   17   36 1
  32   17   39 1
  33   17   54 1
  34   18   19 am
  35   18   20 2
  36   19   21 1
  37   19   55 1
  38   21   22 1
  39   21   31 1
  40   21   33 1
  41   22   23 am
  42   22   24 2
  43   23   25 1
  44   23   56 1
  45   25   26 ar
  46   25   30 ar
  47   26   27 ar
  48   26   57 1
  49   27   28 ar
  50   27   58 1
  51   28   29 ar
  52   28   34 1
  53   29   30 ar
  54   29   40 1
  55   30   59 1
  56   31   32 1
  57   31   60 1
  58   31   61 1
  59   32   33 1
  60   32   62 1
  61   32   63 1
  62   33   64 1
  63   33   65 1
  64   34   35 2
  65   34   66 1
  66   35   41 1
  67   35   67 1
  68   36   37 1
  69   36   68 1
  70   36   69 1
  71   37   38 1
  72   37   70 1
  73   37   71 1
  74   38   39 1
  75   38   72 1
  76   38   73 1
  77   39   74 1
  78   39   75 1
  79   41   42 2
  80   41   43 1
  81   43   76 1

#	End of record

