#	Name: ASD10160328
#	Creating user name:	WinNT
#	Creation time:	15. 06. 2019 21:25

#	Modifying user name:	WinNT
#	Modification time:	15. 06. 2019 21:25

#	Program:	/corina/corina34_cracker 3.40 0067  02.08.2006

@<TRIPOS>MOLECULE
ASD10160328
  11   11    0    0    0
SMALL
NO_CHARGES


@<TRIPOS>ATOM
   1 C1            -0.0167     1.3801     0.0096 C.ar    
   2 C2             0.0021    -0.0041     0.0020 C.ar    
   3 C3             1.2227    -0.6627    -0.0132 C.ar    
   4 C4             2.3826     0.0973    -0.0203 C.ar    
   5 C5             2.2853     1.4755    -0.0119 C.ar    
   6 N6             1.1077     2.0694     0.0026 N.ar    
   7 I7            -1.8515     2.3912     0.0238 I       
   8 Cl8           -1.4826    -0.9037     0.0120 Cl      
   9 H9             1.2686    -1.7417    -0.0191 H       
  10 H10            3.3502    -0.3823    -0.0318 H       
  11 H11            3.1844     2.0738    -0.0170 H       
@<TRIPOS>BOND
   1    1    2 ar
   2    1    6 ar
   3    1    7 1
   4    2    3 ar
   5    2    8 1
   6    3    4 ar
   7    3    9 1
   8    4    5 ar
   9    4   10 1
  10    5    6 ar
  11    5   11 1

#	End of record

