#	Name: ASD10410091
#	Creating user name:	WinNT
#	Creation time:	15. 06. 2019 21:26

#	Modifying user name:	WinNT
#	Modification time:	15. 06. 2019 21:26

#	Program:	/corina/corina34_cracker 3.40 0067  02.08.2006

@<TRIPOS>MOLECULE
ASD10410091
  75   81    0    0    0
SMALL
NO_CHARGES


@<TRIPOS>ATOM
   1 C1             0.0314     1.1177     0.1417 C.ar    
   2 C2             0.1862    -0.1666     0.6469 C.ar    
   3 C3             1.4585    -0.6735     0.8771 C.ar    
   4 C4             2.5695     0.0996     0.6041 C.ar    
   5 C5             2.4147     1.3839     0.0989 C.ar    
   6 C6             1.1424     1.8906    -0.1317 C.ar    
   7 N7             3.5414     2.1681    -0.1775 N.pl3   
   8 C8             4.7198     1.5654    -0.6154 C.2     
   9 N9             5.8621     2.1802    -0.8069 N.2     
  10 N10            4.8665     0.2662    -0.9017 N.2     
  11 C11            6.1030     0.0332    -1.2856 C.2     
  12 N12            6.7808     1.2127    -1.2450 N.pl3   
  13 C13            8.1146     1.4183    -1.5713 C.ar    
  14 N14            6.6217    -1.1907    -1.6599 N.pl3   
  15 N15           -0.9400    -0.9500     0.9245 N.3     
  16 C16           -0.5498    -2.2664     1.4481 C.3     
  17 C17           -1.8064    -3.0604     1.8128 C.3     
  18 N18           -2.6564    -3.2012     0.6223 N.3     
  19 C19           -3.0467    -1.8847     0.0987 C.3     
  20 C20           -1.7900    -1.0908    -0.2660 C.3     
  21 C21           -3.8385    -4.0233     0.9136 C.3     
  22 N22            8.6301     0.9082    -2.6810 N.ar    
  23 C23            9.8993     1.0965    -3.0045 C.ar    
  24 N24           10.7291     1.7913    -2.2627 N.ar    
  25 C25           10.3108     2.3515    -1.1183 C.ar    
  26 C26            8.9570     2.1816    -0.7324 C.ar    
  27 C27           11.1700     3.0996    -0.3033 C.ar    
  28 C28           10.6944     3.6505     0.8537 C.ar    
  29 C29            9.3564     3.4765     1.2369 C.ar    
  30 C30            8.4952     2.7568     0.4588 C.ar    
  31 C31           -4.7227    -4.1614    -0.3467 C.3     
  32 C32           -4.7488    -5.6918    -0.6442 C.3     
  33 C33           -5.6066    -6.2989     0.5077 C.3     
  34 C34           -4.7223    -6.1608     1.7680 C.3     
  35 C35           -3.4134    -5.4833     1.2589 C.3     
  36 C36           -3.3069    -6.1022    -0.1794 C.3     
  37 O37            8.9105     4.0351     2.3936 O.3     
  38 C38            7.5380     3.8225     2.7298 C.3     
  39 O39           11.5288     4.3757     1.6431 O.3     
  40 C40           12.8801     4.5176     1.2007 C.3     
  41 H41           -0.9579     1.5102    -0.0415 H       
  42 H42            1.5789    -1.6723     1.2700 H       
  43 H43            3.5589    -0.2944     0.7838 H       
  44 H44            1.0220     2.8892    -0.5249 H       
  45 H45            3.5020     3.1307    -0.0643 H       
  46 H46            6.0567    -1.9791    -1.6543 H       
  47 H47            7.5511    -1.2620    -1.9284 H       
  48 H48            0.0144    -2.8074     0.6884 H       
  49 H49            0.0684    -2.1358     2.3363 H       
  50 H50           -1.5204    -4.0481     2.1743 H       
  51 H51           -2.3565    -2.5328     2.5920 H       
  52 H52           -3.6648    -2.0153    -0.7896 H       
  53 H53           -3.6108    -1.3438     0.8584 H       
  54 H54           -2.0760    -0.1030    -0.6275 H       
  55 H55           -1.2399    -1.6183    -1.0453 H       
  56 H56           -4.4103    -3.5882     1.7333 H       
  57 H57           10.2688     0.6585    -3.9199 H       
  58 H58           12.2024     3.2400    -0.5873 H       
  59 H59            7.4666     2.6280     0.7619 H       
  60 H60           -5.7299    -3.7961    -0.1461 H       
  61 H61           -4.2804    -3.6193    -1.1825 H       
  62 H62           -5.0398    -5.9757    -1.6556 H       
  63 H63           -6.5321    -5.7362     0.6293 H       
  64 H64           -5.8225    -7.3485     0.3081 H       
  65 H65           -5.2131    -5.5302     2.5093 H       
  66 H66           -4.5034    -7.1425     2.1881 H       
  67 H67           -2.5415    -5.5855     1.9050 H       
  68 H68           -3.1793    -7.1843    -0.1504 H       
  69 H69           -2.5324    -5.6198    -0.7757 H       
  70 H70            7.3496     2.7535     2.8290 H       
  71 H71            7.3137     4.3201     3.6732 H       
  72 H72            6.9037     4.2317     1.9434 H       
  73 H73           13.3398     3.5330     1.1154 H       
  74 H74           12.8944     5.0107     0.2287 H       
  75 H75           13.4370     5.1175     1.9206 H       
@<TRIPOS>BOND
   1    1    2 ar
   2    1    6 ar
   3    1   41 1
   4    2    3 ar
   5    2   15 1
   6    3    4 ar
   7    3   42 1
   8    4    5 ar
   9    4   43 1
  10    5    6 ar
  11    5    7 1
  12    6   44 1
  13    7    8 1
  14    7   45 1
  15    8    9 2
  16    8   10 1
  17    9   12 1
  18   10   11 2
  19   11   12 1
  20   11   14 1
  21   12   13 1
  22   13   22 ar
  23   13   26 ar
  24   14   46 1
  25   14   47 1
  26   15   16 1
  27   15   20 1
  28   16   17 1
  29   16   48 1
  30   16   49 1
  31   17   18 1
  32   17   50 1
  33   17   51 1
  34   18   19 1
  35   18   21 1
  36   19   20 1
  37   19   52 1
  38   19   53 1
  39   20   54 1
  40   20   55 1
  41   21   31 1
  42   21   35 1
  43   21   56 1
  44   22   23 ar
  45   23   24 ar
  46   23   57 1
  47   24   25 ar
  48   25   26 ar
  49   25   27 ar
  50   26   30 ar
  51   27   28 ar
  52   27   58 1
  53   28   29 ar
  54   28   39 1
  55   29   30 ar
  56   29   37 1
  57   30   59 1
  58   31   32 1
  59   31   60 1
  60   31   61 1
  61   32   33 1
  62   32   36 1
  63   32   62 1
  64   33   34 1
  65   33   63 1
  66   33   64 1
  67   34   35 1
  68   34   65 1
  69   34   66 1
  70   35   36 1
  71   35   67 1
  72   36   68 1
  73   36   69 1
  74   37   38 1
  75   38   70 1
  76   38   71 1
  77   38   72 1
  78   39   40 1
  79   40   73 1
  80   40   74 1
  81   40   75 1

#	End of record

