#	Name: ASD10100007
#	Creating user name:	WinNT
#	Creation time:	15. 06. 2019 21:24

#	Modifying user name:	WinNT
#	Modification time:	15. 06. 2019 21:24

#	Program:	/corina/corina34_cracker 3.40 0067  02.08.2006

@<TRIPOS>MOLECULE
ASD10100007
  35   36    0    0    0
SMALL
NO_CHARGES


@<TRIPOS>ATOM
   1 C1            -0.0162     1.3411     0.0094 C.2     
   2 N2             0.0021    -0.0041     0.0020 N.am    
   3 C3             1.1709    -0.6745    -0.0127 C.2     
   4 C4             2.3818     0.0407    -0.0204 C.2     
   5 C5             2.3446     1.4087    -0.0127 C.2     
   6 N6             1.1272     2.0506     0.0023 N.am    
   7 O7            -1.0829     1.9250     0.0176 O.2     
   8 O8             1.1786    -1.8942    -0.0189 O.2     
   9 N9             3.6193    -0.6435    -0.0354 N.pl3   
  10 C10            3.6465    -2.1083    -0.0431 C.3     
  11 C11            5.0981    -2.5914    -0.0591 C.3     
  12 C12            1.0758     3.5147     0.0102 C.3     
  13 C13            1.0714     4.0096     1.4336 C.ar    
  14 C14            2.2658     4.2786     2.0755 C.ar    
  15 C15            2.2618     4.7325     3.3812 C.ar    
  16 C16            1.0634     4.9178     4.0448 C.ar    
  17 C17           -0.1310     4.6496     3.4026 C.ar    
  18 C18           -0.1271     4.1999     2.0955 C.ar    
  19 N19            3.5132     2.1355    -0.0195 N.pl3   
  20 H20           -0.8339    -0.4960     0.0077 H       
  21 H21            4.4502    -0.1430    -0.0407 H       
  22 H22            3.1478    -2.4855     0.8497 H       
  23 H23            3.1312    -2.4766    -0.9301 H       
  24 H24            5.6134    -2.2231     0.8280 H       
  25 H25            5.1183    -3.6812    -0.0647 H       
  26 H26            5.5968    -2.2141    -0.9518 H       
  27 H27            1.9476     3.9116    -0.5099 H       
  28 H28            0.1689     3.8491    -0.4936 H       
  29 H29            3.2021     4.1338     1.5570 H       
  30 H30            3.1950     4.9419     3.8829 H       
  31 H31            1.0604     5.2717     5.0652 H       
  32 H32           -1.0672     4.7941     3.9213 H       
  33 H33           -1.0604     3.9939     1.5925 H       
  34 H34            4.3686     1.6783    -0.0298 H       
  35 H35            3.4814     3.1049    -0.0140 H       
@<TRIPOS>BOND
   1    1    2 am
   2    1    6 am
   3    1    7 2
   4    2    3 am
   5    2   20 1
   6    3    4 1
   7    3    8 2
   8    4    5 2
   9    4    9 1
  10    5    6 1
  11    5   19 1
  12    6   12 1
  13    9   10 1
  14    9   21 1
  15   10   11 1
  16   10   22 1
  17   10   23 1
  18   11   24 1
  19   11   25 1
  20   11   26 1
  21   12   13 1
  22   12   27 1
  23   12   28 1
  24   13   14 ar
  25   13   18 ar
  26   14   15 ar
  27   14   29 1
  28   15   16 ar
  29   15   30 1
  30   16   17 ar
  31   16   31 1
  32   17   18 ar
  33   17   32 1
  34   18   33 1
  35   19   34 1
  36   19   35 1

#	End of record

