#	Name: ASD14880005
#	Creating user name:	WinNT
#	Creation time:	15. 06. 2019 21:31

#	Modifying user name:	WinNT
#	Modification time:	15. 06. 2019 21:31

#	Program:	/corina/corina34_cracker 3.40 0067  02.08.2006

@<TRIPOS>MOLECULE
ASD14880005
  28   30    0    0    0
SMALL
NO_CHARGES


@<TRIPOS>ATOM
   1 C1            -0.0164     1.3586     0.0095 C.ar    
   2 C2             0.0021    -0.0041     0.0020 C.ar    
   3 C3             1.1896    -0.7384    -0.0128 C.ar    
   4 C4             2.4169    -0.1462    -0.0213 C.ar    
   5 C5             1.2434     2.0882     0.0014 C.ar    
   6 N6             3.5767    -0.9253    -0.0366 N.3     
   7 C7             3.6427    -1.7951     1.1468 C.3     
   8 C8             4.8950    -2.6716     1.0601 C.3     
   9 O9             6.0486    -1.8352     0.9379 O.3     
  10 C10            6.0179    -0.9752    -0.2044 C.3     
  11 C11            4.7770    -0.0816    -0.1305 C.3     
  12 N12            1.6678     3.3247     0.0036 N.2     
  13 C13            2.5068     1.3069    -0.0148 C.ar    
  14 N14            3.4235     2.2390    -0.0187 N.2     
  15 O15            2.8831     3.3275    -0.0082 O.3     
  16 N16           -1.2316     2.0482     0.0190 N.pl3   
  17 H17           -0.9377    -0.5363     0.0081 H       
  18 H18            1.1333    -1.8169    -0.0174 H       
  19 H19            3.6891    -1.1822     2.0469 H       
  20 H20            2.7566    -2.4289     1.1825 H       
  21 H21            4.9785    -3.2773     1.9624 H       
  22 H22            4.8238    -3.3229     0.1890 H       
  23 H23            6.9135    -0.3541    -0.2166 H       
  24 H24            5.9793    -1.5772    -1.1123 H       
  25 H25            4.7189     0.5355    -1.0271 H       
  26 H26            4.8415     0.5588     0.7492 H       
  27 H27           -2.0680     1.5569     0.0203 H       
  28 H28           -1.2388     3.0181     0.0243 H       
@<TRIPOS>BOND
   1    1    2 ar
   2    1    5 ar
   3    1   16 1
   4    2    3 ar
   5    2   17 1
   6    3    4 ar
   7    3   18 1
   8    4   13 ar
   9    4    6 1
  10    5   13 ar
  11    5   12 2
  12    6    7 1
  13    6   11 1
  14    7    8 1
  15    7   19 1
  16    7   20 1
  17    8    9 1
  18    8   21 1
  19    8   22 1
  20    9   10 1
  21   10   11 1
  22   10   23 1
  23   10   24 1
  24   11   25 1
  25   11   26 1
  26   12   15 1
  27   13   14 2
  28   14   15 1
  29   16   27 1
  30   16   28 1

#	End of record

