#	Name: ASD11710010
#	Creating user name:	WinNT
#	Creation time:	15. 06. 2019 21:29

#	Modifying user name:	WinNT
#	Modification time:	15. 06. 2019 21:29

#	Program:	/corina/corina34_cracker 3.40 0067  02.08.2006

@<TRIPOS>MOLECULE
ASD11710010
  47   49    0    0    0
SMALL
NO_CHARGES


@<TRIPOS>ATOM
   1 C1             2.9656     5.4271     2.6492 C.ar    
   2 C2             2.0803     6.4879     2.6928 C.ar    
   3 C3             1.0293     6.5483     1.7969 C.ar    
   4 C4             0.8638     5.5482     0.8572 C.ar    
   5 C5             1.7496     4.4878     0.8130 C.ar    
   6 C6             2.7998     4.4267     1.7098 C.ar    
   7 C7             1.5688     3.3972    -0.2112 C.3     
   8 N8             2.3048     3.7445    -1.4294 N.am    
   9 C9             3.5878     3.3580    -1.5748 C.2     
  10 C10            4.2979     3.6159    -2.8457 C.ar    
  11 O11            4.1610     2.7975    -0.6612 O.2     
  12 C12            4.0320     4.7764    -3.5742 C.ar    
  13 C13            5.2414     2.7027    -3.3192 C.ar    
  14 C14            5.9008     2.9496    -4.5055 C.ar    
  15 C15            5.6291     4.0995    -5.2253 C.ar    
  16 C16            4.6985     5.0112    -4.7591 C.ar    
  17 S17            6.4767     4.4077    -6.7390 S.o2    
  18 N18            5.5068     3.8597    -7.9643 N.am    
  19 C19            5.1738     2.5053    -8.0388 C.ar    
  20 C20            3.8597     2.1239    -8.2782 C.ar    
  21 C21            6.1569     1.5371    -7.8793 C.ar    
  22 C22            5.8249     0.1984    -7.9539 C.ar    
  23 C23            4.5157    -0.1790    -8.1875 C.ar    
  24 C24            3.5339     0.7829    -8.3518 C.ar    
  25 O25            6.5435     5.8200    -6.8811 O.2     
  26 O26            7.6260     3.5720    -6.7326 O.2     
  27 Cl27           1.8911     0.3043    -8.6450 Cl      
  28 C28            1.6462     4.5117    -2.4895 C.3     
  29 H29            3.7893     5.3822     3.3462 H       
  30 H30            2.2097     7.2693     3.4270 H       
  31 H31            0.3373     7.3768     1.8315 H       
  32 H32            0.0422     5.5950     0.1577 H       
  33 H33            3.4920     3.5984     1.6750 H       
  34 H34            1.9498     2.4572     0.1879 H       
  35 H35            0.5096     3.2900    -0.4448 H       
  36 H36            3.3059     5.4887    -3.2114 H       
  37 H37            5.4549     1.8051    -2.7579 H       
  38 H38            6.6311     2.2438    -4.8730 H       
  39 H39            4.4910     5.9069    -5.3257 H       
  40 H40            5.1700     4.4793    -8.6302 H       
  41 H41            3.0937     2.8743    -8.4064 H       
  42 H42            7.1802     1.8309    -7.6975 H       
  43 H43            6.5892    -0.5545    -7.8299 H       
  44 H44            4.2590    -1.2264    -8.2458 H       
  45 H45            1.8196     5.5758    -2.3291 H       
  46 H46            2.0541     4.2189    -3.4569 H       
  47 H47            0.5750     4.3113    -2.4711 H       
@<TRIPOS>BOND
   1    1    2 ar
   2    1    6 ar
   3    1   29 1
   4    2    3 ar
   5    2   30 1
   6    3    4 ar
   7    3   31 1
   8    4    5 ar
   9    4   32 1
  10    5    6 ar
  11    5    7 1
  12    6   33 1
  13    7    8 1
  14    7   34 1
  15    7   35 1
  16    8    9 am
  17    8   28 1
  18    9   10 1
  19    9   11 2
  20   10   12 ar
  21   10   13 ar
  22   12   16 ar
  23   12   36 1
  24   13   14 ar
  25   13   37 1
  26   14   15 ar
  27   14   38 1
  28   15   16 ar
  29   15   17 1
  30   16   39 1
  31   17   18 am
  32   17   25 2
  33   17   26 2
  34   18   19 1
  35   18   40 1
  36   19   20 ar
  37   19   21 ar
  38   20   24 ar
  39   20   41 1
  40   21   22 ar
  41   21   42 1
  42   22   23 ar
  43   22   43 1
  44   23   24 ar
  45   23   44 1
  46   24   27 1
  47   28   45 1
  48   28   46 1
  49   28   47 1

#	End of record

