#	Name: ASD13490054
#	Creating user name:	WinNT
#	Creation time:	15. 06. 2019 21:30

#	Modifying user name:	WinNT
#	Modification time:	15. 06. 2019 21:30

#	Program:	/corina/corina34_cracker 3.40 0067  02.08.2006

@<TRIPOS>MOLECULE
ASD13490054
  57   62    0    0    0
SMALL
NO_CHARGES


@<TRIPOS>ATOM
   1 N1            -0.0227     1.3247     0.2204 N.ar    
   2 C2            -0.0087     0.0088     0.3315 C.ar    
   3 C3             1.1951    -0.6803     0.4798 C.ar    
   4 C4             2.3875     0.0348     0.5093 C.ar    
   5 C5             2.3353     1.4131     0.3896 C.ar    
   6 C6             1.0986     2.0373     0.2448 C.ar    
   7 N7             1.2028    -2.0789     0.5983 N.pl3   
   8 C8             1.9766    -2.9530    -0.1197 C.2     
   9 C9             1.6677    -4.1914     0.3104 C.2     
  10 N10            0.7317    -4.0818     1.2645 N.2     
  11 C11            0.4492    -2.8207     1.4500 C.2     
  12 C12            1.0327     3.5118     0.1165 C.2     
  13 N13            2.1221     4.2788     0.1339 N.2     
  14 C14            1.9407     5.5572     0.0129 C.2     
  15 S15            0.2196     5.8935    -0.1447 S.3     
  16 C16           -0.1309     4.1705    -0.0316 C.2     
  17 C17            2.2692    -5.4779    -0.1940 C.3     
  18 O18           -1.1775    -0.6801     0.3016 O.3     
  19 C19           -2.3763     0.0824     0.1480 C.3     
  20 N20            2.9464     6.5112     0.0084 N.pl3   
  21 N21            4.3456     8.0561    -1.2244 N.pl3   
  22 C22            4.6568     8.8866    -0.0588 C.3     
  23 C23            3.6119     8.6256     1.0346 C.3     
  24 C24            3.4538     7.1172     1.2551 C.3     
  25 C25            3.5431     6.9513    -1.1768 C.2     
  26 C26            4.2603     7.2520    -3.2583 C.2     
  27 N27            4.7731     8.2157    -2.5438 N.2     
  28 C28            3.4738     6.4421    -2.4196 C.2     
  29 C29            2.7141     5.2314    -2.9039 C.3     
  30 C30            2.6139     5.3062    -4.4323 C.3     
  31 C31            4.0013     5.5547    -5.0285 C.3     
  32 C32            4.4396     6.9946    -4.7346 C.3     
  33 H33            3.3334    -0.4739     0.6234 H       
  34 H34            3.2432     1.9977     0.4091 H       
  35 H35            2.6958    -2.6978    -0.8839 H       
  36 H36           -0.2663    -2.4328     2.1600 H       
  37 H37           -1.1118     3.7205    -0.0722 H       
  38 H38            3.1505    -5.7237     0.3985 H       
  39 H39            1.5368    -6.2804    -0.1061 H       
  40 H40            2.5553    -5.3599    -1.2391 H       
  41 H41           -3.2352    -0.5887     0.1398 H       
  42 H42           -2.4702     0.7827     0.9779 H       
  43 H43           -2.3377     0.6347    -0.7909 H       
  44 H44            5.6480     8.6321     0.3165 H       
  45 H45            4.6315     9.9386    -0.3430 H       
  46 H46            3.9323     9.0998     1.9623 H       
  47 H47            2.6538     9.0449     0.7273 H       
  48 H48            2.7456     6.9377     2.0640 H       
  49 H49            4.4202     6.6808     1.5073 H       
  50 H50            3.2449     4.3245    -2.6144 H       
  51 H51            1.7143     5.2271    -2.4699 H       
  52 H52            2.2173     4.3663    -4.8162 H       
  53 H53            1.9473     6.1218    -4.7126 H       
  54 H54            4.7158     4.8606    -4.5860 H       
  55 H55            3.9658     5.3993    -6.1068 H       
  56 H56            3.8247     7.6898    -5.3062 H       
  57 H57            5.4878     7.1221    -5.0052 H       
@<TRIPOS>BOND
   1    1    2 ar
   2    1    6 ar
   3    2    3 ar
   4    2   18 1
   5    3    4 ar
   6    3    7 1
   7    4    5 ar
   8    4   33 1
   9    5    6 ar
  10    5   34 1
  11    6   12 1
  12    7    8 1
  13    7   11 1
  14    8    9 2
  15    8   35 1
  16    9   10 1
  17    9   17 1
  18   10   11 2
  19   11   36 1
  20   12   13 1
  21   12   16 2
  22   13   14 2
  23   14   15 1
  24   14   20 1
  25   15   16 1
  26   16   37 1
  27   17   38 1
  28   17   39 1
  29   17   40 1
  30   18   19 1
  31   19   41 1
  32   19   42 1
  33   19   43 1
  34   20   25 1
  35   20   24 1
  36   21   22 1
  37   21   27 1
  38   21   25 1
  39   22   23 1
  40   22   44 1
  41   22   45 1
  42   23   24 1
  43   23   46 1
  44   23   47 1
  45   24   48 1
  46   24   49 1
  47   25   28 2
  48   26   27 2
  49   26   28 1
  50   26   32 1
  51   28   29 1
  52   29   30 1
  53   29   50 1
  54   29   51 1
  55   30   31 1
  56   30   52 1
  57   30   53 1
  58   31   32 1
  59   31   54 1
  60   31   55 1
  61   32   56 1
  62   32   57 1

#	End of record

