#	Name: ASD10420060
#	Creating user name:	WinNT
#	Creation time:	15. 06. 2019 21:27

#	Modifying user name:	WinNT
#	Modification time:	15. 06. 2019 21:27

#	Program:	/corina/corina34_cracker 3.40 0067  02.08.2006

@<TRIPOS>MOLECULE
ASD10420060
  13   13    0    0    0
SMALL
NO_CHARGES


@<TRIPOS>ATOM
   1 C1            -0.0167     1.3790     0.0096 C.ar    
   2 O2             1.1596     3.4476     0.0100 O.3     
   3 C3             0.0021    -0.0041     0.0020 C.ar    
   4 C4             1.2094    -0.6806    -0.0131 C.ar    
   5 C5             2.4001     0.0250    -0.0207 C.ar    
   6 C6             2.3854     1.4082    -0.0127 C.ar    
   7 C7             1.1760     2.0882     0.0020 C.ar    
   8 Br8           -1.6667     2.3028     0.0224 Br      
   9 Br9           -1.6229    -0.9712     0.0130 Br      
  10 Br10           1.2323    -2.5714    -0.0229 Br      
  11 Br11           4.0479    -0.9023    -0.0414 Br      
  12 Br12           4.0125     2.3716    -0.0218 Br      
  13 H13            1.1634     3.8358     0.8956 H       
@<TRIPOS>BOND
   1    1    3 ar
   2    1    7 ar
   3    1    8 1
   4    2    7 1
   5    2   13 1
   6    3    4 ar
   7    3    9 1
   8    4    5 ar
   9    4   10 1
  10    5    6 ar
  11    5   11 1
  12    6    7 ar
  13    6   12 1

#	End of record

