#	Name: ASD11030072
#	Creating user name:	WinNT
#	Creation time:	15. 06. 2019 21:29

#	Modifying user name:	WinNT
#	Modification time:	15. 06. 2019 21:29

#	Program:	/corina/corina34_cracker 3.40 0067  02.08.2006

@<TRIPOS>MOLECULE
ASD11030072
  37   37    0    0    0
SMALL
NO_CHARGES


@<TRIPOS>ATOM
   1 C1            -0.3473     1.8674    -1.3719 C.ar    
   2 C2            -0.1104     0.5458    -0.9982 C.ar    
   3 C3            -1.1414    -0.2531    -0.5963 C.ar    
   4 C4            -2.4474     0.2523    -0.5577 C.ar    
   5 C5            -2.6905     1.5857    -0.9342 C.ar    
   6 C6            -1.6364     2.3865    -1.3335 C.ar    
   7 C7            -3.5560    -0.6050    -0.1272 C.2     
   8 C8            -3.6717    -1.8602    -0.6202 C.2     
   9 N9             0.7114     2.6721    -1.7797 N.pl3   
  10 C10            2.0719     2.1301    -1.8157 C.3     
  11 C11           -4.8105    -2.6402    -0.3090 C.2     
  12 O12           -5.6858    -2.1826     0.4017 O.2     
  13 O13           -4.9260    -3.8919    -0.8006 O.3     
  14 C14           -1.6425    -3.2850    -0.6571 C.3     
  15 C15           -2.5878    -2.4270    -1.5004 C.3     
  16 O16           -3.9517     2.0849    -0.9003 O.3     
  17 C17           -5.5992     3.8285    -1.1939 C.3     
  18 C18           -4.1210     3.4474    -1.2968 C.3     
  19 H19            0.8947     0.1515    -1.0270 H       
  20 H20           -0.9502    -1.2763    -0.3081 H       
  21 H21           -1.8155     3.4113    -1.6235 H       
  22 H22           -4.2803    -0.2349     0.5833 H       
  23 H23            0.5488     3.5922    -2.0403 H       
  24 H24            2.7615     2.9018    -2.1579 H       
  25 H25            2.3594     1.8032    -0.8164 H       
  26 H26            2.1072     1.2820    -2.4995 H       
  27 H27           -5.7370    -4.3460    -0.5338 H       
  28 H28           -0.7755    -3.5655    -1.2551 H       
  29 H29           -1.3150    -2.7165     0.2134 H       
  30 H30           -2.1637    -4.1842    -0.3286 H       
  31 H31           -3.0374    -3.0412    -2.2806 H       
  32 H32           -2.0276    -1.6114    -1.9577 H       
  33 H33           -6.1869     3.1841    -1.8477 H       
  34 H34           -5.9354     3.7053    -0.1645 H       
  35 H35           -5.7283     4.8677    -1.4964 H       
  36 H36           -3.5333     4.0917    -0.6430 H       
  37 H37           -3.7848     3.5706    -2.3263 H       
@<TRIPOS>BOND
   1    1    2 ar
   2    1    9 1
   3    1    6 ar
   4    2    3 ar
   5    2   19 1
   6    3    4 ar
   7    3   20 1
   8    4    5 ar
   9    4    7 1
  10    5    6 ar
  11    5   16 1
  12    6   21 1
  13    7    8 2
  14    7   22 1
  15    8   11 1
  16    8   15 1
  17    9   10 1
  18    9   23 1
  19   10   24 1
  20   10   25 1
  21   10   26 1
  22   11   12 2
  23   11   13 1
  24   13   27 1
  25   14   15 1
  26   14   28 1
  27   14   29 1
  28   14   30 1
  29   15   31 1
  30   15   32 1
  31   16   18 1
  32   17   18 1
  33   17   33 1
  34   17   34 1
  35   17   35 1
  36   18   36 1
  37   18   37 1

#	End of record

