#	Name: ASD11000090
#	Creating user name:	WinNT
#	Creation time:	15. 06. 2019 21:28

#	Modifying user name:	WinNT
#	Modification time:	15. 06. 2019 21:28

#	Program:	/corina/corina34_cracker 3.40 0067  02.08.2006

@<TRIPOS>MOLECULE
ASD11000090
  60   63    0    0    0
SMALL
NO_CHARGES


@<TRIPOS>ATOM
   1 C1             0.4532     1.3557    -0.6714 C.ar    
   2 C2             0.3906     0.0023    -0.4022 C.ar    
   3 C3             1.5557    -0.7482    -0.3458 C.ar    
   4 C4             2.7836    -0.1396    -0.5592 C.ar    
   5 C5             2.8462     1.2138    -0.8284 C.ar    
   6 C6             1.6811     1.9642    -0.8853 C.ar    
   7 O7             1.7426     3.2964    -1.1508 O.3     
   8 C8             0.5037     4.0072    -1.1942 C.3     
   9 O9             1.4941    -2.0805    -0.0808 O.3     
  10 C10            2.7189    -2.8132    -0.1509 C.3     
  11 C11            2.4321    -4.3048     0.0326 C.3     
  12 N12            1.9861    -4.5505     1.4081 N.am    
  13 C13            1.3561    -4.7317    -0.9345 C.ar    
  14 C14            0.2638    -5.4727    -0.5408 C.ar    
  15 C15            1.4951    -4.3533    -2.2631 C.ar    
  16 C16           -0.6867    -5.8492    -1.4823 C.ar    
  17 C17           -0.5508    -5.4785    -2.8072 C.ar    
  18 C18            0.5479    -4.7208    -3.2013 C.ar    
  19 C19            1.3339    -5.8407     1.6867 C.3     
  20 C20            0.0329    -5.8917     0.8875 C.3     
  21 S21            2.2075    -3.4222     2.5998 S.o2    
  22 O22            2.0844    -2.1510     1.9768 O.2     
  23 O23            0.6899    -4.3455    -4.5007 O.3     
  24 C24            1.8436    -3.5689    -4.8292 C.3     
  25 O25           -1.4865    -5.8520    -3.7207 O.3     
  26 C26           -2.5867    -6.6283    -3.2423 C.3     
  27 O27            1.4009    -3.8322     3.6955 O.2     
  28 C28            3.8805    -3.5528     3.1374 C.ar    
  29 C29            4.8398    -2.7013     2.6232 C.ar    
  30 C30            6.1534    -2.8037     3.0458 C.ar    
  31 C31            6.5056    -3.7585     3.9827 C.ar    
  32 C32            5.5451    -4.6097     4.4963 C.ar    
  33 C33            4.2321    -4.5035     4.0777 C.ar    
  34 Cl34           7.3592    -1.7347     2.3999 Cl      
  35 H35           -0.4543     1.9392    -0.7198 H       
  36 H36           -0.5655    -0.4715    -0.2354 H       
  37 H37            3.6908    -0.7238    -0.5146 H       
  38 H38            3.8023     1.6878    -0.9942 H       
  39 H39            0.0028     3.9236    -0.2298 H       
  40 H40            0.6949     5.0574    -1.4145 H       
  41 H41           -0.1316     3.5827    -1.9716 H       
  42 H42            3.1850    -2.6497    -1.1225 H       
  43 H43            3.3914    -2.4730     0.6366 H       
  44 H44            3.3404    -4.8754    -0.1615 H       
  45 H45            2.3498    -3.7668    -2.5663 H       
  46 H46           -1.5393    -6.4372    -1.1761 H       
  47 H47            1.9871    -6.6578     1.3805 H       
  48 H48            1.1159    -5.9214     2.7517 H       
  49 H49           -0.6950    -5.2212     1.3444 H       
  50 H50           -0.3582    -6.9090     0.9039 H       
  51 H51            1.8328    -2.6418    -4.2561 H       
  52 H52            2.7434    -4.1348    -4.5879 H       
  53 H53            1.8347    -3.3376    -5.8944 H       
  54 H54           -2.2149    -7.5562    -2.8077 H       
  55 H55           -3.1276    -6.0629    -2.4835 H       
  56 H56           -3.2568    -6.8580    -4.0707 H       
  57 H57            4.5643    -1.9563     1.8915 H       
  58 H58            7.5308    -3.8391     4.3126 H       
  59 H59            5.8199    -5.3552     5.2278 H       
  60 H60            3.4819    -5.1685     4.4795 H       
@<TRIPOS>BOND
   1    1    2 ar
   2    1    6 ar
   3    1   35 1
   4    2    3 ar
   5    2   36 1
   6    3    4 ar
   7    3    9 1
   8    4    5 ar
   9    4   37 1
  10    5    6 ar
  11    5   38 1
  12    6    7 1
  13    7    8 1
  14    8   39 1
  15    8   40 1
  16    8   41 1
  17    9   10 1
  18   10   11 1
  19   10   42 1
  20   10   43 1
  21   11   12 1
  22   11   13 1
  23   11   44 1
  24   12   19 1
  25   12   21 am
  26   13   14 ar
  27   13   15 ar
  28   14   16 ar
  29   14   20 1
  30   15   18 ar
  31   15   45 1
  32   16   17 ar
  33   16   46 1
  34   17   18 ar
  35   17   25 1
  36   18   23 1
  37   19   20 1
  38   19   47 1
  39   19   48 1
  40   20   49 1
  41   20   50 1
  42   21   22 2
  43   21   27 2
  44   21   28 1
  45   23   24 1
  46   24   51 1
  47   24   52 1
  48   24   53 1
  49   25   26 1
  50   26   54 1
  51   26   55 1
  52   26   56 1
  53   28   29 ar
  54   28   33 ar
  55   29   30 ar
  56   29   57 1
  57   30   31 ar
  58   30   34 1
  59   31   32 ar
  60   31   58 1
  61   32   33 ar
  62   32   59 1
  63   33   60 1

#	End of record

