#	Name: ASD10160309
#	Creating user name:	WinNT
#	Creation time:	15. 06. 2019 21:25

#	Modifying user name:	WinNT
#	Modification time:	15. 06. 2019 21:25

#	Program:	/corina/corina34_cracker 3.40 0067  02.08.2006

@<TRIPOS>MOLECULE
ASD10160309
  28   29    0    0    0
SMALL
NO_CHARGES


@<TRIPOS>ATOM
   1 C1            -1.4284     1.5145    -1.1576 C.2     
   2 C2            -1.7216     0.0701    -1.1904 C.ar    
   3 C3            -1.9712    -0.5689    -2.4107 C.ar    
   4 C4            -2.2453    -1.9228    -2.4339 C.ar    
   5 C5            -2.2732    -2.6465    -1.2531 C.ar    
   6 C6            -2.0269    -2.0174    -0.0403 C.ar    
   7 C7            -1.7460    -0.6683    -0.0040 C.ar    
   8 O8            -1.4029     2.1530    -2.1912 O.2     
   9 O9            -1.1940     2.1279     0.0193 O.3     
  10 F10           -2.5418    -3.9702    -1.2818 F       
  11 F11           -1.9444     0.1365    -3.5626 F       
  12 Cl12          -2.0649    -2.9337     1.4337 Cl      
  13 C13           -1.0418     3.4782    -0.0082 C.ar    
  14 C14           -2.1487     4.2991    -0.1690 C.ar    
  15 C15           -1.9913     5.6713    -0.1962 C.ar    
  16 C16           -0.7321     6.2267    -0.0637 C.ar    
  17 C17            0.3727     5.4108     0.0962 C.ar    
  18 C18            0.2200     4.0382     0.1302 C.ar    
  19 C19           -0.5633     7.7239    -0.0942 C.3     
  20 H20           -2.4384    -2.4176    -3.3742 H       
  21 H21           -1.5499    -0.1817     0.9401 H       
  22 H22           -3.1324     3.8657    -0.2732 H       
  23 H23           -2.8526     6.3107    -0.3213 H       
  24 H24            1.3553     5.8470     0.1987 H       
  25 H25            1.0826     3.4015     0.2599 H       
  26 H26           -0.6451     8.1195     0.9182 H       
  27 H27            0.4166     7.9708    -0.5027 H       
  28 H28           -1.3394     8.1644    -0.7202 H       
@<TRIPOS>BOND
   1    1    2 1
   2    1    8 2
   3    1    9 1
   4    2    3 ar
   5    2    7 ar
   6    3    4 ar
   7    3   11 1
   8    4    5 ar
   9    4   20 1
  10    5    6 ar
  11    5   10 1
  12    6    7 ar
  13    6   12 1
  14    7   21 1
  15    9   13 1
  16   13   14 ar
  17   13   18 ar
  18   14   15 ar
  19   14   22 1
  20   15   16 ar
  21   15   23 1
  22   16   17 ar
  23   16   19 1
  24   17   18 ar
  25   17   24 1
  26   18   25 1
  27   19   26 1
  28   19   27 1
  29   19   28 1

#	End of record

