#	Name: ASD10160254
#	Creating user name:	WinNT
#	Creation time:	15. 06. 2019 21:25

#	Modifying user name:	WinNT
#	Modification time:	15. 06. 2019 21:25

#	Program:	/corina/corina34_cracker 3.40 0067  02.08.2006

@<TRIPOS>MOLECULE
ASD10160254
  38   40    0    0    0
SMALL
NO_CHARGES


@<TRIPOS>ATOM
   1 C1            -0.0729     1.4692     0.0211 C.2     
   2 C2            -0.0385    -0.0049     0.0101 C.ar    
   3 C3             1.1803    -0.6777    -0.1376 C.ar    
   4 C4             1.2069    -2.0578    -0.1468 C.ar    
   5 C5             0.0272    -2.7774    -0.0098 C.ar    
   6 C6            -1.1861    -2.1117     0.1373 C.ar    
   7 C7            -1.2220    -0.7350     0.1529 C.ar    
   8 O8             0.9584     2.1024    -0.0982 O.2     
   9 N9            -1.2481     2.1148     0.1579 N.am    
  10 S10           -1.2868     3.7703     0.1702 S.o2    
  11 O11           -2.6597     4.0874     0.3538 O.2     
  12 O12           -0.3144     4.1364     1.1396 O.2     
  13 C13           -0.7398     4.2483    -1.4920 C.3     
  14 O14            0.0575    -4.1343    -0.0197 O.3     
  15 C15           -0.6872    -4.5875    -3.4509 C.ar    
  16 N16           -0.4673    -4.0481    -2.2747 N.ar    
  17 C17           -0.1544    -4.7677    -1.2013 C.ar    
  18 C18           -0.0399    -6.1299    -1.2567 C.ar    
  19 C19           -0.2614    -6.7750    -2.4850 C.ar    
  20 C20           -0.1640    -8.1676    -2.6258 C.ar    
  21 C21           -0.3905    -8.7358    -3.8425 C.ar    
  22 C22           -0.7172    -7.9551    -4.9503 C.ar    
  23 C23           -0.8199    -6.6011    -4.8509 C.ar    
  24 C24           -0.5944    -5.9789    -3.6127 C.ar    
  25 F25            2.3281     0.0222    -0.2714 F       
  26 Cl26          -2.6565    -3.0186     0.3080 Cl      
  27 H27            2.1461    -2.5784    -0.2610 H       
  28 H28           -2.1640    -0.2200     0.2712 H       
  29 H29           -2.0712     1.6098     0.2490 H       
  30 H30           -1.4217     3.8309    -2.2329 H       
  31 H31           -0.7349     5.3352    -1.5744 H       
  32 H32            0.2658     3.8661    -1.6675 H       
  33 H33           -0.9431    -3.9616    -4.2930 H       
  34 H34            0.2159    -6.6977    -0.3744 H       
  35 H35            0.0890    -8.7842    -1.7759 H       
  36 H36           -0.3156    -9.8077    -3.9510 H       
  37 H37           -0.8913    -8.4323    -5.9034 H       
  38 H38           -1.0732    -6.0098    -5.7185 H       
@<TRIPOS>BOND
   1    1    2 1
   2    1    8 2
   3    1    9 am
   4    2    3 ar
   5    2    7 ar
   6    3    4 ar
   7    3   25 1
   8    4    5 ar
   9    4   27 1
  10    5    6 ar
  11    5   14 1
  12    6    7 ar
  13    6   26 1
  14    7   28 1
  15    9   10 am
  16    9   29 1
  17   10   11 2
  18   10   12 2
  19   10   13 1
  20   13   30 1
  21   13   31 1
  22   13   32 1
  23   14   17 1
  24   15   16 ar
  25   15   24 ar
  26   15   33 1
  27   16   17 ar
  28   17   18 ar
  29   18   19 ar
  30   18   34 1
  31   19   20 ar
  32   19   24 ar
  33   20   21 ar
  34   20   35 1
  35   21   22 ar
  36   21   36 1
  37   22   23 ar
  38   22   37 1
  39   23   24 ar
  40   23   38 1

#	End of record

