#	Name: ASD10610053
#	Creating user name:	WinNT
#	Creation time:	15. 06. 2019 21:27

#	Modifying user name:	WinNT
#	Modification time:	15. 06. 2019 21:27

#	Program:	/corina/corina34_cracker 3.40 0067  02.08.2006

@<TRIPOS>MOLECULE
ASD10610053
  54   57    0    0    0
SMALL
NO_CHARGES


@<TRIPOS>ATOM
   1 O1             0.0578     1.5098     0.0802 O.3     
   2 C2            -0.0045     0.0796     0.0042 C.3     
   3 C3             1.3535     0.0244     0.7148 C.3     
   4 C4             1.4874     1.4064     0.0633 C.3     
   5 C5             1.2746     0.0462     2.2196 C.2     
   6 O6             0.3218     0.5568     2.7695 O.2     
   7 N7             2.2628    -0.5018     2.9542 N.am    
   8 C8             2.2429    -0.3820     4.4142 C.3     
   9 C9             2.8749     0.9494     4.8252 C.3     
  10 C10            3.0245    -1.5180     5.0221 C.ar    
  11 C11            2.5004    -2.2034     6.1062 C.ar    
  12 C12            3.2236    -3.2477     6.6609 C.ar    
  13 C13            4.4625    -3.5680     6.0979 C.ar    
  14 C14            4.9191    -2.8295     5.0078 C.ar    
  15 N15            4.1945    -1.8481     4.5108 N.ar    
  16 F16            1.2984    -1.8577     6.6171 F       
  17 C17            5.2778    -4.6754     6.6520 C.ar    
  18 C18            5.7981    -5.6625     5.8006 C.ar    
  19 C19            6.5636    -6.6984     6.3332 C.ar    
  20 C20            6.8062    -6.7489     7.6938 C.ar    
  21 C21            6.2921    -5.7742     8.5324 C.ar    
  22 C22            5.5358    -4.7381     8.0182 C.ar    
  23 N23            5.9574    -6.4575     3.4306 N.2     
  24 N24            5.5191    -6.0603     2.2857 N.pl3   
  25 N25            4.8323    -4.9829     2.4426 N.2     
  26 N26            4.8201    -4.6723     3.6945 N.2     
  27 C27            5.5345    -5.6039     4.3426 C.2     
  28 C28            5.7643    -6.7298     1.0059 C.3     
  29 F29            7.0679    -7.6529     5.5209 F       
  30 Cl30           6.6050    -5.8506    10.2383 Cl      
  31 N31            2.2742    -0.9876     0.1912 N.am    
  32 C32            1.9701    -2.2961     0.3000 C.2     
  33 O33            0.8962    -2.6336     0.7514 O.2     
  34 C34            2.9645    -3.3399    -0.1391 C.3     
  35 F35            2.4260    -4.6141     0.0700 F       
  36 F36            3.2484    -3.1708    -1.4985 F       
  37 F37            4.1422    -3.2037     0.6037 F       
  38 H38           -0.8172    -0.3499     0.5900 H       
  39 H39            0.0255    -0.3012    -1.0167 H       
  40 H40            1.9070     1.3719    -0.9421 H       
  41 H41            1.9819     2.1393     0.7008 H       
  42 H42            2.9871    -0.9756     2.5163 H       
  43 H43            1.2126    -0.4196     4.7678 H       
  44 H44            2.3096     1.7711     4.3855 H       
  45 H45            2.8601     1.0386     5.9115 H       
  46 H46            3.9052     0.9870     4.4716 H       
  47 H47            2.8401    -3.7995     7.5064 H       
  48 H48            5.8746    -3.0665     4.5638 H       
  49 H49            7.3993    -7.5527     8.1043 H       
  50 H50            5.1413    -3.9789     8.6774 H       
  51 H51            4.9746    -7.4575     0.8193 H       
  52 H52            5.7738    -5.9905     0.2050 H       
  53 H53            6.7271    -7.2396     1.0412 H       
  54 H54            3.1028    -0.7160    -0.2339 H       
@<TRIPOS>BOND
   1    1    2 1
   2    1    4 1
   3    2    3 1
   4    2   38 1
   5    2   39 1
   6    3    4 1
   7    3    5 1
   8    3   31 1
   9    4   40 1
  10    4   41 1
  11    5    6 2
  12    5    7 am
  13    7    8 1
  14    7   42 1
  15    8    9 1
  16    8   10 1
  17    8   43 1
  18    9   44 1
  19    9   45 1
  20    9   46 1
  21   10   11 ar
  22   10   15 ar
  23   11   12 ar
  24   11   16 1
  25   12   13 ar
  26   12   47 1
  27   13   14 ar
  28   13   17 1
  29   14   15 ar
  30   14   48 1
  31   17   18 ar
  32   17   22 ar
  33   18   19 ar
  34   18   27 1
  35   19   20 ar
  36   19   29 1
  37   20   21 ar
  38   20   49 1
  39   21   22 ar
  40   21   30 1
  41   22   50 1
  42   23   24 1
  43   23   27 2
  44   24   25 1
  45   24   28 1
  46   25   26 2
  47   26   27 1
  48   28   51 1
  49   28   52 1
  50   28   53 1
  51   31   32 am
  52   31   54 1
  53   32   33 2
  54   32   34 1
  55   34   35 1
  56   34   36 1
  57   34   37 1

#	End of record

