#	Name: ASD10410203
#	Creating user name:	WinNT
#	Creation time:	15. 06. 2019 21:27

#	Modifying user name:	WinNT
#	Modification time:	15. 06. 2019 21:27

#	Program:	/corina/corina34_cracker 3.40 0067  02.08.2006

@<TRIPOS>MOLECULE
ASD10410203
  58   61    0    0    0
SMALL
NO_CHARGES


@<TRIPOS>ATOM
   1 C1            -0.0134     1.8250     0.0510 C.ar    
   2 C2             0.0186     0.4385     0.0253 C.ar    
   3 C3             1.2349    -0.2283     0.0364 C.ar    
   4 C4             2.4151     0.4879     0.0735 C.ar    
   5 C5             2.3840     1.8761     0.0993 C.ar    
   6 C6             1.1658     2.5428     0.0877 C.ar    
   7 O7            -1.1431    -0.2675    -0.0103 O.3     
   8 N8             3.5797     2.6028     0.1374 N.pl3   
   9 C9             3.6515     3.8596    -0.4635 C.2     
  10 N10            4.6829     4.6682    -0.4164 N.2     
  11 N11            2.6811     4.4320    -1.1857 N.2     
  12 C12            3.0788     5.6147    -1.6035 C.2     
  13 N13            4.3370     5.8167    -1.1466 N.pl3   
  14 C14            5.1333     6.9438    -1.3597 C.ar    
  15 N15            2.3434     6.4936    -2.3758 N.pl3   
  16 C16            6.1396     7.2545    -0.4554 C.ar    
  17 C17           -1.0359    -1.6923    -0.0353 C.3     
  18 C18           -2.4358    -2.3085    -0.0738 C.3     
  19 N19           -3.1139    -1.9062    -1.3132 N.3     
  20 C20           -4.4266    -2.5542    -1.4290 C.3     
  21 N21            4.9239     7.7020    -2.4254 N.ar    
  22 C22            5.6564     8.7789    -2.6642 C.ar    
  23 C23            6.6773     9.1493    -1.7954 C.ar    
  24 C24            6.9256     8.3753    -0.6746 C.ar    
  25 N25            5.4028     9.5466    -3.7947 N.pl3   
  26 C26            6.2087    10.7395    -4.0660 C.3     
  27 C27           -5.1629    -2.0031    -2.6522 C.3     
  28 C28           -4.3282    -2.2707    -3.9077 C.3     
  29 C29           -2.9492    -1.6264    -3.7412 C.3     
  30 C30           -2.2771    -2.1884    -2.4864 C.3     
  31 H31           -0.9608     2.3434     0.0378 H       
  32 H32            1.2589    -1.3078     0.0164 H       
  33 H33            3.3620    -0.0315     0.0829 H       
  34 H34            1.1406     3.6223     0.1074 H       
  35 H35            4.3584     2.2324     0.5816 H       
  36 H36            1.4461     6.2572    -2.6582 H       
  37 H37            2.7246     7.3469    -2.6354 H       
  38 H38            6.3082     6.6301     0.4095 H       
  39 H39           -0.4793    -1.9993    -0.9208 H       
  40 H40           -0.5134    -2.0330     0.8586 H       
  41 H41           -2.3555    -3.3950    -0.0397 H       
  42 H42           -3.0101    -1.9595     0.7844 H       
  43 H43           -4.2919    -3.6301    -1.5405 H       
  44 H44           -5.0116    -2.3526    -0.5317 H       
  45 H45            7.2721    10.0284    -1.9948 H       
  46 H46            7.7124     8.6409     0.0159 H       
  47 H47            4.6922     9.2925    -4.4041 H       
  48 H48            5.8657    11.2077    -4.9886 H       
  49 H49            6.1045    11.4438    -3.2406 H       
  50 H50            7.2556    10.4547    -4.1705 H       
  51 H51           -6.1307    -2.4955    -2.7469 H       
  52 H52           -5.3101    -0.9295    -2.5352 H       
  53 H53           -4.2136    -3.3457    -4.0466 H       
  54 H54           -4.8283    -1.8416    -4.7759 H       
  55 H55           -2.3354    -1.8497    -4.6138 H       
  56 H56           -3.0616    -0.5468    -3.6413 H       
  57 H57           -1.3009    -1.7211    -2.3571 H       
  58 H58           -2.1525    -3.2660    -2.5929 H       
@<TRIPOS>BOND
   1    1    2 ar
   2    1    6 ar
   3    1   31 1
   4    2    3 ar
   5    2    7 1
   6    3    4 ar
   7    3   32 1
   8    4    5 ar
   9    4   33 1
  10    5    6 ar
  11    5    8 1
  12    6   34 1
  13    7   17 1
  14    8    9 1
  15    8   35 1
  16    9   10 2
  17    9   11 1
  18   10   13 1
  19   11   12 2
  20   12   13 1
  21   12   15 1
  22   13   14 1
  23   14   16 ar
  24   14   21 ar
  25   15   36 1
  26   15   37 1
  27   16   24 ar
  28   16   38 1
  29   17   18 1
  30   17   39 1
  31   17   40 1
  32   18   19 1
  33   18   41 1
  34   18   42 1
  35   19   20 1
  36   19   30 1
  37   20   27 1
  38   20   43 1
  39   20   44 1
  40   21   22 ar
  41   22   23 ar
  42   22   25 1
  43   23   24 ar
  44   23   45 1
  45   24   46 1
  46   25   26 1
  47   25   47 1
  48   26   48 1
  49   26   49 1
  50   26   50 1
  51   27   28 1
  52   27   51 1
  53   27   52 1
  54   28   29 1
  55   28   53 1
  56   28   54 1
  57   29   30 1
  58   29   55 1
  59   29   56 1
  60   30   57 1
  61   30   58 1

#	End of record

