#	Name: ASD10160224
#	Creating user name:	WinNT
#	Creation time:	15. 06. 2019 21:25

#	Modifying user name:	WinNT
#	Modification time:	15. 06. 2019 21:25

#	Program:	/corina/corina34_cracker 3.40 0067  02.08.2006

@<TRIPOS>MOLECULE
ASD10160224
  38   40    0    0    0
SMALL
NO_CHARGES


@<TRIPOS>ATOM
   1 C1            -0.1360     1.4672     0.0333 C.2     
   2 C2            -0.0850    -0.0063     0.0191 C.ar    
   3 C3             1.1402    -0.6649    -0.1387 C.ar    
   4 C4             1.1828    -2.0446    -0.1508 C.ar    
   5 C5             0.0130    -2.7784    -0.0068 C.ar    
   6 C6            -1.2079    -2.1270     0.1500 C.ar    
   7 C7            -1.2594    -0.7501     0.1691 C.ar    
   8 O8             0.8872     2.1122    -0.0923 O.2     
   9 N9            -1.3173     2.0992     0.1798 N.am    
  10 S10           -1.3746     3.7542     0.1957 S.o2    
  11 O11           -2.7497     4.0554     0.3898 O.2     
  12 O12           -0.3994     4.1293     1.1587 O.2     
  13 C13           -0.8451     4.2414    -1.4695 C.3     
  14 O14            0.0593    -4.1349    -0.0193 O.3     
  15 N15            0.2741    -6.9028    -0.2083 N.ar    
  16 C16            0.3794    -8.2076    -0.2773 C.ar    
  17 C17            0.1708    -8.8977    -1.4696 C.ar    
  18 C18           -0.1530    -8.2126    -2.6057 C.ar    
  19 C19           -0.2656    -6.8114    -2.5271 C.ar    
  20 C20           -0.5955    -6.0408    -3.6532 C.ar    
  21 C21           -0.6962    -4.6850    -3.5392 C.ar    
  22 C22           -0.4748    -4.0512    -2.3176 C.ar    
  23 C23           -0.1520    -4.7692    -1.2014 C.ar    
  24 C24           -0.0398    -6.1733    -1.2826 C.ar    
  25 F25           -1.0135    -3.9467    -4.6252 F       
  26 F26           -2.3430    -2.8463     0.2892 F       
  27 F27            2.2788     0.0485    -0.2793 F       
  28 H28            2.1273    -2.5539    -0.2729 H       
  29 H29           -2.2062    -0.2461     0.2952 H       
  30 H30           -2.1340     1.5847     0.2759 H       
  31 H31           -1.5275     3.8177    -2.2063 H       
  32 H32           -0.8531     5.3284    -1.5498 H       
  33 H33            0.1634     3.8709    -1.6530 H       
  34 H34            0.6349    -8.7622     0.6135 H       
  35 H35            0.2655    -9.9733    -1.4953 H       
  36 H36           -0.3179    -8.7312    -3.5387 H       
  37 H37           -0.7686    -6.5192    -4.6059 H       
  38 H38           -0.5605    -2.9766    -2.2526 H       
@<TRIPOS>BOND
   1    1    2 1
   2    1    8 2
   3    1    9 am
   4    2    3 ar
   5    2    7 ar
   6    3    4 ar
   7    3   27 1
   8    4    5 ar
   9    4   28 1
  10    5    6 ar
  11    5   14 1
  12    6    7 ar
  13    6   26 1
  14    7   29 1
  15    9   10 am
  16    9   30 1
  17   10   11 2
  18   10   12 2
  19   10   13 1
  20   13   31 1
  21   13   32 1
  22   13   33 1
  23   14   23 1
  24   15   16 ar
  25   15   24 ar
  26   16   17 ar
  27   16   34 1
  28   17   18 ar
  29   17   35 1
  30   18   19 ar
  31   18   36 1
  32   19   20 ar
  33   19   24 ar
  34   20   21 ar
  35   20   37 1
  36   21   22 ar
  37   21   25 1
  38   22   23 ar
  39   22   38 1
  40   23   24 ar

#	End of record

