#	Name: ASD10220081
#	Creating user name:	WinNT
#	Creation time:	15. 06. 2019 21:26

#	Modifying user name:	WinNT
#	Modification time:	15. 06. 2019 21:26

#	Program:	/corina/corina34_cracker 3.40 0067  02.08.2006

@<TRIPOS>MOLECULE
ASD10220081
  35   37    0    0    0
SMALL
NO_CHARGES


@<TRIPOS>ATOM
   1 C1             0.1599     3.5848    -0.3669 C.2     
   2 C2             0.3969     4.8536    -0.9412 C.2     
   3 C3            -0.6207     5.6764    -1.2806 C.2     
   4 C4            -2.0207     5.3055    -1.0754 C.2     
   5 C5            -2.3357     4.0769    -0.5174 C.2     
   6 C6            -1.2584     3.1478    -0.1384 C.2     
   7 O7            -3.1735     5.9524    -1.3324 O.3     
   8 C8            -4.2329     5.2233    -0.9769 C.2     
   9 C9            -3.7996     4.0228    -0.4524 C.2     
  10 C10           -4.6311     2.9209     0.0634 C.2     
  11 O11           -4.1126     1.8721     0.3965 O.2     
  12 C12           -6.0926     3.0897     0.1757 C.ar    
  13 C13           -6.9362     1.9806     0.0673 C.ar    
  14 C14           -8.3008     2.1401     0.1724 C.ar    
  15 C15           -8.8412     3.4011     0.3859 C.ar    
  16 C16           -8.0052     4.5124     0.4946 C.ar    
  17 C17           -6.6366     4.3590     0.3965 C.ar    
  18 Cl18          -0.2543     7.2217    -1.9816 Cl      
  19 O19            1.0869     2.8582    -0.0680 O.2     
  20 O20           -1.5084     2.0666     0.3513 O.2     
  21 O21          -10.1866     3.5529     0.4888 O.3     
  22 C22          -10.9837     2.3731     0.3674 C.3     
  23 O23           -8.5379     5.7462     0.7034 O.3     
  24 C24           -7.6230     6.8392     0.8047 C.3     
  25 H25            1.4141     5.1736    -1.1126 H       
  26 H26           -5.2646     5.5248    -1.0823 H       
  27 H27           -6.5185     0.9987    -0.0992 H       
  28 H28           -8.9515     1.2823     0.0881 H       
  29 H29           -5.9882     5.2186     0.4809 H       
  30 H30          -10.7080     1.6663     1.1501 H       
  31 H31          -12.0371     2.6343     0.4684 H       
  32 H32          -10.8140     1.9187    -0.6087 H       
  33 H33           -8.1774     7.7629     0.9703 H       
  34 H34           -6.9438     6.6683     1.6399 H       
  35 H35           -7.0498     6.9201    -0.1189 H       
@<TRIPOS>BOND
   1    1    2 1
   2    1   19 2
   3    1    6 1
   4    2    3 2
   5    2   25 1
   6    3    4 1
   7    3   18 1
   8    4    5 2
   9    4    7 1
  10    5    6 1
  11    5    9 1
  12    6   20 2
  13    7    8 1
  14    8    9 2
  15    8   26 1
  16    9   10 1
  17   10   11 2
  18   10   12 1
  19   12   13 ar
  20   12   17 ar
  21   13   14 ar
  22   13   27 1
  23   14   15 ar
  24   14   28 1
  25   15   16 ar
  26   15   21 1
  27   16   17 ar
  28   16   23 1
  29   17   29 1
  30   21   22 1
  31   22   30 1
  32   22   31 1
  33   22   32 1
  34   23   24 1
  35   24   33 1
  36   24   34 1
  37   24   35 1

#	End of record

