#	Name: ASD10410023
#	Creating user name:	WinNT
#	Creation time:	15. 06. 2019 21:26

#	Modifying user name:	WinNT
#	Modification time:	15. 06. 2019 21:26

#	Program:	/corina/corina34_cracker 3.40 0067  02.08.2006

@<TRIPOS>MOLECULE
ASD10410023
  58   61    0    0    0
SMALL
NO_CHARGES


@<TRIPOS>ATOM
   1 C1             0.5826     1.3713     0.4858 C.ar    
   2 C2             0.6055    -0.0078     0.4972 C.ar    
   3 C3             1.6620    -0.6808     1.1096 C.ar    
   4 C4             2.6913     0.0439     1.7081 C.ar    
   5 C5             2.6604     1.4241     1.6921 C.ar    
   6 C6             1.6075     2.0886     1.0817 C.ar    
   7 F7             1.5808     3.4393     1.0680 F       
   8 Cl8            3.9413     2.3287     2.4369 Cl      
   9 C9             1.6902    -2.1631     1.1246 C.ar    
  10 N10            0.5607    -2.8594     1.2289 N.ar    
  11 C11            2.9030    -2.8509     1.0235 C.ar    
  12 C12            2.8798    -4.2337     1.0420 C.ar    
  13 N13            1.7192    -4.8606     1.1539 N.ar    
  14 C14            0.5837    -4.1831     1.2425 C.ar    
  15 C15            4.2053    -2.1031     0.8969 C.3     
  16 N16           -0.6090    -4.8775     1.3583 N.pl3   
  17 C17           -0.6183    -6.2750     1.2604 C.ar    
  18 C18           -1.5102    -7.0184     2.0220 C.ar    
  19 C19           -1.5197    -8.3957     1.9252 C.ar    
  20 C20           -0.6373    -9.0375     1.0661 C.ar    
  21 C21            0.2547    -8.2939     0.3044 C.ar    
  22 C22            0.2605    -6.9163     0.3974 C.ar    
  23 N23           -0.6466   -10.4336     0.9682 N.pl3   
  24 C24            0.1962   -11.1039    -0.0251 C.3     
  25 C25            1.0940   -12.1287     0.6736 C.3     
  26 C26            1.9279   -12.8681    -0.3752 C.3     
  27 N27            1.0348   -13.5413    -1.3268 N.3     
  28 C28            0.1960   -12.5727    -2.0441 C.3     
  29 C29           -0.6896   -11.8245    -1.0452 C.3     
  30 C30            1.7978   -14.3742    -2.2661 C.3     
  31 C31           -1.4991   -11.2247     1.8591 C.3     
  32 H32           -0.2333     1.8929     0.0076 H       
  33 H33           -0.1941    -0.5657     0.0327 H       
  34 H34            3.5114    -0.4733     2.1839 H       
  35 H35            3.7987    -4.7961     0.9655 H       
  36 H36            4.6116    -1.9104     1.8898 H       
  37 H37            4.9137    -2.7017     0.3243 H       
  38 H38            4.0324    -1.1565     0.3850 H       
  39 H39           -1.4379    -4.3962     1.5073 H       
  40 H40           -2.1962    -6.5193     2.6904 H       
  41 H41           -2.2131    -8.9740     2.5178 H       
  42 H42            0.9409    -8.7930    -0.3638 H       
  43 H43            0.9541    -6.3380    -0.1949 H       
  44 H44            0.8148   -10.3657    -0.5356 H       
  45 H45            1.7572   -11.6163     1.3706 H       
  46 H46            0.4760   -12.8434     1.2170 H       
  47 H47            2.5559   -12.1546    -0.9088 H       
  48 H48            2.5579   -13.6085     0.1177 H       
  49 H49            0.8321   -11.8606    -2.5699 H       
  50 H50           -0.4320   -13.0985    -2.7634 H       
  51 H51           -1.3358   -12.5344    -0.5288 H       
  52 H52           -1.3009   -11.0947    -1.5761 H       
  53 H53            2.3528   -15.1312    -1.7121 H       
  54 H54            1.1121   -14.8611    -2.9595 H       
  55 H55            2.4945   -13.7481    -2.8235 H       
  56 H56           -2.4751   -11.3678     1.3954 H       
  57 H57           -1.0360   -12.1951     2.0380 H       
  58 H58           -1.6204   -10.6997     2.8066 H       
@<TRIPOS>BOND
   1    1    2 ar
   2    1    6 ar
   3    1   32 1
   4    2    3 ar
   5    2   33 1
   6    3    4 ar
   7    3    9 1
   8    4    5 ar
   9    4   34 1
  10    5    6 ar
  11    5    8 1
  12    6    7 1
  13    9   10 ar
  14    9   11 ar
  15   10   14 ar
  16   11   12 ar
  17   11   15 1
  18   12   13 ar
  19   12   35 1
  20   13   14 ar
  21   14   16 1
  22   15   36 1
  23   15   37 1
  24   15   38 1
  25   16   17 1
  26   16   39 1
  27   17   18 ar
  28   17   22 ar
  29   18   19 ar
  30   18   40 1
  31   19   20 ar
  32   19   41 1
  33   20   21 ar
  34   20   23 1
  35   21   22 ar
  36   21   42 1
  37   22   43 1
  38   23   24 1
  39   23   31 1
  40   24   25 1
  41   24   29 1
  42   24   44 1
  43   25   26 1
  44   25   45 1
  45   25   46 1
  46   26   27 1
  47   26   47 1
  48   26   48 1
  49   27   28 1
  50   27   30 1
  51   28   29 1
  52   28   49 1
  53   28   50 1
  54   29   51 1
  55   29   52 1
  56   30   53 1
  57   30   54 1
  58   30   55 1
  59   31   56 1
  60   31   57 1
  61   31   58 1

#	End of record

