#	Name: ASD10950034
#	Creating user name:	WinNT
#	Creation time:	15. 06. 2019 21:28

#	Modifying user name:	WinNT
#	Modification time:	15. 06. 2019 21:28

#	Program:	/corina/corina34_cracker 3.40 0067  02.08.2006

@<TRIPOS>MOLECULE
ASD10950034
  53   56    0    0    0
SMALL
NO_CHARGES


@<TRIPOS>ATOM
   1 C1            -0.0176     1.4478     0.0100 C.3     
   2 O2             0.0021    -0.0041     0.0020 O.3     
   3 C3             0.6006    -0.6019    -1.0465 C.2     
   4 O4             1.0925     0.0713    -1.9300 O.2     
   5 C5             0.6585    -2.0753    -1.1219 C.ar    
   6 C6             0.0942    -2.8524    -0.1083 C.ar    
   7 C7             0.1519    -4.2283    -0.1850 C.ar    
   8 C8             0.7673    -4.8399    -1.2631 C.ar    
   9 C9             1.3289    -4.0777    -2.2715 C.ar    
  10 C10            1.2737    -2.6991    -2.2112 C.ar    
  11 Cl11           1.9788    -1.7435    -3.4774 Cl      
  12 C12            0.8263    -6.3439    -1.3386 C.3     
  13 N13            0.5922    -6.7892    -2.7171 N.am    
  14 C14           -0.6189    -6.5496    -3.5059 C.3     
  15 C15           -0.4751    -5.2345    -4.2744 C.3     
  16 C16           -1.7208    -4.9880    -5.0858 C.2     
  17 C17           -1.9102    -5.3087    -6.3755 C.2     
  18 N18           -3.1649    -4.9317    -6.7704 N.pl3   
  19 C19           -3.8303    -4.3444    -5.7178 C.ar    
  20 C20           -2.9571    -4.3588    -4.6150 C.ar    
  21 C21           -3.3688    -3.8225    -3.3933 C.ar    
  22 C22           -4.6197    -3.2857    -3.2754 C.ar    
  23 C23           -5.4853    -3.2694    -4.3606 C.ar    
  24 C24           -5.1008    -3.7961    -5.5740 C.ar    
  25 C25            1.6856    -7.4559    -3.1292 C.2     
  26 O26            1.8235    -7.9584    -4.2265 O.2     
  27 C27            2.6957    -7.4858    -2.0484 C.2     
  28 C28            2.2082    -6.8286    -0.9670 C.2     
  29 C29            2.8666    -6.6344     0.2704 C.2     
  30 O30            3.9832    -7.0790     0.4400 O.2     
  31 C31            2.1814    -5.8756     1.3775 C.3     
  32 O32            3.9103    -8.0736    -2.1266 O.3     
  33 H33            1.0050     1.8251     0.0023 H       
  34 H34           -0.5448     1.8089    -0.8731 H       
  35 H35           -0.5278     1.7993     0.9068 H       
  36 H36           -0.3863    -2.3771     0.7341 H       
  37 H37           -0.2840    -4.8300     0.5988 H       
  38 H38            1.8075    -4.5617    -3.1099 H       
  39 H39            0.0830    -6.7815    -0.6722 H       
  40 H40           -0.7613    -7.3687    -4.2108 H       
  41 H41           -1.4800    -6.4892    -2.8403 H       
  42 H42           -0.3326    -4.4154    -3.5695 H       
  43 H43            0.3860    -5.2949    -4.9400 H       
  44 H44           -1.1803    -5.7920    -7.0079 H       
  45 H45           -3.5309    -5.0589    -7.6597 H       
  46 H46           -2.7011    -3.8323    -2.5446 H       
  47 H47           -4.9377    -2.8710    -2.3302 H       
  48 H48           -6.4711    -2.8419    -4.2517 H       
  49 H49           -5.7815    -3.7787    -6.4123 H       
  50 H50            1.1943    -5.5568     1.0427 H       
  51 H51            2.0783    -6.5205     2.2502 H       
  52 H52            2.7760    -5.0008     1.6405 H       
  53 H53            4.0887    -8.4960    -2.9780 H       
@<TRIPOS>BOND
   1    1    2 1
   2    1   33 1
   3    1   34 1
   4    1   35 1
   5    2    3 1
   6    3    4 2
   7    3    5 1
   8    5    6 ar
   9    5   10 ar
  10    6    7 ar
  11    6   36 1
  12    7    8 ar
  13    7   37 1
  14    8    9 ar
  15    8   12 1
  16    9   10 ar
  17    9   38 1
  18   10   11 1
  19   12   13 1
  20   12   28 1
  21   12   39 1
  22   13   14 1
  23   13   25 am
  24   14   15 1
  25   14   40 1
  26   14   41 1
  27   15   16 1
  28   15   42 1
  29   15   43 1
  30   16   17 2
  31   16   20 1
  32   17   18 1
  33   17   44 1
  34   18   19 1
  35   18   45 1
  36   19   20 ar
  37   19   24 ar
  38   20   21 ar
  39   21   22 ar
  40   21   46 1
  41   22   23 ar
  42   22   47 1
  43   23   24 ar
  44   23   48 1
  45   24   49 1
  46   25   26 2
  47   25   27 1
  48   27   28 2
  49   27   32 1
  50   28   29 1
  51   29   30 2
  52   29   31 1
  53   31   50 1
  54   31   51 1
  55   31   52 1
  56   32   53 1

#	End of record

