#	Name: ASD10160474
#	Creating user name:	WinNT
#	Creation time:	15. 06. 2019 21:26

#	Modifying user name:	WinNT
#	Modification time:	15. 06. 2019 21:26

#	Program:	/corina/corina34_cracker 3.40 0067  02.08.2006

@<TRIPOS>MOLECULE
ASD10160474
  38   39    0    0    0
SMALL
NO_CHARGES


@<TRIPOS>ATOM
   1 C1             2.2938    -2.4964    -4.8885 C.2     
   2 C2             1.7054    -2.9272    -3.6068 C.ar    
   3 C3             2.4574    -2.8526    -2.4301 C.ar    
   4 C4             1.9032    -3.2559    -1.2343 C.ar    
   5 C5             0.5969    -3.7368    -1.1982 C.ar    
   6 C6            -0.1519    -3.8122    -2.3661 C.ar    
   7 C7             0.3931    -3.4056    -3.5640 C.ar    
   8 O8             3.4332    -2.0760    -4.9231 O.2     
   9 O9             1.5696    -2.5743    -6.0222 O.3     
  10 F10            2.6281    -3.1850    -0.0965 F       
  11 O11            0.0538    -4.1332    -0.0192 O.3     
  12 C12           -2.3151    -3.9126     0.1077 C.ar    
  13 C13           -1.1830    -4.6974    -0.0438 C.ar    
  14 C14           -1.3278    -6.0705    -0.2218 C.ar    
  15 C15           -2.6065    -6.6016    -0.2407 C.ar    
  16 C16           -3.6947    -5.7520    -0.0823 C.ar    
  17 N17           -3.5189    -4.4524     0.0846 N.ar    
  18 O18           -4.9528    -6.2624    -0.0997 O.3     
  19 C19           -6.0300    -5.3385     0.0681 C.3     
  20 C20           -6.4726    -4.8170    -1.3005 C.3     
  21 C21           -7.2048    -6.0432     0.7496 C.3     
  22 Cl22          -2.8470    -8.3068    -0.4599 Cl      
  23 C23            2.2127    -2.1328    -7.2469 C.3     
  24 H24            3.4707    -2.4799    -2.4583 H       
  25 H25           -1.1646    -4.1861    -2.3340 H       
  26 H26           -0.1920    -3.4604    -4.4702 H       
  27 H27           -2.2106    -2.8472     0.2507 H       
  28 H28           -0.4633    -6.7064    -0.3427 H       
  29 H29           -5.6996    -4.5034     0.6857 H       
  30 H30           -7.2943    -4.1123    -1.1724 H       
  31 H31           -5.6357    -4.3150    -1.7859 H       
  32 H32           -6.8031    -5.6522    -1.9180 H       
  33 H33           -6.8895    -6.4148     1.7246 H       
  34 H34           -8.0264    -5.3386     0.8776 H       
  35 H35           -7.5352    -6.8784     0.1320 H       
  36 H36            2.4954    -1.0844    -7.1513 H       
  37 H37            3.1037    -2.7344    -7.4266 H       
  38 H38            1.5219    -2.2482    -8.0820 H       
@<TRIPOS>BOND
   1    1    2 1
   2    1    8 2
   3    1    9 1
   4    2    3 ar
   5    2    7 ar
   6    3    4 ar
   7    3   24 1
   8    4    5 ar
   9    4   10 1
  10    5    6 ar
  11    5   11 1
  12    6    7 ar
  13    6   25 1
  14    7   26 1
  15    9   23 1
  16   11   13 1
  17   12   13 ar
  18   12   17 ar
  19   12   27 1
  20   13   14 ar
  21   14   15 ar
  22   14   28 1
  23   15   16 ar
  24   15   22 1
  25   16   17 ar
  26   16   18 1
  27   18   19 1
  28   19   20 1
  29   19   21 1
  30   19   29 1
  31   20   30 1
  32   20   31 1
  33   20   32 1
  34   21   33 1
  35   21   34 1
  36   21   35 1
  37   23   36 1
  38   23   37 1
  39   23   38 1

#	End of record

