#	Name: ASD10160453
#	Creating user name:	WinNT
#	Creation time:	15. 06. 2019 21:26

#	Modifying user name:	WinNT
#	Modification time:	15. 06. 2019 21:26

#	Program:	/corina/corina34_cracker 3.40 0067  02.08.2006

@<TRIPOS>MOLECULE
ASD10160453
  32   34    0    0    0
SMALL
NO_CHARGES


@<TRIPOS>ATOM
   1 C1            -0.0264     1.4695    -0.1134 C.2     
   2 C2            -0.0039    -0.0047    -0.0894 C.ar    
   3 C3             0.0524    -0.6861     1.1321 C.ar    
   4 C4             0.0734    -2.0662     1.1494 C.ar    
   5 C5             0.0386    -2.7779    -0.0423 C.ar    
   6 C6            -0.0171    -2.1037    -1.2596 C.ar    
   7 C7            -0.0446    -0.7262    -1.2864 C.ar    
   8 O8             0.0040     2.0951     0.9289 O.2     
   9 N9            -0.0751     2.1236    -1.2908 N.am    
  10 F10           -0.0503    -2.8014    -2.4160 F       
  11 F11            0.0868     0.0057     2.2920 F       
  12 O12            0.0593    -4.1349    -0.0209 O.3     
  13 N13            0.2546    -6.9053     0.1568 N.ar    
  14 C14            0.3266    -8.2114     0.2429 C.ar    
  15 C15            1.5391    -8.8879     0.1261 C.ar    
  16 C16            2.6926    -8.1876    -0.0842 C.ar    
  17 C17            2.6106    -6.7850    -0.1764 C.ar    
  18 C18            3.7538    -5.9990    -0.3921 C.ar    
  19 C19            3.6360    -4.6434    -0.4764 C.ar    
  20 C20            2.3949    -4.0237    -0.3506 C.ar    
  21 C21            1.2611    -4.7562    -0.1402 C.ar    
  22 C22            1.3452    -6.1614    -0.0480 C.ar    
  23 Cl23           5.0527    -3.6761    -0.7425 Cl      
  24 H24            0.1172    -2.5932     2.0911 H       
  25 H25           -0.0926    -0.2046    -2.2308 H       
  26 H26           -0.0953     1.6246    -2.1223 H       
  27 H27           -0.0899     3.0933    -1.3066 H       
  28 H28           -0.5777    -8.7779     0.4090 H       
  29 H29            1.5667    -9.9648     0.2021 H       
  30 H30            3.6412    -8.6954    -0.1768 H       
  31 H31            4.7225    -6.4662    -0.4904 H       
  32 H32            2.3278    -2.9481    -0.4211 H       
@<TRIPOS>BOND
   1    1    2 1
   2    1    8 2
   3    1    9 am
   4    2    3 ar
   5    2    7 ar
   6    3    4 ar
   7    3   11 1
   8    4    5 ar
   9    4   24 1
  10    5    6 ar
  11    5   12 1
  12    6    7 ar
  13    6   10 1
  14    7   25 1
  15    9   26 1
  16    9   27 1
  17   12   21 1
  18   13   14 ar
  19   13   22 ar
  20   14   15 ar
  21   14   28 1
  22   15   16 ar
  23   15   29 1
  24   16   17 ar
  25   16   30 1
  26   17   18 ar
  27   17   22 ar
  28   18   19 ar
  29   18   31 1
  30   19   20 ar
  31   19   23 1
  32   20   21 ar
  33   20   32 1
  34   21   22 ar

#	End of record

