#	Name: ASD10350002
#	Creating user name:	WinNT
#	Creation time:	15. 06. 2019 21:26

#	Modifying user name:	WinNT
#	Modification time:	15. 06. 2019 21:26

#	Program:	/corina/corina34_cracker 3.40 0067  02.08.2006

@<TRIPOS>MOLECULE
ASD10350002
  71   72    0    0    0
SMALL
NO_CHARGES


@<TRIPOS>ATOM
   1 C1            -0.2660     2.3749    -0.4101 C.3     
   2 C2             0.1491     0.9033    -0.4656 C.3     
   3 C3             1.1865     0.6129     0.6280 C.3     
   4 C4             1.4223    -0.8921     0.6492 C.3     
   5 C5             1.7249    -1.4268    -0.7354 C.2     
   6 C6             1.4348    -0.7757    -1.8208 C.2     
   7 C7             0.8009     0.6001    -1.8088 C.3     
   8 C8             1.8783     1.6494    -2.0900 C.3     
   9 C9            -0.2618     0.6704    -2.9074 C.3     
  10 C10           -1.3530    -0.3651    -2.6284 C.3     
  11 C11           -2.3443    -0.3879    -3.7936 C.3     
  12 C12           -1.6347    -0.8780    -5.0574 C.3     
  13 O13           -2.5254    -0.7834    -6.1709 O.3     
  14 S14           -1.9209    -1.2474    -7.4883 S.o2    
  15 O15           -2.7939    -0.7602    -8.5450 O.co2   
  16 O16           -0.5903    -0.6649    -7.5675 O.co2   
  17 O17           -1.8788    -2.7007    -7.4418 O.co2   
  18 C18           -3.5017    -1.3314    -3.4602 C.3     
  19 C19           -4.3015    -0.7625    -2.2864 C.3     
  20 C20           -5.5250    -1.6440    -2.0280 C.3     
  21 C21           -6.3127    -1.0837    -0.8720 C.2     
  22 C22           -7.3104    -0.1842    -0.9428 C.2     
  23 O23           -7.7533     0.0572     0.3019 O.3     
  24 C24           -7.0501    -0.6788     1.1781 C.2     
  25 C25           -6.1490    -1.4070     0.4946 C.2     
  26 C26            1.6868    -1.3354    -3.2057 C.3     
  27 C27            2.7124    -2.4615    -3.1756 C.3     
  28 C28            2.2693    -3.4636    -2.1008 C.3     
  29 C29            2.4091    -2.7784    -0.7474 C.3     
  30 C30            3.8947    -2.5893    -0.4339 C.3     
  31 C31            1.7818    -3.6658     0.3295 C.3     
  32 H32            0.6091     3.0054    -0.5675 H       
  33 H33           -1.0023     2.5743    -1.1887 H       
  34 H34           -0.7005     2.5933     0.5654 H       
  35 H35           -0.7247     0.2670    -0.3251 H       
  36 H36            2.1186     1.1303     0.4006 H       
  37 H37            0.8064     0.9415     1.5952 H       
  38 H38            2.2631    -1.1115     1.3073 H       
  39 H39            0.5310    -1.3868     1.0351 H       
  40 H40            2.6305     1.6179    -1.3017 H       
  41 H41            2.3491     1.4384    -3.0501 H       
  42 H42            1.4228     2.6392    -2.1183 H       
  43 H43           -0.7024     1.6673    -2.9233 H       
  44 H44            0.1992     0.4615    -3.8727 H       
  45 H45           -0.8994    -1.3501    -2.5180 H       
  46 H46           -1.8777    -0.1017    -1.7101 H       
  47 H47           -2.7315     0.6172    -3.9609 H       
  48 H48           -0.7551    -0.2615    -5.2425 H       
  49 H49           -1.3295    -1.9158    -4.9234 H       
  50 H50           -4.1522    -1.4298    -4.3293 H       
  51 H51           -3.1061    -2.3103    -3.1897 H       
  52 H52           -3.6740    -0.7416    -1.3954 H       
  53 H53           -4.6271     0.2500    -2.5254 H       
  54 H54           -6.1525    -1.6649    -2.9191 H       
  55 H55           -5.1994    -2.6564    -1.7891 H       
  56 H56           -7.6905     0.2675    -1.8471 H       
  57 H57           -7.1877    -0.6876     2.2492 H       
  58 H58           -5.4328    -2.1001     0.9107 H       
  59 H59            0.7501    -1.7177    -3.6112 H       
  60 H60            2.0533    -0.5371    -3.8511 H       
  61 H61            2.7498    -2.9538    -4.1474 H       
  62 H62            3.6946    -2.0606    -2.9252 H       
  63 H63            1.2300    -3.7477    -2.2659 H       
  64 H64            2.9053    -4.3481    -2.1350 H       
  65 H65            4.3535    -1.9725    -1.2067 H       
  66 H66            4.0024    -2.0992     0.5337 H       
  67 H67            4.3866    -3.5616    -0.4055 H       
  68 H68            2.2934    -4.6281     0.3508 H       
  69 H69            1.8783    -3.1814     1.3012 H       
  70 H70            0.7267    -3.8203     0.1037 H       
  71 Na71           9.3866     8.0054     7.2492 Du      
@<TRIPOS>BOND
   1    1    2 1
   2    1   32 1
   3    1   33 1
   4    1   34 1
   5    2    3 1
   6    2    7 1
   7    2   35 1
   8    3    4 1
   9    3   36 1
  10    3   37 1
  11    4    5 1
  12    4   38 1
  13    4   39 1
  14    5    6 2
  15    5   29 1
  16    6    7 1
  17    6   26 1
  18    7    8 1
  19    7    9 1
  20    8   40 1
  21    8   41 1
  22    8   42 1
  23    9   10 1
  24    9   43 1
  25    9   44 1
  26   10   11 1
  27   10   45 1
  28   10   46 1
  29   11   12 1
  30   11   18 1
  31   11   47 1
  32   12   13 1
  33   12   48 1
  34   12   49 1
  35   13   14 1
  36   14   15 ar
  37   14   16 ar
  38   14   17 ar
  39   18   19 1
  40   18   50 1
  41   18   51 1
  42   19   20 1
  43   19   52 1
  44   19   53 1
  45   20   21 1
  46   20   54 1
  47   20   55 1
  48   21   22 2
  49   21   25 1
  50   22   23 1
  51   22   56 1
  52   23   24 1
  53   24   25 2
  54   24   57 1
  55   25   58 1
  56   26   27 1
  57   26   59 1
  58   26   60 1
  59   27   28 1
  60   27   61 1
  61   27   62 1
  62   28   29 1
  63   28   63 1
  64   28   64 1
  65   29   30 1
  66   29   31 1
  67   30   65 1
  68   30   66 1
  69   30   67 1
  70   31   68 1
  71   31   69 1
  72   31   70 1

#	End of record

