#	Name: ASD11000303
#	Creating user name:	WinNT
#	Creation time:	15. 06. 2019 21:29

#	Modifying user name:	WinNT
#	Modification time:	15. 06. 2019 21:29

#	Program:	/corina/corina34_cracker 3.40 0067  02.08.2006

@<TRIPOS>MOLECULE
ASD11000303
  36   38    0    0    0
SMALL
NO_CHARGES


@<TRIPOS>ATOM
   1 N1            -0.0158     1.3137     0.0093 N.ar    
   2 C2             3.9716     3.1065    -2.3824 C.2     
   3 N3             3.4120     3.2794    -1.1452 N.pl3   
   4 C4             2.3947     0.0914    -0.0203 C.ar    
   5 C5             2.2608     1.4686    -0.0116 C.ar    
   6 C6             0.0021    -0.0041     0.0020 C.ar    
   7 C7             1.3928    -4.9285    -0.0267 C.ar    
   8 C8             1.2257    -0.6791    -0.0133 C.ar    
   9 C9            -1.1065    -5.0930     0.0159 C.3     
  10 C10            2.0192     5.0741    -0.0023 C.3     
  11 C11            2.7778     4.4716    -1.1567 C.2     
  12 N12            2.9307     5.0155    -2.3331 N.2     
  13 C13            3.6604     4.1983    -3.1068 C.2     
  14 C14            3.4865     2.3452    -0.0191 C.3     
  15 N15            1.0589     2.0141     0.0028 N.ar    
  16 C16            1.2839    -2.1614    -0.0223 C.ar    
  17 C17            2.5164    -2.8124    -0.0380 C.ar    
  18 C18            2.5658    -4.1908    -0.0459 C.ar    
  19 C19            0.1657    -4.2855    -0.0054 C.ar    
  20 C20            0.1068    -2.9070    -0.0031 C.ar    
  21 F21           -0.8769    -6.3077     0.6709 F       
  22 F22           -2.1009    -4.3788     0.6930 F       
  23 F23            1.4458    -6.2784    -0.0345 F       
  24 H24            4.5547     2.2595    -2.7126 H       
  25 H25            3.3692    -0.3740    -0.0325 H       
  26 H26           -0.9241    -0.5595     0.0082 H       
  27 H27           -1.4308    -5.2871    -1.0064 H       
  28 H28            2.6959     5.6797     0.6005 H       
  29 H29            1.2136     5.7009    -0.3846 H       
  30 H30            1.5996     4.2775     0.6120 H       
  31 H31            3.9484     4.3835    -4.1311 H       
  32 H32            4.3767     1.7243    -0.1205 H       
  33 H33            3.5385     2.9052     0.9146 H       
  34 H34            3.4312    -2.2383    -0.0444 H       
  35 H35            3.5202    -4.6960    -0.0667 H       
  36 H36           -0.8502    -2.4066     0.0095 H       
@<TRIPOS>BOND
   1    1    6 ar
   2    1   15 ar
   3    2   13 2
   4    2    3 1
   5    2   24 1
   6    3   11 1
   7    3   14 1
   8    4    8 ar
   9    4   25 1
  10    4    5 ar
  11    5   15 ar
  12    5   14 1
  13    6   26 1
  14    6    8 ar
  15    7   18 ar
  16    7   23 1
  17    7   19 ar
  18    8   16 1
  19    9   19 1
  20    9   21 1
  21    9   27 1
  22    9   22 1
  23   10   28 1
  24   10   29 1
  25   10   30 1
  26   10   11 1
  27   11   12 2
  28   12   13 1
  29   13   31 1
  30   14   32 1
  31   14   33 1
  32   16   17 ar
  33   16   20 ar
  34   17   18 ar
  35   17   34 1
  36   18   35 1
  37   19   20 ar
  38   20   36 1

#	End of record

