#	Name: ASD10610172
#	Creating user name:	WinNT
#	Creation time:	15. 06. 2019 21:28

#	Modifying user name:	WinNT
#	Modification time:	15. 06. 2019 21:28

#	Program:	/corina/corina34_cracker 3.40 0067  02.08.2006

@<TRIPOS>MOLECULE
ASD10610172
  37   39    0    0    0
SMALL
NO_CHARGES


@<TRIPOS>ATOM
   1 N1            -0.0178     1.4648     0.0101 N.3     
   2 C2             0.0021    -0.0041     0.0020 C.3     
   3 C3            -1.4289    -0.5341     0.1123 C.3     
   4 C4             0.8136    -0.5019     1.1702 C.ar    
   5 C5             1.7336    -1.5199     0.9774 C.ar    
   6 C6             2.4774    -1.9733     2.0555 C.ar    
   7 C7             2.2660    -1.3789     3.3031 C.ar    
   8 C8             1.3215    -0.3600     3.4133 C.ar    
   9 N9             0.6412     0.0417     2.3593 N.ar    
  10 F10            1.9033    -2.0645    -0.2472 F       
  11 C11            3.0339    -1.8256     4.4899 C.ar    
  12 C12            3.6818    -0.8846     5.3062 C.ar    
  13 C13            4.4010    -1.3171     6.4197 C.ar    
  14 C14            4.4727    -2.6665     6.7139 C.ar    
  15 C15            3.8334    -3.5930     5.9074 C.ar    
  16 C16            3.1115    -3.1789     4.8037 C.ar    
  17 O17            3.0947     2.3041     3.9989 O.3     
  18 N18            2.9649     1.0984     3.9776 N.2     
  19 C19            3.6021     0.5601     4.9859 C.2     
  20 N20            4.1736     1.5699     5.6814 N.2     
  21 C21            3.8439     2.6660     5.0451 C.2     
  22 C22            4.2356     4.0716     5.4218 C.3     
  23 F23            5.0278    -0.4187     7.2104 F       
  24 Cl24           3.9328    -5.2836     6.2890 Cl      
  25 H25            0.9191     1.8392     0.0032 H       
  26 H26           -0.5563     1.8234    -0.7642 H       
  27 H27            0.4494    -0.3563    -0.9275 H       
  28 H28           -1.4141    -1.6240     0.1063 H       
  29 H29           -1.8762    -0.1819     1.0418 H       
  30 H30           -2.0159    -0.1741    -0.7326 H       
  31 H31            3.2014    -2.7656     1.9350 H       
  32 H32            1.1486     0.1074     4.3714 H       
  33 H33            5.0303    -2.9994     7.5768 H       
  34 H34            2.6112    -3.9066     4.1820 H       
  35 H35            3.8109     4.7721     4.7028 H       
  36 H36            3.8571     4.2996     6.4182 H       
  37 H37            5.3220     4.1597     5.4168 H       
@<TRIPOS>BOND
   1    1    2 1
   2    1   25 1
   3    1   26 1
   4    2    3 1
   5    2    4 1
   6    2   27 1
   7    3   28 1
   8    3   29 1
   9    3   30 1
  10    4    5 ar
  11    4    9 ar
  12    5    6 ar
  13    5   10 1
  14    6    7 ar
  15    6   31 1
  16    7    8 ar
  17    7   11 1
  18    8    9 ar
  19    8   32 1
  20   11   12 ar
  21   11   16 ar
  22   12   13 ar
  23   12   19 1
  24   13   14 ar
  25   13   23 1
  26   14   15 ar
  27   14   33 1
  28   15   16 ar
  29   15   24 1
  30   16   34 1
  31   17   18 1
  32   17   21 1
  33   18   19 2
  34   19   20 1
  35   20   21 2
  36   21   22 1
  37   22   35 1
  38   22   36 1
  39   22   37 1

#	End of record

