#	Name: ASD10410241
#	Creating user name:	WinNT
#	Creation time:	15. 06. 2019 21:27

#	Modifying user name:	WinNT
#	Modification time:	15. 06. 2019 21:27

#	Program:	/corina/corina34_cracker 3.40 0067  02.08.2006

@<TRIPOS>MOLECULE
ASD10410241
  58   63    0    0    0
SMALL
NO_CHARGES


@<TRIPOS>ATOM
   1 C1            -0.0183     1.3926    -0.0801 C.ar    
   2 C2            -0.0058     0.0095     0.0248 C.ar    
   3 C3             1.2006    -0.6691     0.1150 C.ar    
   4 C4             2.3904     0.0319     0.1004 C.ar    
   5 C5             2.3788     1.4166    -0.0050 C.ar    
   6 C6             1.1705     2.0952    -0.0952 C.ar    
   7 O7            -1.1769    -0.6815     0.0396 O.3     
   8 N8             3.5843     2.1280    -0.0193 N.pl3   
   9 C9             3.6716     3.3383    -0.7067 C.2     
  10 N10            4.7103     4.1387    -0.7076 N.2     
  11 N11            2.7110     3.8649    -1.4751 N.2     
  12 C12            3.1202     5.0118    -1.9737 C.2     
  13 N13            4.3822     5.2362    -1.5200 N.pl3   
  14 C14            5.1891     6.3362    -1.8041 C.ar    
  15 N15            2.3975     5.8392    -2.8115 N.pl3   
  16 C16            6.4835     6.4334    -1.2589 C.ar    
  17 C17           -1.0898    -2.1036     0.1497 C.3     
  18 C18           -2.4977    -2.7024     0.1500 C.3     
  19 N19           -3.1367    -2.4517    -1.1487 N.3     
  20 C20           -4.3935    -3.2123    -1.2749 C.3     
  21 C21           -5.5168    -2.1945    -1.5646 C.3     
  22 C22           -4.7467    -0.9811    -2.1491 C.3     
  23 C23           -3.4367    -1.0145    -1.3230 C.3     
  24 N24            4.7519     7.3049    -2.5963 N.ar    
  25 C25            5.5109     8.3495    -2.8695 C.ar    
  26 N26            6.7199     8.4834    -2.3800 N.ar    
  27 C27            7.2499     7.5463    -1.5695 C.ar    
  28 C28            8.5749     7.5229    -0.9319 C.ar    
  29 C29            8.7776     6.3872    -0.1573 C.ar    
  30 S30            7.3611     5.3483    -0.1970 S.3     
  31 C31            9.6021     8.4837    -1.0236 C.ar    
  32 C32           10.7870     8.2989    -0.3564 C.ar    
  33 C33           10.9848     7.1633     0.4158 C.ar    
  34 C34            9.9939     6.2164     0.5174 C.ar    
  35 H35           -0.9580     1.9198    -0.1544 H       
  36 H36            1.2095    -1.7459     0.1969 H       
  37 H37            3.3296    -0.4966     0.1714 H       
  38 H38            1.1605     3.1720    -0.1776 H       
  39 H39            4.3589     1.7791     0.4489 H       
  40 H40            1.5001     5.5904    -3.0828 H       
  41 H41            2.7876     6.6688    -3.1285 H       
  42 H42           -0.5267    -2.4997    -0.6953 H       
  43 H43           -0.5833    -2.3657     1.0787 H       
  44 H44           -2.4356    -3.7768     0.3230 H       
  45 H45           -3.0888    -2.2406     0.9409 H       
  46 H46           -4.3158    -3.9230    -2.0976 H       
  47 H47           -4.6024    -3.7402    -0.3444 H       
  48 H48           -6.2193    -2.5938    -2.2961 H       
  49 H49           -6.0322    -1.9172    -0.6450 H       
  50 H50           -4.5427    -1.1226    -3.2104 H       
  51 H51           -5.2925    -0.0532    -1.9782 H       
  52 H52           -3.5868    -0.5380    -0.3542 H       
  53 H53           -2.6316    -0.5222    -1.8683 H       
  54 H54            5.1230     9.1204    -3.5188 H       
  55 H55            9.4560     9.3704    -1.6227 H       
  56 H56           11.5687     9.0401    -0.4331 H       
  57 H57           11.9194     7.0234     0.9386 H       
  58 H58           10.1541     5.3347     1.1202 H       
@<TRIPOS>BOND
   1    1    2 ar
   2    1    6 ar
   3    1   35 1
   4    2    3 ar
   5    2    7 1
   6    3    4 ar
   7    3   36 1
   8    4    5 ar
   9    4   37 1
  10    5    6 ar
  11    5    8 1
  12    6   38 1
  13    7   17 1
  14    8    9 1
  15    8   39 1
  16    9   10 2
  17    9   11 1
  18   10   13 1
  19   11   12 2
  20   12   13 1
  21   12   15 1
  22   13   14 1
  23   14   16 ar
  24   14   24 ar
  25   15   40 1
  26   15   41 1
  27   16   27 ar
  28   16   30 1
  29   17   18 1
  30   17   42 1
  31   17   43 1
  32   18   19 1
  33   18   44 1
  34   18   45 1
  35   19   20 1
  36   19   23 1
  37   20   21 1
  38   20   46 1
  39   20   47 1
  40   21   22 1
  41   21   48 1
  42   21   49 1
  43   22   23 1
  44   22   50 1
  45   22   51 1
  46   23   52 1
  47   23   53 1
  48   24   25 ar
  49   25   26 ar
  50   25   54 1
  51   26   27 ar
  52   27   28 1
  53   28   29 ar
  54   28   31 ar
  55   29   30 1
  56   29   34 ar
  57   31   32 ar
  58   31   55 1
  59   32   33 ar
  60   32   56 1
  61   33   34 ar
  62   33   57 1
  63   34   58 1

#	End of record

