#	Name: ASD10160325
#	Creating user name:	WinNT
#	Creation time:	15. 06. 2019 21:25

#	Modifying user name:	WinNT
#	Modification time:	15. 06. 2019 21:25

#	Program:	/corina/corina34_cracker 3.40 0067  02.08.2006

@<TRIPOS>MOLECULE
ASD10160325
  21   21    0    0    0
SMALL
NO_CHARGES


@<TRIPOS>ATOM
   1 C1            -0.0159     1.3184     0.0093 C.ar    
   2 N2             0.0021    -0.0041     0.0020 N.ar    
   3 C3             1.1474    -0.6663    -0.0125 C.ar    
   4 C4             2.3408     0.0467    -0.0201 C.ar    
   5 C5             2.2817     1.4356    -0.0121 C.ar    
   6 N6             1.0994     2.0294     0.0025 N.ar    
   7 O7             3.5377    -0.5992    -0.0346 O.3     
   8 O8            -1.2087     1.9621     0.0184 O.3     
   9 C9            -1.1749     3.3907     0.0260 C.3     
  10 C10           -2.4152     3.9340    -0.6865 C.3     
  11 C11           -1.1561     3.8927     1.4712 C.3     
  12 H12            1.1551    -1.7463    -0.0180 H       
  13 H13            3.1886     2.0220    -0.0173 H       
  14 H14            3.8755    -0.7815    -0.9222 H       
  15 H15           -0.2790     3.7357    -0.4902 H       
  16 H16           -3.3110     3.5889    -0.1703 H       
  17 H17           -2.3894     5.0236    -0.6807 H       
  18 H18           -2.4286     3.5763    -1.7161 H       
  19 H19           -1.1304     4.9824     1.4770 H       
  20 H20           -2.0520     3.5477     1.9874 H       
  21 H21           -0.2726     3.5057     1.9788 H       
@<TRIPOS>BOND
   1    1    2 ar
   2    1    6 ar
   3    1    8 1
   4    2    3 ar
   5    3    4 ar
   6    3   12 1
   7    4    5 ar
   8    4    7 1
   9    5    6 ar
  10    5   13 1
  11    7   14 1
  12    8    9 1
  13    9   10 1
  14    9   11 1
  15    9   15 1
  16   10   16 1
  17   10   17 1
  18   10   18 1
  19   11   19 1
  20   11   20 1
  21   11   21 1

#	End of record

