#	Name: ASD10160515
#	Creating user name:	WinNT
#	Creation time:	15. 06. 2019 21:26

#	Modifying user name:	WinNT
#	Modification time:	15. 06. 2019 21:26

#	Program:	/corina/corina34_cracker 3.40 0067  02.08.2006

@<TRIPOS>MOLECULE
ASD10160515
  23   23    0    0    0
SMALL
NO_CHARGES


@<TRIPOS>ATOM
   1 C1            -0.0167     1.3829     0.0096 C.ar    
   2 C2             0.0021    -0.0041     0.0020 C.ar    
   3 C3             1.2280    -0.6662    -0.0132 C.ar    
   4 C4             2.3864     0.0923    -0.0202 C.ar    
   5 C5             2.2884     1.4784    -0.0118 C.ar    
   6 N6             1.1079     2.0730     0.0026 N.ar    
   7 N7            -1.1952    -0.7293     0.0100 N.pl3   
   8 O8             3.4188     2.2310    -0.0181 O.3     
   9 C9             4.4416     4.2978     0.7050 C.3     
  10 C10            3.2533     3.6504    -0.0089 C.3     
  11 C11            3.1810     4.1647    -1.4481 C.3     
  12 F12            2.0945     3.5727    -2.1008 F       
  13 F13            3.0189     5.5542    -1.4391 F       
  14 F14            4.3635     3.8375    -2.1202 F       
  15 F15            5.6241     3.9706     0.0329 F       
  16 F16            4.2795     5.6874     0.7140 F       
  17 F17            4.5076     3.8275     2.0209 F       
  18 Cl18           3.9417    -0.6788    -0.0386 Cl      
  19 H19           -0.9627     1.9039     0.0169 H       
  20 H20            1.2736    -1.7452    -0.0191 H       
  21 H21           -2.0451    -0.2620     0.0209 H       
  22 H22           -1.1748    -1.6990     0.0046 H       
  23 H23            2.3319     3.9053     0.5148 H       
@<TRIPOS>BOND
   1    1    2 ar
   2    1    6 ar
   3    1   19 1
   4    2    3 ar
   5    2    7 1
   6    3    4 ar
   7    3   20 1
   8    4    5 ar
   9    4   18 1
  10    5    6 ar
  11    5    8 1
  12    7   21 1
  13    7   22 1
  14    8   10 1
  15    9   10 1
  16    9   15 1
  17    9   16 1
  18    9   17 1
  19   10   11 1
  20   10   23 1
  21   11   12 1
  22   11   13 1
  23   11   14 1

#	End of record

