#	Name: ASD10420212
#	Creating user name:	WinNT
#	Creation time:	15. 06. 2019 21:27

#	Modifying user name:	WinNT
#	Modification time:	15. 06. 2019 21:27

#	Program:	/corina/corina34_cracker 3.40 0067  02.08.2006

@<TRIPOS>MOLECULE
ASD10420212
  46   49    0    0    0
SMALL
NO_CHARGES


@<TRIPOS>ATOM
   1 C1            -0.0187     1.5258     0.0104 C.3     
   2 O2            -1.5182     0.3400     4.7151 O.3     
   3 C3             0.0021    -0.0041     0.0020 C.3     
   4 O4            -4.4408     3.0202     7.3292 O.3     
   5 C5             0.7432    -0.5176     1.2432 C.3     
   6 O6            -6.2911     0.3057    10.7678 O.3     
   7 C7             0.0818     0.0894     2.4831 C.3     
   8 O8            -1.3356    -0.5036     0.0375 O.3     
   9 C9            -1.4142    -0.0766     2.3925 C.ar    
  10 C10           -2.0369    -0.3570     1.1918 C.ar    
  11 C11           -3.4213    -0.4956     1.1503 C.ar    
  12 C12           -4.1668    -0.3578     2.3017 C.ar    
  13 C13           -3.5446    -0.0806     3.5080 C.ar    
  14 C14           -2.1697     0.0618     3.5556 C.ar    
  15 C15           -2.2147     0.1165     5.9418 C.3     
  16 C16           -3.5975     0.7744     5.8395 C.3     
  17 C17           -4.3925     0.0537     4.7477 C.3     
  18 C18           -4.3178     0.6503     7.1573 C.ar    
  19 C19           -4.5841    -0.5991     7.6834 C.ar    
  20 C20           -5.2441    -0.7162     8.8919 C.ar    
  21 C21           -5.6414     0.4215     9.5798 C.ar    
  22 C22           -5.3752     1.6765     9.0540 C.ar    
  23 C23           -4.7080     1.7914     7.8444 C.ar    
  24 C24            0.7059    -0.5029    -1.2616 C.3     
  25 H25            1.0039     1.9031     0.0027 H       
  26 H26           -0.5459     1.8868    -0.8726 H       
  27 H27           -0.5289     1.8773     0.9072 H       
  28 H28           -5.1382     3.3664     6.7557 H       
  29 H29            0.6775    -1.6048     1.2868 H       
  30 H30            1.7890    -0.2137     1.1987 H       
  31 H31           -5.7048     0.2856    11.5365 H       
  32 H32            0.4496    -0.4173     3.3753 H       
  33 H33            0.3262     1.1500     2.5422 H       
  34 H34           -3.9129    -0.7115     0.2132 H       
  35 H35           -5.2407    -0.4661     2.2630 H       
  36 H36           -2.3282    -0.9545     6.1095 H       
  37 H37           -1.6574     0.5607     6.7665 H       
  38 H38           -3.4852     1.8269     5.5792 H       
  39 H39           -5.2893     0.6272     4.5135 H       
  40 H40           -4.6781    -0.9371     5.1010 H       
  41 H41           -4.2764    -1.4857     7.1491 H       
  42 H42           -5.4512    -1.6940     9.3011 H       
  43 H43           -5.6839     2.5632     9.5878 H       
  44 H44            1.7290    -0.1274    -1.2798 H       
  45 H45            0.7188    -1.5928    -1.2641 H       
  46 H46            0.1714    -0.1438    -2.1410 H       
@<TRIPOS>BOND
   1    1    3 1
   2    1   25 1
   3    1   26 1
   4    1   27 1
   5    2   14 1
   6    2   15 1
   7    3    5 1
   8    3    8 1
   9    3   24 1
  10    4   23 1
  11    4   28 1
  12    5    7 1
  13    5   29 1
  14    5   30 1
  15    6   21 1
  16    6   31 1
  17    7    9 1
  18    7   32 1
  19    7   33 1
  20    8   10 1
  21    9   10 ar
  22    9   14 ar
  23   10   11 ar
  24   11   12 ar
  25   11   34 1
  26   12   13 ar
  27   12   35 1
  28   13   14 ar
  29   13   17 1
  30   15   16 1
  31   15   36 1
  32   15   37 1
  33   16   17 1
  34   16   18 1
  35   16   38 1
  36   17   39 1
  37   17   40 1
  38   18   19 ar
  39   18   23 ar
  40   19   20 ar
  41   19   41 1
  42   20   21 ar
  43   20   42 1
  44   21   22 ar
  45   22   23 ar
  46   22   43 1
  47   24   44 1
  48   24   45 1
  49   24   46 1

#	End of record

