#	Name: ASD10100022
#	Creating user name:	WinNT
#	Creation time:	15. 06. 2019 21:24

#	Modifying user name:	WinNT
#	Modification time:	15. 06. 2019 21:24

#	Program:	/corina/corina34_cracker 3.40 0067  02.08.2006

@<TRIPOS>MOLECULE
ASD10100022
  45   47    0    0    0
SMALL
NO_CHARGES


@<TRIPOS>ATOM
   1 C1             2.0196    -0.0270     0.5734 C.ar    
   2 C2             2.8706    -1.0956     0.8003 C.ar    
   3 F3             2.3777    -2.2670     1.2586 F       
   4 C4             4.2269    -0.9627     0.5568 C.ar    
   5 C5             4.7301     0.2361     0.0875 C.ar    
   6 C6             3.8797     1.3021    -0.1382 C.ar    
   7 C7             2.5248     1.1704     0.1042 C.ar    
   8 C8             1.5989     2.3333    -0.1433 C.3     
   9 N9             1.4896     3.1387     1.0756 N.am    
  10 C10            2.3663     4.1779     1.2900 C.2     
  11 N11            3.3440     4.4641     0.3649 N.pl3   
  12 C12            0.5294     2.8616     1.9767 C.2     
  13 O13           -0.2395     1.9427     1.7684 O.2     
  14 N14            0.4068     3.5846     3.1045 N.am    
  15 C15            1.2460     4.6079     3.3583 C.2     
  16 O16            1.1281     5.2585     4.3832 O.2     
  17 C17            2.2559     4.9241     2.4318 C.2     
  18 N18            3.1436     5.9975     2.6763 N.am    
  19 C19            4.5696     5.8523     2.3733 C.3     
  20 S20            2.5713     7.4185     3.3051 S.o2    
  21 O21            3.1327     8.4603     2.5185 O.2     
  22 O22            1.1719     7.2449     3.4805 O.2     
  23 C23            3.2577     7.5886     4.9190 C.ar    
  24 C24            4.4661     8.2375     5.0913 C.ar    
  25 C25            5.0046     8.3709     6.3575 C.ar    
  26 C26            4.3345     7.8558     7.4513 C.ar    
  27 C27            3.1256     7.2078     7.2791 C.ar    
  28 C28            2.5850     7.0782     6.0135 C.ar    
  29 H29            0.9607    -0.1309     0.7588 H       
  30 H30            4.8917    -1.7953     0.7337 H       
  31 H31            5.7881     0.3400    -0.1026 H       
  32 H32            4.2738     2.2385    -0.5046 H       
  33 H33            1.9959     2.9485    -0.9508 H       
  34 H34            0.6133     1.9602    -0.4217 H       
  35 H35            3.1494     4.3972    -0.5830 H       
  36 H36            4.2279     4.7327     0.6607 H       
  37 H37           -0.2924     3.3675     3.7408 H       
  38 H38            4.7790     6.2847     1.3949 H       
  39 H39            5.1568     6.3692     3.1323 H       
  40 H40            4.8339     4.7948     2.3672 H       
  41 H41            4.9896     8.6399     4.2367 H       
  42 H42            1.6388     6.5751     5.8793 H       
  43 H43            5.9490     8.8772     6.4920 H       
  44 H44            4.7555     7.9594     8.4405 H       
  45 H45            2.6022     6.8051     8.1337 H       
@<TRIPOS>BOND
   1    1    2 ar
   2    1    7 ar
   3    1   29 1
   4    2    3 1
   5    2    4 ar
   6    4    5 ar
   7    4   30 1
   8    5    6 ar
   9    5   31 1
  10    6    7 ar
  11    6   32 1
  12    7    8 1
  13    8    9 1
  14    8   33 1
  15    8   34 1
  16    9   10 1
  17    9   12 am
  18   10   11 1
  19   10   17 2
  20   11   35 1
  21   11   36 1
  22   12   13 2
  23   12   14 am
  24   14   15 am
  25   14   37 1
  26   15   16 2
  27   15   17 1
  28   17   18 1
  29   18   19 1
  30   18   20 am
  31   19   38 1
  32   19   39 1
  33   19   40 1
  34   20   21 2
  35   20   22 2
  36   20   23 1
  37   23   24 ar
  38   23   28 ar
  39   24   25 ar
  40   24   41 1
  41   25   26 ar
  42   25   43 1
  43   26   27 ar
  44   26   44 1
  45   27   28 ar
  46   27   45 1
  47   28   42 1

#	End of record

