#	Name: ASD10160098
#	Creating user name:	WinNT
#	Creation time:	15. 06. 2019 21:25

#	Modifying user name:	WinNT
#	Modification time:	15. 06. 2019 21:25

#	Program:	/corina/corina34_cracker 3.40 0067  02.08.2006

@<TRIPOS>MOLECULE
ASD10160098
  46   47    0    0    0
SMALL
NO_CHARGES


@<TRIPOS>ATOM
   1 C1             0.7590     1.4120    -0.3946 C.2     
   2 C2             0.5748    -0.0461    -0.2971 C.ar    
   3 C3             1.5369    -0.9152    -0.8343 C.ar    
   4 C4             1.3561    -2.2839    -0.7384 C.ar    
   5 C5             0.2266    -2.7931    -0.1135 C.ar    
   6 C6            -0.7282    -1.9323     0.4196 C.ar    
   7 C7            -0.5565    -0.5699     0.3360 C.ar    
   8 O8             1.7464     1.8650    -0.9414 O.2     
   9 N9            -0.1693     2.2443     0.1173 N.am    
  10 S10            0.0378     3.8836     0.0077 S.o2    
  11 O11           -1.1006     4.4253     0.6635 O.2     
  12 O12            1.3479     4.1057     0.5110 O.2     
  13 C13           -0.0278     4.2302    -1.7717 C.3     
  14 O14            2.6400    -0.4155    -1.4456 O.3     
  15 C15            3.5760    -1.3602    -1.9685 C.3     
  16 O16            0.0522    -4.1356    -0.0222 O.3     
  17 C17            0.5221    -6.1571     1.1480 C.ar    
  18 C18            0.5763    -4.7755     1.0571 C.ar    
  19 C19            1.1743    -4.0506     2.0842 C.ar    
  20 C20            1.6951    -4.7439     3.1638 C.ar    
  21 C21            1.6039    -6.1304     3.1856 C.ar    
  22 N22            1.0287    -6.7855     2.1918 N.ar    
  23 O23            2.1117    -6.8200     4.2392 O.3     
  24 C24            1.9874    -8.2432     4.2037 C.3     
  25 C25            3.2146    -8.8453     3.5165 C.3     
  26 C26            1.8870    -8.7822     5.6321 C.3     
  27 Cl27           2.4527    -3.8920     4.4730 Cl      
  28 H28            2.0942    -2.9561    -1.1505 H       
  29 H29           -1.6050    -2.3354     0.9047 H       
  30 H30           -1.2974     0.0948     0.7552 H       
  31 H31           -0.9588     1.8830     0.5499 H       
  32 H32           -0.9929     3.9146    -2.1680 H       
  33 H33            0.1013     5.2996    -1.9386 H       
  34 H34            0.7687     3.6847    -2.2777 H       
  35 H35            3.9488    -1.9882    -1.1594 H       
  36 H36            3.0844    -1.9836    -2.7153 H       
  37 H37            4.4089    -0.8293    -2.4297 H       
  38 H38            0.0557    -6.7260     0.3572 H       
  39 H39            1.2311    -2.9730     2.0399 H       
  40 H40            1.0898    -8.5157     3.6485 H       
  41 H41            3.2862    -8.4613     2.4989 H       
  42 H42            4.1122    -8.5727     4.0716 H       
  43 H43            3.1198    -9.9308     3.4894 H       
  44 H44            1.0127    -8.3532     6.1216 H       
  45 H45            1.7922    -9.8677     5.6050 H       
  46 H46            2.7845    -8.5096     6.1872 H       
@<TRIPOS>BOND
   1    1    2 1
   2    1    8 2
   3    1    9 am
   4    2    3 ar
   5    2    7 ar
   6    3    4 ar
   7    3   14 1
   8    4    5 ar
   9    4   28 1
  10    5    6 ar
  11    5   16 1
  12    6    7 ar
  13    6   29 1
  14    7   30 1
  15    9   10 am
  16    9   31 1
  17   10   11 2
  18   10   12 2
  19   10   13 1
  20   13   32 1
  21   13   33 1
  22   13   34 1
  23   14   15 1
  24   15   35 1
  25   15   36 1
  26   15   37 1
  27   16   18 1
  28   17   18 ar
  29   17   22 ar
  30   17   38 1
  31   18   19 ar
  32   19   20 ar
  33   19   39 1
  34   20   21 ar
  35   20   27 1
  36   21   22 ar
  37   21   23 1
  38   23   24 1
  39   24   25 1
  40   24   26 1
  41   24   40 1
  42   25   41 1
  43   25   42 1
  44   25   43 1
  45   26   44 1
  46   26   45 1
  47   26   46 1

#	End of record

