#	Name: ASD10220005
#	Creating user name:	WinNT
#	Creation time:	15. 06. 2019 21:26

#	Modifying user name:	WinNT
#	Modification time:	15. 06. 2019 21:26

#	Program:	/corina/corina34_cracker 3.40 0067  02.08.2006

@<TRIPOS>MOLECULE
ASD10220005
  31   33    0    0    0
SMALL
NO_CHARGES


@<TRIPOS>ATOM
   1 C1            -0.0067     1.4629    -0.1678 C.2     
   2 C2             0.0229     0.0532    -0.3121 C.2     
   3 C3            -1.1130    -0.6730    -0.3658 C.2     
   4 C4            -2.4341    -0.0557    -0.2791 C.2     
   5 C5            -2.5493     1.3188    -0.1368 C.2     
   6 C6            -1.3380     2.1509    -0.0678 C.2     
   7 O7            -3.6780    -0.5711    -0.3093 O.3     
   8 C8            -4.6038     0.3834    -0.1953 C.2     
   9 C9            -3.9874     1.6013    -0.0821 C.2     
  10 O10           -1.4123     3.3552     0.0569 O.2     
  11 O11            1.0252     2.1020    -0.1207 O.2     
  12 Br12           1.6911    -0.8291    -0.4328 Br      
  13 C13           -4.6331     2.9178     0.0645 C.2     
  14 O14           -3.9560     3.9083     0.2646 O.2     
  15 C15           -6.1009     3.0344    -0.0313 C.ar    
  16 C16           -6.7705     4.0466     0.6629 C.ar    
  17 C17           -8.1400     4.1521     0.5703 C.ar    
  18 C18           -8.8571     3.2540    -0.2121 C.ar    
  19 C19           -8.1952     2.2460    -0.9041 C.ar    
  20 C20           -6.8254     2.1366    -0.8213 C.ar    
  21 O21          -10.2070     3.3613    -0.3003 O.3     
  22 C22          -10.8815     2.4059    -1.1215 C.3     
  23 H23           -1.0433    -1.7451    -0.4768 H       
  24 H24           -5.6715     0.2209    -0.1924 H       
  25 H25           -6.2143     4.7444     1.2711 H       
  26 H26           -8.6581     4.9335     1.1065 H       
  27 H27           -8.7560     1.5504    -1.5108 H       
  28 H28           -6.3119     1.3533    -1.3591 H       
  29 H29          -10.5141     2.4826    -2.1448 H       
  30 H30          -10.6916     1.4020    -0.7416 H       
  31 H31          -11.9531     2.6042    -1.1043 H       
@<TRIPOS>BOND
   1    1    2 1
   2    1   11 2
   3    1    6 1
   4    2    3 2
   5    2   12 1
   6    3    4 1
   7    3   23 1
   8    4    5 2
   9    4    7 1
  10    5    6 1
  11    5    9 1
  12    6   10 2
  13    7    8 1
  14    8    9 2
  15    8   24 1
  16    9   13 1
  17   13   14 2
  18   13   15 1
  19   15   16 ar
  20   15   20 ar
  21   16   17 ar
  22   16   25 1
  23   17   18 ar
  24   17   26 1
  25   18   19 ar
  26   18   21 1
  27   19   20 ar
  28   19   27 1
  29   20   28 1
  30   21   22 1
  31   22   29 1
  32   22   30 1
  33   22   31 1

#	End of record

