#	Name: ASD15280015
#	Creating user name:	WinNT
#	Creation time:	15. 06. 2019 21:31

#	Modifying user name:	WinNT
#	Modification time:	15. 06. 2019 21:31

#	Program:	/corina/corina34_cracker 3.40 0067  02.08.2006

@<TRIPOS>MOLECULE
ASD15280015
  58   62    0    0    0
SMALL
NO_CHARGES


@<TRIPOS>ATOM
   1 C1            -0.0187     1.5258     0.0104 C.3     
   2 C2             0.0021    -0.0041     0.0020 C.3     
   3 C3            -1.4258    -0.5536    -0.0032 C.3     
   4 C4             0.7837    -0.5233    -1.2266 C.3     
   5 C5             2.1944    -0.7993    -0.6485 C.3     
   6 N6             1.9075    -1.3332     0.7076 N.3     
   7 C7             0.7746    -0.5349     1.2239 C.3     
   8 C8             3.0152    -1.2150     1.5325 C.2     
   9 N9             3.6255    -2.2068     2.1033 N.2     
  10 C10            4.6681    -1.9109     2.8589 C.2     
  11 C11            4.9509    -0.6099     2.9292 C.2     
  12 C12            6.0788     0.0094     3.7136 C.3     
  13 N13            7.2742     0.0884     2.8704 N.am    
  14 C14            8.4140     0.6112     3.3645 C.2     
  15 O15            8.4501     1.0171     4.5096 O.2     
  16 C16            9.6205     0.6910     2.5135 C.ar    
  17 C17            9.5784     0.2304     1.1965 C.ar    
  18 C18           10.7075     0.3149     0.4078 C.ar    
  19 C19           11.8770     0.8462     0.9170 C.ar    
  20 C20           11.9399     1.3004     2.2276 C.ar    
  21 N21           13.1024     1.8138     2.7726 N.am    
  22 C22           13.9717     2.6679     2.3040 C.2     
  23 O23           14.8885     2.9381     3.0552 O.2     
  24 C24           14.0066     3.3484     1.0081 C.ar    
  25 C25           14.3274     4.7101     0.9487 C.ar    
  26 C26           14.3693     5.3586    -0.2665 C.ar    
  27 C27           14.0965     4.6714    -1.4357 C.ar    
  28 C28           13.7763     3.3253    -1.3888 C.ar    
  29 C29           13.7281     2.6691    -0.1793 C.ar    
  30 S30           13.3045     0.9580    -0.1153 S.o2    
  31 O31           14.3587     0.3059     0.5794 O.2     
  32 O32           12.8871     0.5950    -1.4242 O.2     
  33 C33           10.7984     1.2309     3.0230 C.ar    
  34 S34            3.7803     0.2586     1.9398 S.3     
  35 H35            1.0039     1.9031     0.0027 H       
  36 H36           -0.5459     1.8868    -0.8726 H       
  37 H37           -0.5289     1.8773     0.9072 H       
  38 H38           -1.9442    -0.2098    -0.8983 H       
  39 H39           -1.3958    -1.6432     0.0034 H       
  40 H40           -1.9547    -0.1993     0.8816 H       
  41 H41            0.3368    -1.4414    -1.6082 H       
  42 H42            0.8281     0.2379    -2.0054 H       
  43 H43            2.7187    -1.5410    -1.2510 H       
  44 H44            2.7712     0.1234    -0.5846 H       
  45 H45            1.1482     0.2992     1.8179 H       
  46 H46            0.1231    -1.1638     1.8305 H       
  47 H47            5.2446    -2.6623     3.3781 H       
  48 H48            5.7923     1.0115     4.0326 H       
  49 H49            6.2918    -0.6037     4.5893 H       
  50 H50            7.2455    -0.2355     1.9565 H       
  51 H51            8.6672    -0.1900     0.7972 H       
  52 H52           10.6772    -0.0366    -0.6130 H       
  53 H53           13.3084     1.4807     3.6600 H       
  54 H54           14.5421     5.2533     1.8571 H       
  55 H55           14.6161     6.4093    -0.3062 H       
  56 H56           14.1330     5.1851    -2.3850 H       
  57 H57           13.5633     2.7894    -2.3020 H       
  58 H58           10.8284     1.5930     4.0401 H       
@<TRIPOS>BOND
   1    1    2 1
   2    1   35 1
   3    1   36 1
   4    1   37 1
   5    2    7 1
   6    2    3 1
   7    2    4 1
   8    3   38 1
   9    3   39 1
  10    3   40 1
  11    4    5 1
  12    4   41 1
  13    4   42 1
  14    5    6 1
  15    5   43 1
  16    5   44 1
  17    6    7 1
  18    6    8 1
  19    7   45 1
  20    7   46 1
  21    8   34 1
  22    8    9 2
  23    9   10 1
  24   10   11 2
  25   10   47 1
  26   11   12 1
  27   11   34 1
  28   12   13 1
  29   12   48 1
  30   12   49 1
  31   13   14 am
  32   13   50 1
  33   14   15 2
  34   14   16 1
  35   16   33 ar
  36   16   17 ar
  37   17   18 ar
  38   17   51 1
  39   18   19 ar
  40   18   52 1
  41   19   30 1
  42   19   20 ar
  43   20   21 1
  44   20   33 ar
  45   21   22 am
  46   21   53 1
  47   22   23 2
  48   22   24 1
  49   24   29 ar
  50   24   25 ar
  51   25   26 ar
  52   25   54 1
  53   26   27 ar
  54   26   55 1
  55   27   28 ar
  56   27   56 1
  57   28   29 ar
  58   28   57 1
  59   29   30 1
  60   30   31 2
  61   30   32 2
  62   33   58 1

#	End of record

