#	Name: ASD13490080
#	Creating user name:	WinNT
#	Creation time:	15. 06. 2019 21:30

#	Modifying user name:	WinNT
#	Modification time:	15. 06. 2019 21:30

#	Program:	/corina/corina34_cracker 3.40 0067  02.08.2006

@<TRIPOS>MOLECULE
ASD13490080
  44   47    0    0    0
SMALL
NO_CHARGES


@<TRIPOS>ATOM
   1 C1            -0.0167     1.3811     0.0096 C.ar    
   2 C2             0.0021    -0.0041     0.0020 C.ar    
   3 C3             1.2324    -0.6508    -0.0132 C.ar    
   4 C4             2.4047     0.1131    -0.0203 C.ar    
   5 N5             2.3493     1.4294    -0.0127 N.ar    
   6 C6             1.1890     2.0782     0.0019 C.ar    
   7 N7             1.2977    -2.0488    -0.0209 N.pl3   
   8 C8             0.6361    -2.9006     0.8260 C.2     
   9 C9             0.9826    -4.1519     0.4695 C.2     
  10 N10            1.8321    -4.0727    -0.5657 N.2     
  11 C11            2.0243    -2.8189    -0.8726 C.2     
  12 C12            0.4999    -5.4220     1.1213 C.3     
  13 O13            3.6110    -0.5082    -0.0347 O.3     
  14 C14            4.7707     0.3266    -0.0413 C.3     
  15 C15            1.1784     3.5576     0.0099 C.2     
  16 O16            0.1215     4.1577     0.0232 O.2     
  17 N17            2.3407     4.2399     0.0025 N.am    
  18 C18            2.3302     5.7048     0.0104 C.3     
  19 O19            3.2211     7.4236     1.3131 O.3     
  20 C20            2.4025     6.2505     1.4563 C.3     
  21 C21            4.0561     7.2622     0.2497 C.ar    
  22 C22            5.2315     7.9368    -0.0725 C.ar    
  23 C23            3.6040     6.2593    -0.5973 C.ar    
  24 C24            4.2975     5.9396    -1.7461 C.ar    
  25 C25            5.4648     6.6187    -2.0610 C.ar    
  26 C26            5.9272     7.6143    -1.2192 C.ar    
  27 F27            3.8402     4.9658    -2.5633 F       
  28 Cl28           6.3425     6.2208    -3.5050 Cl      
  29 H29           -0.9558     1.9144     0.0170 H       
  30 H30           -0.9185    -0.5688     0.0081 H       
  31 H31           -0.0338    -2.6213     1.6257 H       
  32 H32            2.6566    -2.4544    -1.6687 H       
  33 H33           -0.4094    -5.7619     0.6257 H       
  34 H34            1.2691    -6.1895     1.0354 H       
  35 H35            0.2909    -5.2333     2.1743 H       
  36 H36            4.7571     0.9604    -0.9280 H       
  37 H37            4.7737     0.9514     0.8518 H       
  38 H38            5.6659    -0.2951    -0.0528 H       
  39 H39            3.1841     3.7610    -0.0081 H       
  40 H40            1.4518     6.0890    -0.5081 H       
  41 H41            1.4094     6.5146     1.8195 H       
  42 H42            2.8774     5.5268     2.1188 H       
  43 H43            5.6001     8.7154     0.5788 H       
  44 H44            6.8376     8.1424    -1.4613 H       
@<TRIPOS>BOND
   1    1    2 ar
   2    1    6 ar
   3    1   29 1
   4    2    3 ar
   5    2   30 1
   6    3    4 ar
   7    3    7 1
   8    4    5 ar
   9    4   13 1
  10    5    6 ar
  11    6   15 1
  12    7    8 1
  13    7   11 1
  14    8    9 2
  15    8   31 1
  16    9   10 1
  17    9   12 1
  18   10   11 2
  19   11   32 1
  20   12   33 1
  21   12   34 1
  22   12   35 1
  23   13   14 1
  24   14   36 1
  25   14   37 1
  26   14   38 1
  27   15   16 2
  28   15   17 am
  29   17   18 1
  30   17   39 1
  31   18   23 1
  32   18   20 1
  33   18   40 1
  34   19   20 1
  35   19   21 1
  36   20   41 1
  37   20   42 1
  38   21   23 ar
  39   21   22 ar
  40   22   26 ar
  41   22   43 1
  42   23   24 ar
  43   24   25 ar
  44   24   27 1
  45   25   26 ar
  46   25   28 1
  47   26   44 1

#	End of record

