#	Name: ASD11030038
#	Creating user name:	WinNT
#	Creation time:	15. 06. 2019 21:29

#	Modifying user name:	WinNT
#	Modification time:	15. 06. 2019 21:29

#	Program:	/corina/corina34_cracker 3.40 0067  02.08.2006

@<TRIPOS>MOLECULE
ASD11030038
  76   81    0    0    0
SMALL
NO_CHARGES


@<TRIPOS>ATOM
   1 C1             1.5829    -0.3487     3.2125 C.ar    
   2 C2             1.7279    -1.0766     4.3851 C.ar    
   3 C3             2.9164    -1.0009     5.0889 C.ar    
   4 N4             3.9092    -0.2487     4.6613 N.ar    
   5 C5             3.8116     0.4636     3.5442 C.ar    
   6 C6             2.6414     0.4338     2.7852 C.ar    
   7 C7             4.9517     1.2943     3.1020 C.2     
   8 C8             6.2551     1.0600     3.3982 C.2     
   9 C9             7.0273     2.0788     2.7898 C.ar    
  10 C10            6.1250     2.9289     2.1189 C.ar    
  11 N11            4.8584     2.4225     2.3209 N.pl3   
  12 C12            8.4030     2.3486     2.7518 C.ar    
  13 C13            8.8662     3.4305     2.0681 C.ar    
  14 C14            7.9759     4.2819     1.3975 C.ar    
  15 C15            6.6065     4.0288     1.4248 C.ar    
  16 C16            3.6165     2.9971     1.7976 C.3     
  17 C17            6.7860    -0.0812     4.2271 C.3     
  18 C18            8.4924     5.4514     0.6601 C.2     
  19 N19            9.8169     5.6993     0.6321 N.am    
  20 O20            7.7230     6.1913     0.0778 O.2     
  21 C21           10.3401     6.7934    -0.1898 C.3     
  22 C22            9.8000     8.1404     0.2164 C.2     
  23 N23            9.5277     8.3946     1.5116 N.am    
  24 O24            9.6103     8.9957    -0.6224 O.2     
  25 C25            9.0870     9.6628     1.8968 C.ar    
  26 C26            8.1695     9.7933     2.9366 C.ar    
  27 C27            7.7327    11.0431     3.3200 C.ar    
  28 C28            8.2124    12.1824     2.6626 C.ar    
  29 C29            9.1345    12.0471     1.6179 C.ar    
  30 C30            9.5706    10.7941     1.2439 C.ar    
  31 C31           11.8692     6.7659    -0.3509 C.3     
  32 C32           11.6433     7.1743    -1.8162 C.3     
  33 C33           10.2522     6.5248    -1.7014 C.3     
  34 C34            7.7488    13.5165     3.0678 C.2     
  35 C35            8.2129    14.6148     2.4323 C.2     
  36 C36            7.7542    -0.9351     3.3897 C.3     
  37 C37            9.1212    -0.8781     4.1023 C.3     
  38 C38            8.7695    -0.5373     5.5718 C.3     
  39 C39            7.5984     0.4648     5.4194 C.3     
  40 F40           10.4608    10.6626     0.2362 F       
  41 F41            7.7069     8.6933     3.5701 F       
  42 C42            7.7657    15.9021     2.8232 C.2     
  43 O43            6.9641    16.0178     3.7309 O.2     
  44 O44            8.2291    16.9989     2.1885 O.3     
  45 H45            0.6661    -0.3953     2.6437 H       
  46 H46            0.9200    -1.6964     4.7451 H       
  47 H47            3.0315    -1.5661     6.0020 H       
  48 H48            2.5627     1.0131     1.8772 H       
  49 H49            9.0950     1.6978     3.2655 H       
  50 H50            9.9264     3.6349     2.0420 H       
  51 H51            5.9229     4.6860     0.9080 H       
  52 H52            3.3995     2.5649     0.8208 H       
  53 H53            2.7975     2.7770     2.4824 H       
  54 H54            3.7286     4.0770     1.7004 H       
  55 H55            5.9612    -0.6964     4.5867 H       
  56 H56           10.4237     5.1533     1.1560 H       
  57 H57            9.6377     7.6968     2.1764 H       
  58 H58            7.0210    11.1435     4.1261 H       
  59 H59            9.5066    12.9236     1.1082 H       
  60 H60           12.3841     7.5240     0.2392 H       
  61 H61           12.3025     5.7724    -0.2364 H       
  62 H62           11.6088     8.2530    -1.9685 H       
  63 H63           12.3062     6.6678    -2.5178 H       
  64 H64           10.2428     5.4650    -1.9561 H       
  65 H65            9.4646     7.0883    -2.2016 H       
  66 H66            7.0372    13.6193     3.8737 H       
  67 H67            8.9246    14.5121     1.6264 H       
  68 H68            7.3997    -1.9648     3.3437 H       
  69 H69            7.8401    -0.5240     2.3838 H       
  70 H70            9.6222    -1.8444     4.0442 H       
  71 H71            9.7454    -0.0969     3.6684 H       
  72 H72            8.4472    -1.4294     6.1087 H       
  73 H73            9.6164    -0.0684     6.0729 H       
  74 H74            7.9766     1.4629     5.1982 H       
  75 H75            6.9881     0.4786     6.3224 H       
  76 H76            7.8672    17.8303     2.5247 H       
@<TRIPOS>BOND
   1    1    2 ar
   2    1    6 ar
   3    1   45 1
   4    2    3 ar
   5    2   46 1
   6    3    4 ar
   7    3   47 1
   8    4    5 ar
   9    5    6 ar
  10    5    7 1
  11    6   48 1
  12    7    8 2
  13    7   11 1
  14    8    9 1
  15    8   17 1
  16    9   10 ar
  17    9   12 ar
  18   10   11 1
  19   10   15 ar
  20   11   16 1
  21   12   13 ar
  22   12   49 1
  23   13   14 ar
  24   13   50 1
  25   14   15 ar
  26   14   18 1
  27   15   51 1
  28   16   52 1
  29   16   53 1
  30   16   54 1
  31   17   36 1
  32   17   39 1
  33   17   55 1
  34   18   19 am
  35   18   20 2
  36   19   21 1
  37   19   56 1
  38   21   22 1
  39   21   31 1
  40   21   33 1
  41   22   23 am
  42   22   24 2
  43   23   25 1
  44   23   57 1
  45   25   26 ar
  46   25   30 ar
  47   26   27 ar
  48   26   41 1
  49   27   28 ar
  50   27   58 1
  51   28   29 ar
  52   28   34 1
  53   29   30 ar
  54   29   59 1
  55   30   40 1
  56   31   32 1
  57   31   60 1
  58   31   61 1
  59   32   33 1
  60   32   62 1
  61   32   63 1
  62   33   64 1
  63   33   65 1
  64   34   35 2
  65   34   66 1
  66   35   42 1
  67   35   67 1
  68   36   37 1
  69   36   68 1
  70   36   69 1
  71   37   38 1
  72   37   70 1
  73   37   71 1
  74   38   39 1
  75   38   72 1
  76   38   73 1
  77   39   74 1
  78   39   75 1
  79   42   43 2
  80   42   44 1
  81   44   76 1

#	End of record

