#	Name: ASD13650001
#	Creating user name:	WinNT
#	Creation time:	15. 06. 2019 21:30

#	Modifying user name:	WinNT
#	Modification time:	15. 06. 2019 21:30

#	Program:	/corina/corina34_cracker 3.40 0067  02.08.2006

@<TRIPOS>MOLECULE
ASD13650001
  63   68    0    0    0
SMALL
NO_CHARGES


@<TRIPOS>ATOM
   1 C1            -0.0184     1.5048     0.0103 C.3     
   2 C2             0.0021    -0.0041     0.0020 C.ar    
   3 C3             1.3353    -0.4054    -0.0129 C.ar    
   4 C4             1.4260     1.9416    -0.0011 C.ar    
   5 C5            -1.0069    -0.9434     0.0062 C.ar    
   6 C6            -0.6977    -2.2923    -0.0039 C.ar    
   7 C7             0.6235    -2.7008    -0.0183 C.ar    
   8 C8             1.6397    -1.7676    -0.0235 C.ar    
   9 C9             2.0163     3.1873    -0.0001 C.ar    
  10 C10            2.2117     0.7921    -0.0148 C.ar    
  11 C11            3.6021     0.9138    -0.0274 C.ar    
  12 C12            4.1844     2.1645    -0.0263 C.ar    
  13 C13            3.3956     3.3004    -0.0126 C.ar    
  14 C14           -0.7370     2.0287    -1.2347 C.3     
  15 O15           -0.8528     3.4739    -1.1545 O.3     
  16 C16           -1.4653     4.0958    -2.1796 C.2     
  17 N17           -1.6058     5.4362    -2.1675 N.am    
  18 O18           -1.8915     3.4487    -3.1156 O.2     
  19 C19           -2.8193     7.9369    -1.6443 C.3     
  20 C20           -2.2238     7.1067    -0.4996 C.3     
  21 C21           -1.0903     6.2328    -1.0458 C.3     
  22 C22           -2.2719     6.1291    -3.2788 C.3     
  23 C23           -3.3946     7.0039    -2.7123 C.3     
  24 C24           -3.9124     8.8235    -1.1055 C.ar    
  25 C25           -4.2219     8.7832     0.2528 C.ar    
  26 C26           -5.2036     9.5703     0.7713 C.ar    
  27 C27           -5.5988    10.4834    -1.4528 C.ar    
  28 C28           -4.5788     9.6553    -1.9518 C.ar    
  29 C29           -7.6086    12.0931    -0.4207 C.ar    
  30 C30           -7.2988    12.1337    -1.7790 C.ar    
  31 C31           -6.3089    11.3556    -2.2955 C.ar    
  32 C32           -5.9176    10.4381    -0.0726 C.ar    
  33 C33           -6.9382    11.2654     0.4264 C.ar    
  34 C34           -1.7400     8.7893    -2.2605 C.2     
  35 O35           -2.0320     9.6037    -3.2868 O.3     
  36 O36           -0.6119     8.7395    -1.8308 O.2     
  37 H37           -0.5133     1.8685     0.9109 H       
  38 H38           -2.0393    -0.6264     0.0178 H       
  39 H39           -1.4893    -3.0270    -0.0003 H       
  40 H40            0.8607    -3.7544    -0.0255 H       
  41 H41            2.6701    -2.0909    -0.0350 H       
  42 H42            1.4021     4.0756     0.0102 H       
  43 H43            4.2218     0.0293    -0.0377 H       
  44 H44            5.2604     2.2569    -0.0357 H       
  45 H45            3.8566     4.2771    -0.0118 H       
  46 H46           -0.1671     1.7587    -2.1238 H       
  47 H47           -1.7319     1.5872    -1.2928 H       
  48 H48           -1.8360     7.7738     0.2702 H       
  49 H49           -2.9973     6.4684    -0.0725 H       
  50 H50           -0.7305     5.5681    -0.2604 H       
  51 H51           -0.2745     6.8672    -1.3925 H       
  52 H52           -1.5505     6.7552    -3.8039 H       
  53 H53           -2.6920     5.3959    -3.9673 H       
  54 H54           -4.1578     6.3665    -2.2657 H       
  55 H55           -3.8376     7.5965    -3.5127 H       
  56 H56           -3.6748     8.1172     0.9035 H       
  57 H57           -5.4330     9.5280     1.8259 H       
  58 H58           -4.3249     9.6793    -3.0012 H       
  59 H59           -8.3987    12.7211    -0.0363 H       
  60 H60           -7.8464    12.7993    -2.4298 H       
  61 H61           -6.0796    11.3979    -3.3501 H       
  62 H62           -7.1889    11.2448     1.4767 H       
  63 H63           -1.3068    10.1309    -3.6489 H       
@<TRIPOS>BOND
   1    1    2 1
   2    1    4 1
   3    1   14 1
   4    1   37 1
   5    2    3 ar
   6    2    5 ar
   7    3   10 1
   8    3    8 ar
   9    4   10 ar
  10    4    9 ar
  11    5    6 ar
  12    5   38 1
  13    6    7 ar
  14    6   39 1
  15    7    8 ar
  16    7   40 1
  17    8   41 1
  18    9   13 ar
  19    9   42 1
  20   10   11 ar
  21   11   12 ar
  22   11   43 1
  23   12   13 ar
  24   12   44 1
  25   13   45 1
  26   14   15 1
  27   14   46 1
  28   14   47 1
  29   15   16 1
  30   16   17 am
  31   16   18 2
  32   17   22 1
  33   17   21 1
  34   19   20 1
  35   19   23 1
  36   19   24 1
  37   19   34 1
  38   20   21 1
  39   20   48 1
  40   20   49 1
  41   21   50 1
  42   21   51 1
  43   22   23 1
  44   22   52 1
  45   22   53 1
  46   23   54 1
  47   23   55 1
  48   24   25 ar
  49   24   28 ar
  50   25   26 ar
  51   25   56 1
  52   26   32 ar
  53   26   57 1
  54   27   28 ar
  55   27   32 ar
  56   27   31 ar
  57   28   58 1
  58   29   30 ar
  59   29   33 ar
  60   29   59 1
  61   30   31 ar
  62   30   60 1
  63   31   61 1
  64   32   33 ar
  65   33   62 1
  66   34   35 1
  67   34   36 2
  68   35   63 1

#	End of record

