#	Name: ASD10160023
#	Creating user name:	WinNT
#	Creation time:	15. 06. 2019 21:25

#	Modifying user name:	WinNT
#	Modification time:	15. 06. 2019 21:25

#	Program:	/corina/corina34_cracker 3.40 0067  02.08.2006

@<TRIPOS>MOLECULE
ASD10160023
  38   40    0    0    0
SMALL
NO_CHARGES


@<TRIPOS>ATOM
   1 C1             0.0375     1.5803     0.7670 C.ar    
   2 C2             0.1051     0.3499     1.4273 C.ar    
   3 C3             1.1874     2.1658     0.2858 C.ar    
   4 C4             2.4164     1.5352     0.4557 C.ar    
   5 C5             2.4900     0.3127     1.1104 C.ar    
   6 C6            -1.1237    -0.2808     1.9437 C.2     
   7 N7            -2.3144     0.3289     1.7793 N.am    
   8 O8            -1.0627    -1.3510     2.5178 O.2     
   9 S9            -3.6943    -0.3795     2.3592 S.o2    
  10 O10           -4.7317     0.5176     1.9872 O.2     
  11 O11           -3.6513    -1.7035     1.8449 O.2     
  12 C12            1.3431    -0.2817     1.5965 C.ar    
  13 F13            1.4149    -1.4708     2.2338 F       
  14 Cl14           1.1037     3.6934    -0.5347 Cl      
  15 O15            3.5465     2.1166    -0.0204 O.3     
  16 C16            4.7092     1.4190     0.0688 C.ar    
  17 C17            5.0836     0.5460    -0.9572 C.ar    
  18 N18            6.1976    -0.1418    -0.9028 N.ar    
  19 C19            7.0290    -0.0397     0.1388 C.ar    
  20 C20            6.7120     0.8268     1.2147 C.ar    
  21 C21            5.5211     1.5733     1.1624 C.ar    
  22 C22            8.2220    -0.7822     0.1885 C.ar    
  23 C23            9.0499    -0.6593     1.2613 C.ar    
  24 C24            8.7361     0.1931     2.3183 C.ar    
  25 C25            7.5903     0.9281     2.3062 C.ar    
  26 C26           -3.4761    -0.3887     4.1600 C.3     
  27 H27           -0.9160     2.0688     0.6304 H       
  28 H28            3.4457    -0.1734     1.2393 H       
  29 H29           -2.3630     1.1826     1.3213 H       
  30 H30            4.4381     0.4354    -1.8160 H       
  31 H31            5.2498     2.2427     1.9653 H       
  32 H32            8.4801    -1.4480    -0.6218 H       
  33 H33            9.9651    -1.2319     1.2944 H       
  34 H34            9.4108     0.2716     3.1579 H       
  35 H35            7.3580     1.5853     3.1312 H       
  36 H36           -3.3629     0.6347     4.5175 H       
  37 H37           -4.3485    -0.8432     4.6294 H       
  38 H38           -2.5856    -0.9633     4.4151 H       
@<TRIPOS>BOND
   1    1    2 ar
   2    1    3 ar
   3    1   27 1
   4    2    6 1
   5    2   12 ar
   6    3    4 ar
   7    3   14 1
   8    4    5 ar
   9    4   15 1
  10    5   12 ar
  11    5   28 1
  12    6    7 am
  13    6    8 2
  14    7    9 am
  15    7   29 1
  16    9   10 2
  17    9   11 2
  18    9   26 1
  19   12   13 1
  20   15   16 1
  21   16   17 ar
  22   16   21 ar
  23   17   18 ar
  24   17   30 1
  25   18   19 ar
  26   19   20 ar
  27   19   22 ar
  28   20   21 ar
  29   20   25 ar
  30   21   31 1
  31   22   23 ar
  32   22   32 1
  33   23   24 ar
  34   23   33 1
  35   24   25 ar
  36   24   34 1
  37   25   35 1
  38   26   36 1
  39   26   37 1
  40   26   38 1

#	End of record

