#	Name: ASD10410004
#	Creating user name:	WinNT
#	Creation time:	15. 06. 2019 21:26

#	Modifying user name:	WinNT
#	Modification time:	15. 06. 2019 21:26

#	Program:	/corina/corina34_cracker 3.40 0067  02.08.2006

@<TRIPOS>MOLECULE
ASD10410004
  65   69    0    0    0
SMALL
NO_CHARGES


@<TRIPOS>ATOM
   1 N1            -0.0741     1.4893     0.2406 N.pl3   
   2 C2            -0.0061     0.1450    -0.1078 C.ar    
   3 C3            -0.9560    -0.7611     0.3880 C.ar    
   4 C4             1.0912     2.2288     0.3835 C.ar    
   5 N5             2.2789     1.6407     0.2875 N.ar    
   6 C6             1.0331     3.6041     0.6246 C.ar    
   7 C7             2.2195     4.2998     0.7600 C.ar    
   8 N8             3.3685     3.6474     0.6580 N.ar    
   9 C9             3.3931     2.3441     0.4235 C.ar    
  10 Cl10          -0.4940     4.4199     0.7506 Cl      
  11 N11            4.6154     1.6987     0.3242 N.pl3   
  12 C12            5.8024     2.4248     0.4603 C.ar    
  13 C13            6.9033     1.8490     1.0815 C.ar    
  14 C14            8.0743     2.5690     1.2143 C.ar    
  15 C15            8.1514     3.8621     0.7301 C.ar    
  16 C16            7.0571     4.4385     0.1116 C.ar    
  17 C17            5.8852     3.7216    -0.0304 C.ar    
  18 C18            9.4306     4.6449     0.8773 C.3     
  19 N19           10.2829     4.4157    -0.2970 N.3     
  20 C20           11.4267     5.3383    -0.3058 C.3     
  21 C21           12.3302     5.0152    -1.4982 C.3     
  22 N22           11.5554     5.1296    -2.7417 N.3     
  23 C23           10.4115     4.2070    -2.7329 C.3     
  24 C24            9.5081     4.5301    -1.5405 C.3     
  25 C25           12.4076     4.9003    -3.9160 C.3     
  26 C26            0.9993    -0.3071    -0.9533 C.ar    
  27 C27            1.0645    -1.6415    -1.2980 C.ar    
  28 C28            0.1312    -2.5399    -0.8054 C.ar    
  29 C29           -0.8761    -2.1092     0.0300 C.ar    
  30 C30           -2.0316    -0.2933     1.2817 C.2     
  31 O31           -2.0357     0.8561     1.6784 O.2     
  32 N32           -3.0102    -1.1398     1.6589 N.am    
  33 C33           -4.0788    -0.6751     2.5468 C.3     
  34 C34           -5.4182    -1.4121     2.4861 C.3     
  35 C35           -4.4965    -1.5985     3.6930 C.3     
  36 H36           -0.9364     1.9112     0.3800 H       
  37 H37            2.2104     5.3635     0.9465 H       
  38 H38            4.6475     0.7432     0.1603 H       
  39 H39            6.8435     0.8394     1.4605 H       
  40 H40            8.9306     2.1219     1.6972 H       
  41 H41            7.1204     5.4488    -0.2648 H       
  42 H42            5.0311     4.1722    -0.5139 H       
  43 H43            9.1995     5.7072     0.9566 H       
  44 H44            9.9547     4.3191     1.7758 H       
  45 H45           11.0663     6.3635    -0.3899 H       
  46 H46           11.9918     5.2258     0.6195 H       
  47 H47           13.1639     5.7168    -1.5234 H       
  48 H48           12.7124     3.9991    -1.4001 H       
  49 H49            9.8465     4.3194    -3.6582 H       
  50 H50           10.7719     3.1817    -2.6488 H       
  51 H51            8.6743     3.8284    -1.5153 H       
  52 H52            9.1259     5.5461    -1.6386 H       
  53 H53           12.8378     3.9002    -3.8630 H       
  54 H54           11.8092     4.9908    -4.8225 H       
  55 H55           13.2083     5.6397    -3.9338 H       
  56 H56            1.7304     0.3866    -1.3414 H       
  57 H57            1.8476    -1.9881    -1.9561 H       
  58 H58            0.1910    -3.5823    -1.0817 H       
  59 H59           -1.6005    -2.8137     0.4113 H       
  60 H60           -3.0070    -2.0567     1.3425 H       
  61 H61           -4.1032     0.3989     2.7310 H       
  62 H62           -6.3238    -0.8229     2.6307 H       
  63 H63           -5.5044    -2.2426     1.7855 H       
  64 H64           -3.9763    -2.5518     3.7864 H       
  65 H65           -4.7957    -1.1321     4.6316 H       
@<TRIPOS>BOND
   1    1    2 1
   2    1    4 1
   3    1   36 1
   4    2    3 ar
   5    2   26 ar
   6    3   30 1
   7    3   29 ar
   8    4    5 ar
   9    4    6 ar
  10    5    9 ar
  11    6    7 ar
  12    6   10 1
  13    7    8 ar
  14    7   37 1
  15    8    9 ar
  16    9   11 1
  17   11   12 1
  18   11   38 1
  19   12   13 ar
  20   12   17 ar
  21   13   14 ar
  22   13   39 1
  23   14   15 ar
  24   14   40 1
  25   15   16 ar
  26   15   18 1
  27   16   17 ar
  28   16   41 1
  29   17   42 1
  30   18   19 1
  31   18   43 1
  32   18   44 1
  33   19   20 1
  34   19   24 1
  35   20   21 1
  36   20   45 1
  37   20   46 1
  38   21   22 1
  39   21   47 1
  40   21   48 1
  41   22   23 1
  42   22   25 1
  43   23   24 1
  44   23   49 1
  45   23   50 1
  46   24   51 1
  47   24   52 1
  48   25   53 1
  49   25   54 1
  50   25   55 1
  51   26   27 ar
  52   26   56 1
  53   27   28 ar
  54   27   57 1
  55   28   29 ar
  56   28   58 1
  57   29   59 1
  58   30   31 2
  59   30   32 am
  60   32   33 1
  61   32   60 1
  62   33   34 1
  63   33   35 1
  64   33   61 1
  65   34   35 1
  66   34   62 1
  67   34   63 1
  68   35   64 1
  69   35   65 1

#	End of record

