#	Name: ASD15010003
#	Creating user name:	WinNT
#	Creation time:	15. 06. 2019 21:31

#	Modifying user name:	WinNT
#	Modification time:	15. 06. 2019 21:31

#	Program:	/corina/corina34_cracker 3.40 0067  02.08.2006

@<TRIPOS>MOLECULE
ASD15010003
 173  178    0    0    0
SMALL
NO_CHARGES


@<TRIPOS>ATOM
   1 N1             8.6417     1.1085     6.5420 N.3     
   2 C2             8.1322    -0.2631     6.6720 C.3     
   3 C3             9.1442    -1.2420     6.0732 C.3     
   4 C4             8.6134    -2.6706     6.2086 C.3     
   5 C5             9.6254    -3.6495     5.6098 C.3     
   6 C6             9.0947    -5.0781     5.7452 C.3     
   7 O7            10.0399    -5.9924     5.1860 O.3     
   8 C8             9.6387    -7.3619     5.2617 C.3     
   9 O9             8.5470    -7.5888     4.3679 O.3     
  10 C10            8.8394    -7.2887     3.0017 C.3     
  11 C11            9.9825    -8.1845     2.5173 C.3     
  12 C12           11.2045    -7.9703     3.4157 C.3     
  13 C13           10.8139    -8.2606     4.8681 C.3     
  14 C14            7.5961    -7.5408     2.1465 C.3     
  15 O15            9.5767    -9.5531     2.5814 O.3     
  16 C16           10.2124   -10.3937     1.6164 C.3     
  17 O17           12.2525    -8.8559     3.0164 O.3     
  18 N18           11.9546    -7.9874     5.7458 N.am    
  19 C19            9.8338   -11.8531     1.8822 C.3     
  20 C20            8.3200   -12.0180     1.7168 C.3     
  21 C21            7.9181   -11.5598     0.3114 C.3     
  22 C22            8.3707   -10.1118     0.1063 C.3     
  23 O23            9.7831   -10.0229     0.3048 O.3     
  24 O24            8.5445   -12.3983    -0.6615 O.3     
  25 C25            7.7951   -12.5476    -1.8690 C.3     
  26 O26            7.9668   -13.3916     1.8910 O.3     
  27 O27           10.5109   -12.6993     0.9509 O.3     
  28 C28            8.6114   -13.3573    -2.8798 C.3     
  29 C29            8.8653   -14.7580    -2.3141 C.3     
  30 C30            7.5211   -15.4175    -1.9909 C.3     
  31 C31            6.7469   -14.5282    -1.0145 C.3     
  32 O32            6.5720   -13.2316    -1.5893 O.3     
  33 N33            7.8667   -13.4646    -4.1368 N.am    
  34 O34            9.5635   -15.5448    -3.2814 O.3     
  35 O35            6.7658   -15.5767    -3.1935 O.3     
  36 C36            5.8851   -16.7020    -3.1821 C.3     
  37 C37            5.3778   -15.1506    -0.7332 C.3     
  38 C38            5.0418   -16.7032    -4.4598 C.3     
  39 C39            5.9664   -16.8489    -5.6724 C.3     
  40 C40            6.7924   -18.1298    -5.5198 C.3     
  41 C41            7.5681   -18.0734    -4.2011 C.3     
  42 O42            6.6515   -17.9064    -3.1176 O.3     
  43 O43            5.9208   -19.2621    -5.5131 O.3     
  44 C44            5.7550   -19.8756    -6.7930 C.3     
  45 O45            5.1825   -16.9247    -6.8648 O.3     
  46 O46            4.1238   -17.7978    -4.4250 O.3     
  47 O47            6.9347   -20.6102    -7.1258 O.3     
  48 C48            7.2700   -21.6328    -6.1855 C.3     
  49 C49            6.1330   -22.6559    -6.1194 C.3     
  50 C50            4.8343   -21.9403    -5.7352 C.3     
  51 C51            4.5572   -20.8281    -6.7513 C.3     
  52 C52            8.5584   -22.3297    -6.6273 C.3     
  53 O53            5.9757   -23.2781    -7.3962 O.3     
  54 C54            6.7647   -24.4568    -7.5697 C.3     
  55 N55            3.3572   -20.0885    -6.3525 N.am    
  56 O56            3.7533   -22.8749    -5.7427 O.3     
  57 O57            6.2486   -25.5017    -6.7427 O.3     
  58 C58            4.8860   -25.8386    -7.0106 C.3     
  59 C59            4.7581   -26.3324    -8.4540 C.3     
  60 C60            5.2674   -25.2446    -9.4046 C.3     
  61 C61            6.7124   -24.8951    -9.0355 C.3     
  62 O62            5.5375   -27.5181    -8.6239 O.3     
  63 O63            5.2203   -25.7248   -10.7497 O.3     
  64 O64            7.1739   -23.8302    -9.8692 O.3     
  65 O65            9.6403   -21.3967    -6.5935 O.3     
  66 O66            4.7020   -14.3837     0.2654 O.3     
  67 O67            6.5601    -6.6359     2.5337 O.3     
  68 C68            8.0316    -9.6729    -1.2949 C.2     
  69 O69            8.9150    -9.4424    -2.0863 O.2     
  70 O70            6.7480    -9.5381    -1.6638 O.3     
  71 S71           11.8163   -13.2791     1.4768 S.o2    
  72 O72           12.4452   -13.9170     0.3737 O.2     
  73 O73           12.4355   -12.2496     2.2357 O.2     
  74 O74           11.4550   -14.3814     2.4620 O.3     
  75 C75            8.3374   -19.3559    -4.0154 C.2     
  76 O76            8.0049   -20.1413    -3.1597 O.2     
  77 O77            9.3921   -19.6255    -4.8007 O.3     
  78 S78            2.7493   -17.4359    -3.8807 S.o2    
  79 O79            2.0311   -18.6563    -3.7609 O.2     
  80 O80            2.9696   -16.5534    -2.7890 O.2     
  81 O81            2.0394   -16.6231    -4.9540 O.3     
  82 C82            4.4421   -26.9259    -6.0663 C.2     
  83 O83            5.2373   -27.4303    -5.3092 O.2     
  84 O84            3.1633   -27.3340    -6.0662 O.3     
  85 S85            8.6480   -23.9255   -10.2361 S.o2    
  86 O86            8.9798   -22.7054   -10.8845 O.2     
  87 O87            9.3204   -24.3973    -9.0766 O.2     
  88 O88            8.7812   -25.0200   -11.2853 O.3     
  89 O89            2.7915   -19.7272    -8.4671 O.2     
  90 C90            2.5599   -19.5411    -7.2912 C.2     
  91 C91            1.3806   -18.6980    -6.8797 C.3     
  92 O92            9.7420   -13.5536    -5.3188 O.2     
  93 C93            8.5293   -13.5582    -5.3067 C.2     
  94 C94            7.7633   -13.6685    -6.5998 C.3     
  95 O95           11.1972    -9.3979     7.2817 O.2     
  96 C96           12.0530    -8.6107     6.9367 C.2     
  97 C97           13.2264    -8.3297     7.8396 C.3     
  98 H98            8.8510     1.3268     5.5794 H       
  99 H99            7.9908     1.7744     6.9305 H       
 100 H100           7.9810    -0.4962     7.7260 H       
 101 H101           7.1843    -0.3504     6.1410 H       
 102 H102           9.2953    -1.0089     5.0192 H       
 103 H103          10.0921    -1.1547     6.6042 H       
 104 H104           8.4623    -2.9037     7.2626 H       
 105 H105           7.6655    -2.7579     5.6776 H       
 106 H106           9.7765    -3.4165     4.5558 H       
 107 H107          10.5733    -3.5622     6.1408 H       
 108 H108           8.9435    -5.3112     6.7992 H       
 109 H109           8.1468    -5.1654     5.2143 H       
 110 H110           9.3286    -7.5940     6.2805 H       
 111 H111           9.1350    -6.2431     2.9144 H       
 112 H112          10.2366    -7.9268     1.4891 H       
 113 H113          11.5445    -6.9383     3.3289 H       
 114 H114          10.5211    -9.3061     4.9645 H       
 115 H115           7.8402    -7.3854     1.0956 H       
 116 H116           7.2563    -8.5662     2.2927 H       
 117 H117          11.2939   -10.2794     1.6910 H       
 118 H118          13.0589    -8.7742     3.5439 H       
 119 H119          12.6390    -7.3578     5.4699 H       
 120 H120          10.1210   -12.1247     2.8980 H       
 121 H121           7.8036   -11.4103     2.4599 H       
 122 H122           6.8352   -11.6217     0.2039 H       
 123 H123           7.8615    -9.4669     0.8225 H       
 124 H124           7.5749   -11.5640    -2.2842 H       
 125 H125           8.1992   -13.7505     2.7583 H       
 126 H126           9.5640   -12.8595    -3.0610 H       
 127 H127           9.4619   -14.6815    -1.4051 H       
 128 H128           7.6940   -16.3931    -1.5364 H       
 129 H129           7.3048   -14.4402    -0.0823 H       
 130 H130           6.8968   -13.4682    -4.1271 H       
 131 H131          10.4221   -15.1815    -3.5382 H       
 132 H132           5.2292   -16.6414    -2.3137 H       
 133 H133           4.7864   -15.1565    -1.6488 H       
 134 H134           5.5093   -16.1730    -0.3790 H       
 135 H135           4.4900   -15.7661    -4.5330 H       
 136 H136           6.6338   -15.9889    -5.7273 H       
 137 H137           7.4926   -18.2128    -6.3510 H       
 138 H138           8.2621   -17.2332    -4.2233 H       
 139 H139           5.5817   -19.1061    -7.5452 H       
 140 H140           4.6282   -16.1480    -7.0212 H       
 141 H141           7.4162   -21.1879    -5.2013 H       
 142 H142           6.3671   -23.4128    -5.3708 H       
 143 H143           4.9371   -21.5077    -4.7400 H       
 144 H144           4.4053   -21.2658    -7.7380 H       
 145 H145           8.7726   -23.1589    -5.9530 H       
 146 H146           8.4370   -22.7086    -7.6421 H       
 147 H147           7.7971   -24.2476    -7.2892 H       
 148 H148           3.1365   -19.9927    -5.4128 H       
 149 H149           2.8983   -22.4891    -5.5079 H       
 150 H150           4.2595   -24.9577    -6.8708 H       
 151 H151           3.7126   -26.5481    -8.6740 H       
 152 H152           4.6422   -24.3567    -9.3110 H       
 153 H153           7.3463   -25.7704    -9.1768 H       
 154 H154           5.2727   -28.2487    -8.0483 H       
 155 H155           4.3344   -25.9719   -11.0483 H       
 156 H156          10.4906   -21.7705    -6.8621 H       
 157 H157           3.8253   -14.7214     0.4943 H       
 158 H158           5.7672    -6.6867     1.9825 H       
 159 H159           6.5800    -9.2542    -2.5728 H       
 160 H160          12.2198   -14.8203     2.8590 H       
 161 H161           9.8541   -20.4604    -4.6439 H       
 162 H162           1.1484   -16.3394    -4.7076 H       
 163 H163           2.9260   -28.0341    -5.4428 H       
 164 H164           9.6873   -25.1639   -11.5907 H       
 165 H165           1.3581   -18.6101    -5.7935 H       
 166 H166           1.4709   -17.7061    -7.3227 H       
 167 H167           0.4597   -19.1678    -7.2254 H       
 168 H168           7.5739   -12.6709    -6.9962 H       
 169 H169           8.3473   -14.2410    -7.3204 H       
 170 H170           6.8145   -14.1734    -6.4181 H       
 171 H171          13.8846    -7.6024     7.3643 H       
 172 H172          12.8675    -7.9296     8.7879 H       
 173 H173          13.7757    -9.2537     8.0197 H       
@<TRIPOS>BOND
   1    1    2 1
   2    1   98 1
   3    1   99 1
   4    2    3 1
   5    2  100 1
   6    2  101 1
   7    3    4 1
   8    3  102 1
   9    3  103 1
  10    4    5 1
  11    4  104 1
  12    4  105 1
  13    5    6 1
  14    5  106 1
  15    5  107 1
  16    6    7 1
  17    6  108 1
  18    6  109 1
  19    7    8 1
  20    8    9 1
  21    8   13 1
  22    8  110 1
  23    9   10 1
  24   10   11 1
  25   10   14 1
  26   10  111 1
  27   11   12 1
  28   11   15 1
  29   11  112 1
  30   12   13 1
  31   12   17 1
  32   12  113 1
  33   13   18 1
  34   13  114 1
  35   14   67 1
  36   14  115 1
  37   14  116 1
  38   15   16 1
  39   16   19 1
  40   16   23 1
  41   16  117 1
  42   17  118 1
  43   18   96 am
  44   18  119 1
  45   19   20 1
  46   19   27 1
  47   19  120 1
  48   20   21 1
  49   20   26 1
  50   20  121 1
  51   21   22 1
  52   21   24 1
  53   21  122 1
  54   22   68 1
  55   22   23 1
  56   22  123 1
  57   24   25 1
  58   25   28 1
  59   25   32 1
  60   25  124 1
  61   26  125 1
  62   27   71 1
  63   28   29 1
  64   28   33 1
  65   28  126 1
  66   29   30 1
  67   29   34 1
  68   29  127 1
  69   30   31 1
  70   30   35 1
  71   30  128 1
  72   31   32 1
  73   31   37 1
  74   31  129 1
  75   33   93 am
  76   33  130 1
  77   34  131 1
  78   35   36 1
  79   36   38 1
  80   36   42 1
  81   36  132 1
  82   37   66 1
  83   37  133 1
  84   37  134 1
  85   38   39 1
  86   38   46 1
  87   38  135 1
  88   39   40 1
  89   39   45 1
  90   39  136 1
  91   40   41 1
  92   40   43 1
  93   40  137 1
  94   41   75 1
  95   41   42 1
  96   41  138 1
  97   43   44 1
  98   44   47 1
  99   44   51 1
 100   44  139 1
 101   45  140 1
 102   46   78 1
 103   47   48 1
 104   48   49 1
 105   48   52 1
 106   48  141 1
 107   49   50 1
 108   49   53 1
 109   49  142 1
 110   50   51 1
 111   50   56 1
 112   50  143 1
 113   51   55 1
 114   51  144 1
 115   52   65 1
 116   52  145 1
 117   52  146 1
 118   53   54 1
 119   54   57 1
 120   54   61 1
 121   54  147 1
 122   55   90 am
 123   55  148 1
 124   56  149 1
 125   57   58 1
 126   58   82 1
 127   58   59 1
 128   58  150 1
 129   59   60 1
 130   59   62 1
 131   59  151 1
 132   60   61 1
 133   60   63 1
 134   60  152 1
 135   61   64 1
 136   61  153 1
 137   62  154 1
 138   63  155 1
 139   64   85 1
 140   65  156 1
 141   66  157 1
 142   67  158 1
 143   68   69 2
 144   68   70 1
 145   70  159 1
 146   71   72 2
 147   71   73 2
 148   71   74 1
 149   74  160 1
 150   75   76 2
 151   75   77 1
 152   77  161 1
 153   78   79 2
 154   78   80 2
 155   78   81 1
 156   81  162 1
 157   82   83 2
 158   82   84 1
 159   84  163 1
 160   85   86 2
 161   85   87 2
 162   85   88 1
 163   88  164 1
 164   89   90 2
 165   90   91 1
 166   91  165 1
 167   91  166 1
 168   91  167 1
 169   92   93 2
 170   93   94 1
 171   94  168 1
 172   94  169 1
 173   94  170 1
 174   95   96 2
 175   96   97 1
 176   97  171 1
 177   97  172 1
 178   97  173 1

#	End of record

