#	Name: ASD11000228
#	Creating user name:	WinNT
#	Creation time:	15. 06. 2019 21:29

#	Modifying user name:	WinNT
#	Modification time:	15. 06. 2019 21:29

#	Program:	/corina/corina34_cracker 3.40 0067  02.08.2006

@<TRIPOS>MOLECULE
ASD11000228
  72   77    0    0    0
SMALL
NO_CHARGES


@<TRIPOS>ATOM
   1 C1            -0.3587     2.1467     0.6106 C.2     
   2 C2            -0.5065     0.7330     0.9940 C.2     
   3 C3             0.1607     0.3315     2.0900 C.2     
   4 C4             0.9914     1.3554     2.8273 C.3     
   5 C5             1.8078     2.1688     1.8163 C.3     
   6 C6             1.0280     2.7466     0.6427 C.3     
   7 C7             1.7258     2.4799    -0.6947 C.3     
   8 C8             3.2810     1.8208     1.6638 C.3     
   9 C9             3.9430     1.9398     0.3029 C.3     
  10 C10            3.1900     2.9370    -0.5885 C.3     
  11 C11            1.6743     3.2543    -3.1248 C.3     
  12 C12            0.9542     3.2403    -1.7717 C.3     
  13 C13            3.0409     3.8737    -2.8846 C.3     
  14 C14            3.9441     3.9993    -4.1085 C.3     
  15 C15            3.8101     2.8817    -1.9747 C.3     
  16 C16            5.2460     3.4084    -2.0780 C.3     
  17 C17            5.3813     3.7555    -3.5855 C.3     
  18 O18            2.8563     2.9934     2.3486 O.3     
  19 C19            3.5734     2.9427    -5.1512 C.3     
  20 C20            4.3723     3.1886    -6.4327 C.3     
  21 C21            6.5875     3.1463    -7.2593 C.2     
  22 O22            5.7883     2.9459    -6.1803 O.3     
  23 C23            3.8959     2.2302    -7.5260 C.3     
  24 C24            4.8443     2.2540    -8.6924 C.2     
  25 C25            6.0968     2.6757    -8.5672 C.2     
  26 C26            4.3600     1.7860   -10.0405 C.3     
  27 C27            7.0159     2.6745    -9.7614 C.3     
  28 O28            7.5129     3.9961    -9.9813 O.3     
  29 O29            0.1308     2.2302     3.5594 O.3     
  30 O30           -1.3190     2.8078     0.2748 O.2     
  31 C31            0.9071     4.2607     0.8265 C.3     
  32 C32            2.8880     5.2228    -2.1794 C.3     
  33 O33            7.6673     3.6935    -7.1509 O.2     
  34 C34            3.9001     1.5511    -4.6057 C.3     
  35 H35           -1.1207     0.0523     0.4233 H       
  36 H36            0.1041    -0.6911     2.4329 H       
  37 H37            1.6668     0.8481     3.5162 H       
  38 H38            1.6940     1.4126    -0.9138 H       
  39 H39            3.6601     1.0152     2.2925 H       
  40 H40            4.9703     2.2804     0.4329 H       
  41 H41            3.9491     0.9622    -0.1791 H       
  42 H42            3.2484     3.9429    -0.1728 H       
  43 H43            1.7865     2.2365    -3.4983 H       
  44 H44            1.1129     3.8555    -3.8400 H       
  45 H45           -0.0228     2.7741    -1.8989 H       
  46 H46            0.8097     4.2685    -1.4402 H       
  47 H47            3.8626     4.9983    -4.5369 H       
  48 H48            3.7421     1.8708    -2.3766 H       
  49 H49            5.3749     4.2997    -1.4639 H       
  50 H50            5.9613     2.6365    -1.7942 H       
  51 H51            5.8384     2.9236    -4.1214 H       
  52 H52            5.9823     4.6564    -3.7095 H       
  53 H53            2.5074     3.0063    -5.3698 H       
  54 H54            4.2287     4.2180    -6.7611 H       
  55 H55            3.8459     1.2189    -7.1224 H       
  56 H56            2.9035     2.5310    -7.8619 H       
  57 H57            4.0416     2.6453   -10.6307 H       
  58 H58            5.1685     1.2694   -10.5579 H       
  59 H59            3.5195     1.1046    -9.9082 H       
  60 H60            7.8507     1.9984    -9.5768 H       
  61 H61            6.4667     2.3416   -10.6422 H       
  62 H62            8.1125     4.0703   -10.7363 H       
  63 H63           -0.4186     1.7819     4.2169 H       
  64 H64            0.4697     4.4745     1.8017 H       
  65 H65            1.8964     4.7143     0.7647 H       
  66 H66            0.2693     4.6720     0.0441 H       
  67 H67            2.3981     5.0762    -1.2168 H       
  68 H68            3.8721     5.6645    -2.0228 H       
  69 H69            2.2848     5.8889    -2.7963 H       
  70 H70            3.2048     1.3029    -3.8037 H       
  71 H71            3.8091     0.8166    -5.4058 H       
  72 H72            4.9190     1.5426    -4.2187 H       
@<TRIPOS>BOND
   1    1    2 1
   2    1    6 1
   3    1   30 2
   4    2    3 2
   5    2   35 1
   6    3    4 1
   7    3   36 1
   8    4    5 1
   9    4   29 1
  10    4   37 1
  11    5    8 1
  12    5    6 1
  13    5   18 1
  14    6   31 1
  15    6    7 1
  16    7   10 1
  17    7   12 1
  18    7   38 1
  19    8    9 1
  20    8   18 1
  21    8   39 1
  22    9   10 1
  23    9   40 1
  24    9   41 1
  25   10   15 1
  26   10   42 1
  27   11   12 1
  28   11   13 1
  29   11   43 1
  30   11   44 1
  31   12   45 1
  32   12   46 1
  33   13   15 1
  34   13   32 1
  35   13   14 1
  36   14   17 1
  37   14   19 1
  38   14   47 1
  39   15   16 1
  40   15   48 1
  41   16   17 1
  42   16   49 1
  43   16   50 1
  44   17   51 1
  45   17   52 1
  46   19   20 1
  47   19   34 1
  48   19   53 1
  49   20   23 1
  50   20   22 1
  51   20   54 1
  52   21   22 1
  53   21   25 1
  54   21   33 2
  55   23   24 1
  56   23   55 1
  57   23   56 1
  58   24   25 2
  59   24   26 1
  60   25   27 1
  61   26   57 1
  62   26   58 1
  63   26   59 1
  64   27   28 1
  65   27   60 1
  66   27   61 1
  67   28   62 1
  68   29   63 1
  69   31   64 1
  70   31   65 1
  71   31   66 1
  72   32   67 1
  73   32   68 1
  74   32   69 1
  75   34   70 1
  76   34   71 1
  77   34   72 1

#	End of record

