#	Name: ASD10410270
#	Creating user name:	WinNT
#	Creation time:	15. 06. 2019 21:27

#	Modifying user name:	WinNT
#	Modification time:	15. 06. 2019 21:27

#	Program:	/corina/corina34_cracker 3.40 0067  02.08.2006

@<TRIPOS>MOLECULE
ASD10410270
  76   82    0    0    0
SMALL
NO_CHARGES


@<TRIPOS>ATOM
   1 C1            -0.0328     1.3886    -0.1251 C.ar    
   2 C2            -0.0099     0.0057     0.0001 C.ar    
   3 C3             1.2017    -0.6594     0.1351 C.ar    
   4 C4             2.3837     0.0543     0.1449 C.ar    
   5 C5             2.3608     1.4373     0.0197 C.ar    
   6 C6             1.1491     2.1023    -0.1153 C.ar    
   7 N7             3.5595     2.1611     0.0300 N.pl3   
   8 C8             3.6594     3.3547    -0.6843 C.2     
   9 N9             4.6905     4.1649    -0.6701 N.2     
  10 N10            2.7208     3.8528    -1.4977 N.2     
  11 C11            3.1365     4.9911    -2.0104 C.2     
  12 N12            4.3804     5.2389    -1.5201 N.pl3   
  13 C13            5.1862     6.3383    -1.8044 C.ar    
  14 N14            2.4353     5.7904    -2.8925 N.pl3   
  15 N15           -1.2081    -0.7178    -0.0093 N.3     
  16 C16           -0.9548    -2.1581     0.1353 C.3     
  17 C17           -2.2896    -2.9041     0.2003 C.3     
  18 N18           -3.0620    -2.6280    -1.0191 N.3     
  19 C19           -3.3153    -1.1876    -1.1637 C.3     
  20 C20           -1.9805    -0.4416    -1.2286 C.3     
  21 C21           -4.3195    -3.3872    -1.0289 C.3     
  22 C22           -5.1847    -2.9899    -2.2638 C.3     
  23 C23           -4.1984    -3.0576    -3.4696 C.3     
  24 C24           -3.9160    -4.5655    -3.6592 C.3     
  25 C25           -4.0371    -4.8951    -1.2186 C.3     
  26 C26           -4.7582    -5.2669    -2.5502 C.3     
  27 C27           -6.0019    -4.3118    -2.4829 C.3     
  28 N28            5.3607     6.7257    -3.0531 N.ar    
  29 C29            6.1166     7.7647    -3.3811 C.ar    
  30 C30            6.7682     8.5062    -2.4438 C.ar    
  31 C31            6.6325     8.1563    -1.0863 C.ar    
  32 C32            5.8141     7.0452    -0.7578 C.ar    
  33 C33            7.2727     8.8723    -0.0657 C.ar    
  34 C34            7.1047     8.4871     1.2344 C.ar    
  35 C35            6.3002     7.3850     1.5591 C.ar    
  36 C36            5.6598     6.6736     0.5854 C.ar    
  37 O37            6.1513     7.0238     2.8614 O.3     
  38 C38            5.3197     5.8931     3.1300 C.3     
  39 O39            7.7252     9.1801     2.2250 O.3     
  40 C40            8.5315    10.2924     1.8319 C.3     
  41 H41           -0.9748     1.9054    -0.2346 H       
  42 H42            1.2194    -1.7348     0.2329 H       
  43 H43            3.3259    -0.4629     0.2502 H       
  44 H44            1.1313     3.1778    -0.2127 H       
  45 H45            4.3203     1.8323     0.5340 H       
  46 H46            1.5498     5.5262    -3.1878 H       
  47 H47            2.8284     6.6159    -3.2166 H       
  48 H48           -0.3805    -2.5140    -0.7200 H       
  49 H49           -0.3926    -2.3382     1.0516 H       
  50 H50           -2.1041    -3.9754     0.2784 H       
  51 H51           -2.8522    -2.5677     1.0711 H       
  52 H52           -3.8775    -1.0075    -2.0799 H       
  53 H53           -3.8896    -0.8317    -0.3083 H       
  54 H54           -2.1661     0.6296    -1.3068 H       
  55 H55           -1.4179    -0.7780    -2.0995 H       
  56 H56           -4.8733    -3.2157    -0.1059 H       
  57 H57           -5.7570    -2.0672    -2.1675 H       
  58 H58           -4.6628    -2.6425    -4.3641 H       
  59 H59           -3.2765    -2.5246    -3.2368 H       
  60 H60           -4.2415    -4.8918    -4.6470 H       
  61 H61           -2.8552    -4.7739    -3.5197 H       
  62 H62           -2.9651    -5.0731    -1.3045 H       
  63 H63           -4.4528    -5.4669    -0.3889 H       
  64 H64           -4.9591    -6.3272    -2.7034 H       
  65 H65           -6.6466    -4.5394    -1.6339 H       
  66 H66           -6.5580    -4.2981    -3.4203 H       
  67 H67            6.2185     8.0303    -4.4230 H       
  68 H68            7.3789     9.3477    -2.7360 H       
  69 H69            7.8946     9.7222    -0.3051 H       
  70 H70            5.0427     5.8270     0.8477 H       
  71 H71            4.3120     6.0878     2.7630 H       
  72 H72            5.7262     5.0155     2.6273 H       
  73 H73            5.2867     5.7136     4.2046 H       
  74 H74            9.3279     9.9486     1.1719 H       
  75 H75            7.9140    11.0213     1.3070 H       
  76 H76            8.9677    10.7558     2.7168 H       
@<TRIPOS>BOND
   1    1    2 ar
   2    1    6 ar
   3    1   41 1
   4    2    3 ar
   5    2   15 1
   6    3    4 ar
   7    3   42 1
   8    4    5 ar
   9    4   43 1
  10    5    6 ar
  11    5    7 1
  12    6   44 1
  13    7    8 1
  14    7   45 1
  15    8    9 2
  16    8   10 1
  17    9   12 1
  18   10   11 2
  19   11   12 1
  20   11   14 1
  21   12   13 1
  22   13   28 ar
  23   13   32 ar
  24   14   46 1
  25   14   47 1
  26   15   16 1
  27   15   20 1
  28   16   17 1
  29   16   48 1
  30   16   49 1
  31   17   18 1
  32   17   50 1
  33   17   51 1
  34   18   19 1
  35   18   21 1
  36   19   20 1
  37   19   52 1
  38   19   53 1
  39   20   54 1
  40   20   55 1
  41   21   22 1
  42   21   25 1
  43   21   56 1
  44   22   23 1
  45   22   27 1
  46   22   57 1
  47   23   24 1
  48   23   58 1
  49   23   59 1
  50   24   26 1
  51   24   60 1
  52   24   61 1
  53   25   26 1
  54   25   62 1
  55   25   63 1
  56   26   27 1
  57   26   64 1
  58   27   65 1
  59   27   66 1
  60   28   29 ar
  61   29   30 ar
  62   29   67 1
  63   30   31 ar
  64   30   68 1
  65   31   32 ar
  66   31   33 ar
  67   32   36 ar
  68   33   34 ar
  69   33   69 1
  70   34   35 ar
  71   34   39 1
  72   35   36 ar
  73   35   37 1
  74   36   70 1
  75   37   38 1
  76   38   71 1
  77   38   72 1
  78   38   73 1
  79   39   40 1
  80   40   74 1
  81   40   75 1
  82   40   76 1

#	End of record

