#	Name: ASD10160072
#	Creating user name:	WinNT
#	Creation time:	15. 06. 2019 21:25

#	Modifying user name:	WinNT
#	Modification time:	15. 06. 2019 21:25

#	Program:	/corina/corina34_cracker 3.40 0067  02.08.2006

@<TRIPOS>MOLECULE
ASD10160072
  44   45    0    0    0
SMALL
NO_CHARGES


@<TRIPOS>ATOM
   1 C1            -2.2277    -2.5987     4.8621 C.2     
   2 C2            -1.6264    -3.0025     3.5778 C.ar    
   3 C3            -0.3017    -3.4537     3.5337 C.ar    
   4 C4             0.2561    -3.8309     2.3288 C.ar    
   5 C5            -0.4948    -3.7627     1.1626 C.ar    
   6 C6            -1.8117    -3.3143     1.2028 C.ar    
   7 C7            -2.3789    -2.9416     2.4013 C.ar    
   8 O8            -1.5730    -2.6572     5.8851 O.2     
   9 N9            -3.5013    -2.1594     4.9013 N.am    
  10 S10           -4.1767    -1.7058     6.3437 S.o2    
  11 O11           -5.5059    -1.3335     6.0066 O.2     
  12 O12           -3.9205    -2.8021     7.2108 O.2     
  13 C13           -3.2188    -0.2526     6.8549 C.3     
  14 F14            0.4292    -3.5193     4.6680 F       
  15 O15            0.0574    -4.1342    -0.0202 O.3     
  16 C16            2.4220    -3.8531    -0.1441 C.ar    
  17 C17            1.3073    -4.6674    -0.0012 C.ar    
  18 C18            1.4874    -6.0370     0.1621 C.ar    
  19 C19            2.7820    -6.5342     0.1754 C.ar    
  20 C20            3.8428    -5.6586     0.0269 C.ar    
  21 N21            3.6363    -4.3652    -0.1259 N.ar    
  22 C22            5.2529    -6.1900     0.0406 C.3     
  23 C23            6.2361    -5.0318    -0.1401 C.3     
  24 C24            6.1456    -4.0932     1.0648 C.3     
  25 C25            7.6590    -5.5833    -0.2512 C.3     
  26 F26            5.5001    -6.8252     1.2624 F       
  27 F27            5.4158    -7.1072    -1.0032 F       
  28 Cl28           3.0679    -8.2346     0.3764 Cl      
  29 Cl29          -2.7436    -3.2314    -0.2595 Cl      
  30 H30            1.2777    -4.1792     2.2929 H       
  31 H31           -3.4024    -2.5981     2.4313 H       
  32 H32           -4.0223    -2.1089     4.0847 H       
  33 H33           -3.3110     0.5275     6.0993 H       
  34 H34           -3.5996     0.1170     7.8070 H       
  35 H35           -2.1703    -0.5291     6.9656 H       
  36 H36            2.2929    -2.7890    -0.2759 H       
  37 H37            0.6401    -6.6968     0.2761 H       
  38 H38            5.9875    -4.4824    -1.0481 H       
  39 H39            6.3942    -4.6426     1.9728 H       
  40 H40            6.8460    -3.2681     0.9360 H       
  41 H41            5.1319    -3.7003     1.1439 H       
  42 H42            7.7235    -6.2520    -1.1096 H       
  43 H43            8.3594    -4.7581    -0.3799 H       
  44 H44            7.9076    -6.1326     0.6568 H       
@<TRIPOS>BOND
   1    1    2 1
   2    1    8 2
   3    1    9 am
   4    2    3 ar
   5    2    7 ar
   6    3    4 ar
   7    3   14 1
   8    4    5 ar
   9    4   30 1
  10    5    6 ar
  11    5   15 1
  12    6    7 ar
  13    6   29 1
  14    7   31 1
  15    9   10 am
  16    9   32 1
  17   10   11 2
  18   10   12 2
  19   10   13 1
  20   13   33 1
  21   13   34 1
  22   13   35 1
  23   15   17 1
  24   16   17 ar
  25   16   21 ar
  26   16   36 1
  27   17   18 ar
  28   18   19 ar
  29   18   37 1
  30   19   20 ar
  31   19   28 1
  32   20   21 ar
  33   20   22 1
  34   22   23 1
  35   22   26 1
  36   22   27 1
  37   23   24 1
  38   23   25 1
  39   23   38 1
  40   24   39 1
  41   24   40 1
  42   24   41 1
  43   25   42 1
  44   25   43 1
  45   25   44 1

#	End of record

