#	Name: ASD11760001
#	Creating user name:	WinNT
#	Creation time:	15. 06. 2019 21:29

#	Modifying user name:	WinNT
#	Modification time:	15. 06. 2019 21:29

#	Program:	/corina/corina34_cracker 3.40 0067  02.08.2006

@<TRIPOS>MOLECULE
ASD11760001
   9    8    0    0    0
SMALL
NO_CHARGES


@<TRIPOS>ATOM
   1 C1            -0.0156     1.2992     0.0092 C.2     
   2 N2             0.0021    -0.0041     0.0020 N.2     
   3 N3             1.1655     2.0028     0.0017 N.pl3   
   4 N4            -1.2154     1.9704     0.0185 N.pl3   
   5 H5            -0.8313    -0.5005     0.0073 H       
   6 H6             2.0121     1.5293    -0.0089 H       
   7 H7             1.1524     2.9727     0.0070 H       
   8 H8            -2.0488     1.4740     0.0198 H       
   9 H9            -1.2286     2.9403     0.0239 H       
@<TRIPOS>BOND
   1    1    2 2
   2    1    3 1
   3    1    4 1
   4    2    5 1
   5    3    6 1
   6    3    7 1
   7    4    8 1
   8    4    9 1

#	End of record

