#	Name: ASD15280019
#	Creating user name:	WinNT
#	Creation time:	15. 06. 2019 21:31

#	Modifying user name:	WinNT
#	Modification time:	15. 06. 2019 21:31

#	Program:	/corina/corina34_cracker 3.40 0067  02.08.2006

@<TRIPOS>MOLECULE
ASD15280019
  53   57    0    0    0
SMALL
NO_CHARGES


@<TRIPOS>ATOM
   1 C1            -0.0677     1.5017     0.0153 C.3     
   2 C2            -0.0216    -0.0046     0.0044 C.ar    
   3 C3            -0.1233    -0.6932    -1.2023 C.ar    
   4 N4            -0.2369     0.0301    -2.3750 N.am    
   5 C5            -1.0183    -0.1204    -3.4101 C.2     
   6 O6            -0.8876     0.7150    -4.2835 O.2     
   7 C7            -2.0283    -1.1469    -3.6746 C.ar    
   8 C8            -3.2671    -0.7773    -4.2130 C.ar    
   9 C9            -4.2226    -1.7361    -4.4715 C.ar    
  10 C10           -3.9667    -3.0687    -4.2026 C.ar    
  11 C11           -2.7462    -3.4452    -3.6682 C.ar    
  12 C12           -1.7860    -2.4944    -3.4034 C.ar    
  13 S13           -0.2354    -2.9698    -2.7085 S.o2    
  14 O14           -0.3503    -4.3435    -2.3638 O.2     
  15 O15            0.7694    -2.4650    -3.5772 O.2     
  16 C16           -0.0872    -2.0815    -1.1908 C.ar    
  17 C17            0.0605    -2.7760    -0.0056 C.ar    
  18 C18            0.1657    -2.0978     1.1916 C.ar    
  19 C19            0.1282    -0.7025     1.1998 C.ar    
  20 C20            0.2419     0.0335     2.4772 C.2     
  21 O21            0.3214     1.2464     2.4748 O.2     
  22 N22            0.2576    -0.6406     3.6442 N.am    
  23 C23            0.3703     0.0886     4.9098 C.3     
  24 C24            0.3648    -0.8902     6.0556 C.2     
  25 C25            1.4393    -1.4665     6.6005 C.2     
  26 N26            1.1742    -2.2898     7.5958 N.2     
  27 C27           -0.0716    -2.4384     7.9195 C.2     
  28 S28           -1.0596    -1.4689     6.9160 S.3     
  29 N29           -0.5380    -3.2638     8.9414 N.pl3   
  30 C30            0.2255    -4.0340     9.7599 C.2     
  31 C31           -0.6070    -4.6775    10.6105 C.2     
  32 C32           -1.9174    -4.2920    10.3064 C.2     
  33 N33           -1.8772    -3.4426     9.3119 N.2     
  34 C34           -0.1955    -5.6404    11.6943 C.3     
  35 F35            0.0293    -4.9369    12.8825 F       
  36 F36           -1.2126    -6.5801    11.8939 F       
  37 F37            0.9787    -6.2982    11.3125 F       
  38 H38            0.9483     1.8961     0.0306 H       
  39 H39           -0.5817     1.8559    -0.8782 H       
  40 H40           -0.6031     1.8424     0.9016 H       
  41 H41            0.3714     0.7828    -2.4402 H       
  42 H42           -3.4741     0.2611    -4.4258 H       
  43 H43           -5.1766    -1.4454    -4.8860 H       
  44 H44           -4.7191    -3.8154    -4.4092 H       
  45 H45           -2.5470    -4.4858    -3.4588 H       
  46 H46            0.0934    -3.8554    -0.0162 H       
  47 H47            0.2809    -2.6434     2.1165 H       
  48 H48            0.1941    -1.6085     3.6461 H       
  49 H49            1.3011     0.6556     4.9207 H       
  50 H50           -0.4727     0.7720     5.0117 H       
  51 H51            2.4440    -1.2737     6.2541 H       
  52 H52            1.3020    -4.1180     9.7354 H       
  53 H53           -2.8097    -4.6342    10.8094 H       
@<TRIPOS>BOND
   1    1    2 1
   2    1   38 1
   3    1   39 1
   4    1   40 1
   5    2   19 ar
   6    2    3 ar
   7    3   16 ar
   8    3    4 1
   9    4    5 am
  10    4   41 1
  11    5    6 2
  12    5    7 1
  13    7   12 ar
  14    7    8 ar
  15    8    9 ar
  16    8   42 1
  17    9   10 ar
  18    9   43 1
  19   10   11 ar
  20   10   44 1
  21   11   12 ar
  22   11   45 1
  23   12   13 1
  24   13   14 2
  25   13   15 2
  26   13   16 1
  27   16   17 ar
  28   17   18 ar
  29   17   46 1
  30   18   19 ar
  31   18   47 1
  32   19   20 1
  33   20   21 2
  34   20   22 am
  35   22   23 1
  36   22   48 1
  37   23   24 1
  38   23   49 1
  39   23   50 1
  40   24   28 1
  41   24   25 2
  42   25   26 1
  43   25   51 1
  44   26   27 2
  45   27   28 1
  46   27   29 1
  47   29   33 1
  48   29   30 1
  49   30   31 2
  50   30   52 1
  51   31   32 1
  52   31   34 1
  53   32   33 2
  54   32   53 1
  55   34   35 1
  56   34   36 1
  57   34   37 1

#	End of record

