#	Name: ASD14210001
#	Creating user name:	WinNT
#	Creation time:	15. 06. 2019 21:31

#	Modifying user name:	WinNT
#	Modification time:	15. 06. 2019 21:31

#	Program:	/corina/corina34_cracker 3.40 0067  02.08.2006

@<TRIPOS>MOLECULE
ASD14210001
  57   61    0    0    0
SMALL
NO_CHARGES


@<TRIPOS>ATOM
   1 C1            -0.0172     1.4194     0.0098 C.ar    
   2 C2             1.1848     2.1555     0.0023 C.ar    
   3 C3             2.4531     1.4207    -0.0077 C.ar    
   4 C4             2.4121     0.0116    -0.0106 C.ar    
   5 C5             1.1675    -0.6792    -0.0026 C.ar    
   6 C6             0.0021    -0.0041     0.0020 C.ar    
   7 C7            -1.2578     3.4794     0.0203 C.ar    
   8 C8            -0.0617     4.2056     0.0141 C.ar    
   9 C9             1.1524     3.5515     0.0035 C.ar    
  10 C10           -1.2429     2.1026     0.0193 C.ar    
  11 C11            3.6803     2.0866    -0.0140 C.ar    
  12 C12            4.8516     1.3585    -0.0233 C.ar    
  13 C13            4.8162    -0.0404    -0.0275 C.ar    
  14 C14            3.6143    -0.7121    -0.0209 C.ar    
  15 C15           -1.3514    -0.6898    -0.0107 C.3     
  16 C16            1.2449    -2.1947     0.0073 C.3     
  17 C17           -1.1660    -2.1213    -0.4847 C.3     
  18 C18           -2.3685    -3.0357    -0.1885 C.3     
  19 C19           -0.0940    -2.7476     0.4551 C.3     
  20 N20           -0.2710    -4.1902     0.2822 N.3     
  21 C21           -1.6958    -4.4267    -0.0564 C.3     
  22 O22           -2.4463     4.1397     0.0326 O.3     
  23 C23           -3.6318     3.3418     0.0384 C.3     
  24 O24           -0.0967     5.5647     0.0135 O.3     
  25 C25            1.1594     6.2460     0.0070 C.3     
  26 O26            6.0481     2.0040    -0.0291 O.3     
  27 C27            6.0146     3.4326    -0.0249 C.3     
  28 O28            5.9801    -0.7431    -0.0375 O.3     
  29 C29            5.8774    -2.1684    -0.0413 C.3     
  30 O30           -1.9020    -0.6888     1.3079 O.3     
  31 H31           -0.8617    -2.1599    -1.5306 H       
  32 H32            2.0731     4.1159    -0.0035 H       
  33 H33           -2.1711     1.5505     0.0254 H       
  34 H34            3.7122     3.1661    -0.0118 H       
  35 H35            3.5969    -1.7919    -0.0238 H       
  36 H36           -2.0218    -0.1635    -0.6901 H       
  37 H37            1.4724    -2.5556    -0.9958 H       
  38 H38            2.0232    -2.5165     0.6992 H       
  39 H39           -2.8539    -2.7490     0.7444 H       
  40 H40           -3.0779    -3.0245    -1.0160 H       
  41 H41           -0.2889    -2.4591     1.4880 H       
  42 H42            0.3355    -4.5446    -0.4422 H       
  43 H43           -2.1757    -4.9973     0.7386 H       
  44 H44           -1.7694    -4.9660    -1.0008 H       
  45 H45           -3.6533     2.7166    -0.8542 H       
  46 H46           -3.6393     2.7088     0.9257 H       
  47 H47           -4.5070     3.9915     0.0481 H       
  48 H48            1.7280     5.9680     0.8944 H       
  49 H49            1.7194     5.9670    -0.8855 H       
  50 H50            0.9888     7.3225     0.0073 H       
  51 H51            5.4868     3.7862    -0.9106 H       
  52 H52            5.4980     3.7813     0.8693 H       
  53 H53            7.0334     3.8199    -0.0302 H       
  54 H54            6.8762    -2.6047    -0.0494 H       
  55 H55            5.3448    -2.4966     0.8513 H       
  56 H56            5.3327    -2.4911    -0.9286 H       
  57 H57           -2.0346     0.1947     1.6781 H       
@<TRIPOS>BOND
   1    1    6 ar
   2    1    2 ar
   3    1   10 ar
   4    2    3 ar
   5    2    9 ar
   6    3    4 ar
   7    3   11 ar
   8    4    5 ar
   9    4   14 ar
  10    5    6 ar
  11    5   16 1
  12    6   15 1
  13    7    8 ar
  14    7   10 ar
  15    7   22 1
  16    8    9 ar
  17    8   24 1
  18    9   32 1
  19   10   33 1
  20   11   12 ar
  21   11   34 1
  22   12   13 ar
  23   12   26 1
  24   13   14 ar
  25   13   28 1
  26   14   35 1
  27   15   17 1
  28   15   30 1
  29   15   36 1
  30   16   19 1
  31   16   37 1
  32   16   38 1
  33   17   19 1
  34   17   31 1
  35   17   18 1
  36   18   21 1
  37   18   39 1
  38   18   40 1
  39   19   20 1
  40   19   41 1
  41   20   21 1
  42   20   42 1
  43   21   43 1
  44   21   44 1
  45   22   23 1
  46   23   45 1
  47   23   46 1
  48   23   47 1
  49   24   25 1
  50   25   48 1
  51   25   49 1
  52   25   50 1
  53   26   27 1
  54   27   51 1
  55   27   52 1
  56   27   53 1
  57   28   29 1
  58   29   54 1
  59   29   55 1
  60   29   56 1
  61   30   57 1

#	End of record

