#	Name: ASD13010057
#	Creating user name:	WinNT
#	Creation time:	15. 06. 2019 21:30

#	Modifying user name:	WinNT
#	Modification time:	15. 06. 2019 21:30

#	Program:	/corina/corina34_cracker 3.40 0067  02.08.2006

@<TRIPOS>MOLECULE
ASD13010057
  43   46    0    0    0
SMALL
NO_CHARGES


@<TRIPOS>ATOM
   1 C1            -0.0169     1.3704     0.0656 C.ar    
   2 C2            -0.0018     0.0051     0.0185 C.ar    
   3 C3             1.2011    -0.6861    -0.0355 C.ar    
   4 C4             2.3998    -0.0077    -0.0425 C.ar    
   5 C5             1.1861     2.0781     0.0590 C.ar    
   6 C6             1.5271     3.5067     0.0987 C.2     
   7 C7             2.4061     1.3826     0.0045 C.ar    
   8 N8             3.4071     2.3297     0.0115 N.am    
   9 C9             0.5681     4.6327     0.1620 C.ar    
  10 C10            0.8885     5.7821     0.8871 C.ar    
  11 C11           -0.0024     6.8293     0.9465 C.ar    
  12 C12           -1.2282     6.7422     0.2803 C.ar    
  13 C13           -1.5480     5.5912    -0.4457 C.ar    
  14 C14           -0.6539     4.5470    -0.5081 C.ar    
  15 N15            2.8338     3.6041     0.0683 N.2     
  16 C16            4.7288     2.0693    -0.0300 C.2     
  17 C17            5.6968     3.1788    -0.1446 C.ar    
  18 C18            7.5640     1.5180     0.1503 C.3     
  19 C19            7.0677     2.9254    -0.0592 C.ar    
  20 C20            5.2460     4.4851    -0.3447 C.ar    
  21 C21            6.1558     5.5167    -0.4513 C.ar    
  22 C22            7.5121     5.2591    -0.3610 C.ar    
  23 C23            7.9662     3.9661    -0.1676 C.ar    
  24 C24           -2.1844     7.8644     0.3439 C.2     
  25 O25           -1.9063     8.8644     0.9753 O.2     
  26 O26           -3.3659     7.7800    -0.2984 O.3     
  27 O27            5.1240     0.9216     0.0269 O.2     
  28 F28            8.9621     1.5192     0.2017 F       
  29 F29            7.0537     1.0178     1.3531 F       
  30 F30            7.1370     0.7103    -0.9092 F       
  31 H31           -0.9570     1.9006     0.1033 H       
  32 H32           -0.9334    -0.5412     0.0237 H       
  33 H33            1.1969    -1.7655    -0.0720 H       
  34 H34            3.3311    -0.5529    -0.0839 H       
  35 H35            1.8356     5.8493     1.4017 H       
  36 H36            0.2453     7.7180     1.5080 H       
  37 H37           -2.4949     5.5229    -0.9605 H       
  38 H38           -0.8990     3.6594    -1.0723 H       
  39 H39            4.1875     4.6874    -0.4161 H       
  40 H40            5.8085     6.5275    -0.6060 H       
  41 H41            8.2201     6.0704    -0.4455 H       
  42 H42            9.0264     3.7717    -0.1014 H       
  43 H43           -3.9593     8.5403    -0.2277 H       
@<TRIPOS>BOND
   1    1    2 ar
   2    1    5 ar
   3    1   31 1
   4    2    3 ar
   5    2   32 1
   6    3    4 ar
   7    3   33 1
   8    4    7 ar
   9    4   34 1
  10    5    7 ar
  11    5    6 1
  12    6   15 2
  13    6    9 1
  14    7    8 1
  15    8   16 am
  16    8   15 1
  17    9   10 ar
  18    9   14 ar
  19   10   11 ar
  20   10   35 1
  21   11   12 ar
  22   11   36 1
  23   12   13 ar
  24   12   24 1
  25   13   14 ar
  26   13   37 1
  27   14   38 1
  28   16   17 1
  29   16   27 2
  30   17   20 ar
  31   17   19 ar
  32   18   28 1
  33   18   29 1
  34   18   30 1
  35   18   19 1
  36   19   23 ar
  37   20   21 ar
  38   20   39 1
  39   21   22 ar
  40   21   40 1
  41   22   23 ar
  42   22   41 1
  43   23   42 1
  44   24   25 2
  45   24   26 1
  46   26   43 1

#	End of record

