#	Name: ASD12970010
#	Creating user name:	WinNT
#	Creation time:	15. 06. 2019 21:30

#	Modifying user name:	WinNT
#	Modification time:	15. 06. 2019 21:30

#	Program:	/corina/corina34_cracker 3.40 0067  02.08.2006

@<TRIPOS>MOLECULE
ASD12970010
  20   19    0    0    0
SMALL
NO_CHARGES


@<TRIPOS>ATOM
   1 C1            -0.0187     1.5258     0.0104 C.3     
   2 C2             0.0021    -0.0041     0.0020 C.3     
   3 C3             0.7182    -0.4975    -1.2568 C.3     
   4 C4             0.7390    -2.0273    -1.2652 C.3     
   5 C5             1.4551    -2.5207    -2.5240 C.3     
   6 C6             1.4755    -4.0276    -2.5323 C.2     
   7 O7             2.0562    -4.6853    -3.5481 O.3     
   8 O8             0.9693    -4.6436    -1.6245 O.2     
   9 H9             1.0039     1.9031     0.0027 H       
  10 H10           -0.5459     1.8868    -0.8726 H       
  11 H11           -0.5289     1.8773     0.9072 H       
  12 H12            0.5293    -0.3651     0.8851 H       
  13 H13           -1.0205    -0.3814     0.0098 H       
  14 H14            0.1910    -0.1364    -2.1398 H       
  15 H15            1.7408    -0.1202    -1.2645 H       
  16 H16            1.2661    -2.3884    -0.3821 H       
  17 H17           -0.2836    -2.4046    -1.2575 H       
  18 H18            0.9279    -2.1597    -3.4071 H       
  19 H19            2.4777    -2.1435    -2.5317 H       
  20 H20            2.0444    -5.6515    -3.5094 H       
@<TRIPOS>BOND
   1    1    2 1
   2    1    9 1
   3    1   10 1
   4    1   11 1
   5    2    3 1
   6    2   12 1
   7    2   13 1
   8    3    4 1
   9    3   14 1
  10    3   15 1
  11    4    5 1
  12    4   16 1
  13    4   17 1
  14    5    6 1
  15    5   18 1
  16    5   19 1
  17    6    7 1
  18    6    8 2
  19    7   20 1

#	End of record

