#	Name: ASD11710033
#	Creating user name:	WinNT
#	Creation time:	15. 06. 2019 21:29

#	Modifying user name:	WinNT
#	Modification time:	15. 06. 2019 21:29

#	Program:	/corina/corina34_cracker 3.40 0067  02.08.2006

@<TRIPOS>MOLECULE
ASD11710033
  49   52    0    0    0
SMALL
NO_CHARGES


@<TRIPOS>ATOM
   1 C1            -0.6259     1.8287     0.0766 C.2     
   2 C2            -0.5920     0.3597    -0.0765 C.ar    
   3 C3             0.5731    -0.2731    -0.5145 C.ar    
   4 C4            -1.7231    -0.4028     0.2217 C.ar    
   5 C5            -1.6846    -1.7740     0.0765 C.ar    
   6 C6            -0.5284    -2.3941    -0.3631 C.ar    
   7 C7             0.5978    -1.6451    -0.6553 C.ar    
   8 S8            -0.4876    -4.1462    -0.5447 S.o2    
   9 N9            -1.0818    -4.4970    -2.0500 N.am    
  10 C10           -2.3993    -4.1665    -2.3753 C.ar    
  11 C11           -2.6850    -3.5609    -3.5923 C.ar    
  12 C12           -3.4277    -4.4479    -1.4848 C.ar    
  13 C13           -4.7293    -4.1197    -1.8095 C.ar    
  14 C14           -5.0095    -3.5121    -3.0197 C.ar    
  15 C15           -3.9888    -3.2353    -3.9107 C.ar    
  16 O16            0.8842    -4.5164    -0.5585 O.2     
  17 O17           -1.4241    -4.6682     0.3880 O.2     
  18 N18           -1.5643     2.5213    -0.5346 N.2     
  19 C19           -1.6319     3.8465    -0.4240 C.2     
  20 C20           -0.7182     4.5179     0.3338 C.2     
  21 C21            0.2899     3.7857     0.9919 C.2     
  22 N22            0.3113     2.4428     0.8525 N.am    
  23 C23            1.3453     1.6502     1.5227 C.3     
  24 O24            1.1239     4.3533     1.6777 O.2     
  25 C25            0.8705     1.2676     2.9008 C.ar    
  26 C26            0.1742     0.0884     3.0892 C.ar    
  27 C27           -0.2614    -0.2627     4.3534 C.ar    
  28 C28           -0.0002     0.5653     5.4291 C.ar    
  29 C29            0.6969     1.7441     5.2407 C.ar    
  30 C30            1.1362     2.0930     3.9773 C.ar    
  31 H31            1.4528     0.3104    -0.7429 H       
  32 H32           -2.6260     0.0799     0.5656 H       
  33 H33           -2.5587    -2.3649     0.3067 H       
  34 H34            1.4969    -2.1354    -0.9983 H       
  35 H35           -0.5149    -4.9320    -2.7060 H       
  36 H36           -1.8883    -3.3444    -4.2886 H       
  37 H37           -3.2096    -4.9231    -0.5398 H       
  38 H38           -5.5293    -4.3382    -1.1176 H       
  39 H39           -6.0283    -3.2572    -3.2714 H       
  40 H40           -4.2110    -2.7607    -4.8550 H       
  41 H41           -2.4118     4.3909    -0.9357 H       
  42 H42           -0.7663     5.5927     0.4277 H       
  43 H43            1.5443     0.7485     0.9435 H       
  44 H44            2.2590     2.2391     1.6037 H       
  45 H45           -0.0299    -0.5585     2.2488 H       
  46 H46           -0.8060    -1.1836     4.5005 H       
  47 H47           -0.3411     0.2914     6.4166 H       
  48 H48            0.9007     2.3911     6.0811 H       
  49 H49            1.6809     3.0139     3.8302 H       
@<TRIPOS>BOND
   1    1    2 1
   2    1   18 2
   3    1   22 1
   4    2    3 ar
   5    2    4 ar
   6    3    7 ar
   7    3   31 1
   8    4    5 ar
   9    4   32 1
  10    5    6 ar
  11    5   33 1
  12    6    7 ar
  13    6    8 1
  14    7   34 1
  15    8    9 am
  16    8   16 2
  17    8   17 2
  18    9   10 1
  19    9   35 1
  20   10   11 ar
  21   10   12 ar
  22   11   15 ar
  23   11   36 1
  24   12   13 ar
  25   12   37 1
  26   13   14 ar
  27   13   38 1
  28   14   15 ar
  29   14   39 1
  30   15   40 1
  31   18   19 1
  32   19   20 2
  33   19   41 1
  34   20   21 1
  35   20   42 1
  36   21   22 am
  37   21   24 2
  38   22   23 1
  39   23   25 1
  40   23   43 1
  41   23   44 1
  42   25   26 ar
  43   25   30 ar
  44   26   27 ar
  45   26   45 1
  46   27   28 ar
  47   27   46 1
  48   28   29 ar
  49   28   47 1
  50   29   30 ar
  51   29   48 1
  52   30   49 1

#	End of record

