#	Name: ASD10410101
#	Creating user name:	WinNT
#	Creation time:	15. 06. 2019 21:26

#	Modifying user name:	WinNT
#	Modification time:	15. 06. 2019 21:26

#	Program:	/corina/corina34_cracker 3.40 0067  02.08.2006

@<TRIPOS>MOLECULE
ASD10410101
  70   76    0    0    0
SMALL
NO_CHARGES


@<TRIPOS>ATOM
   1 C1            -0.0464     1.3928    -0.0606 C.ar    
   2 C2            -0.0104     0.0098     0.0593 C.ar    
   3 C3             1.2078    -0.6448     0.1859 C.ar    
   4 C4             2.3833     0.0794     0.1922 C.ar    
   5 C5             2.3474     1.4625     0.0719 C.ar    
   6 C6             1.1292     2.1171    -0.0543 C.ar    
   7 N7             3.5396     2.1971     0.0787 N.pl3   
   8 C8             3.6255     3.3930    -0.6323 C.2     
   9 N9             4.6494     4.2122    -0.6205 N.2     
  10 N10            2.6784     3.8847    -1.4402 N.2     
  11 C11            3.0809     5.0279    -1.9518 C.2     
  12 N12            4.3260     5.2859    -1.4660 N.pl3   
  13 C13            5.1178     6.3896    -1.7495 C.ar    
  14 N14            2.3687     5.8227    -2.8279 N.pl3   
  15 N15           -1.2021    -0.7244     0.0529 N.3     
  16 C16           -0.9351    -2.1629     0.1908 C.3     
  17 C17           -2.2628    -2.9212     0.2594 C.3     
  18 N18           -3.0435    -2.6475    -0.9552 N.3     
  19 C19           -3.3105    -1.2090    -1.0931 C.3     
  20 C20           -1.9828    -0.4507    -1.1617 C.3     
  21 N21            5.2913     6.8002    -2.9975 N.ar    
  22 C22            6.0437     7.8511    -3.2817 C.ar    
  23 N23            6.6643     8.5539    -2.3639 N.ar    
  24 C24            6.5567     8.2251    -1.0689 C.ar    
  25 C25            5.7569     7.1104    -0.7140 C.ar    
  26 C26           -5.0988    -3.1283    -2.2496 C.3     
  27 C27           -5.2057    -4.5088    -2.9666 C.3     
  28 C28           -3.7577    -4.8033    -3.4644 C.3     
  29 C29           -2.9531    -5.0930    -2.1767 C.3     
  30 C30           -4.2942    -3.4180    -0.9619 C.3     
  31 C31           -3.9908    -4.9463    -1.0221 C.3     
  32 C32           -5.2890    -5.4721    -1.7303 C.3     
  33 C33            6.1950     8.2587    -4.7247 C.3     
  34 C34            7.2052     8.9526    -0.0613 C.ar    
  35 C35            7.0616     8.5743     1.2402 C.ar    
  36 C36            6.2803     7.4749     1.5865 C.ar    
  37 C37            5.6300     6.7492     0.6326 C.ar    
  38 H38           -0.9935     1.9015    -0.1632 H       
  39 H39            1.2356    -1.7204     0.2798 H       
  40 H40            3.3307    -0.4296     0.2911 H       
  41 H41            1.1012     3.1927    -0.1478 H       
  42 H42            4.3057     1.8737     0.5783 H       
  43 H43            1.4844     5.5513    -3.1197 H       
  44 H44            2.7527     6.6526    -3.1516 H       
  45 H45           -0.3618    -2.5105    -0.6686 H       
  46 H46           -0.3668    -2.3414     1.1037 H       
  47 H47           -2.0673    -3.9910     0.3326 H       
  48 H48           -2.8242    -2.5931     1.1342 H       
  49 H49           -3.8788    -1.0305    -2.0060 H       
  50 H50           -3.8838    -0.8614    -0.2337 H       
  51 H51           -2.1784     0.6191    -1.2349 H       
  52 H52           -1.4214    -0.7788    -2.0365 H       
  53 H53           -4.5663    -2.4141    -2.8777 H       
  54 H54           -6.0909    -2.7514    -2.0011 H       
  55 H55           -5.9939    -4.5976    -3.7143 H       
  56 H56           -3.7511    -5.6737    -4.1205 H       
  57 H57           -3.3491    -3.9344    -3.9803 H       
  58 H58           -2.5509    -6.1059    -2.1997 H       
  59 H59           -2.1490    -4.3665    -2.0595 H       
  60 H60           -4.8900    -3.1816    -0.0803 H       
  61 H61           -3.7209    -5.4161    -0.0763 H       
  62 H62           -6.1822    -5.2929    -1.1319 H       
  63 H63           -5.2006    -6.5189    -2.0210 H       
  64 H64            5.4101     8.9685    -4.9859 H       
  65 H65            7.1695     8.7247    -4.8703 H       
  66 H66            6.1147     7.3776    -5.3614 H       
  67 H67            7.8150     9.8071    -0.3147 H       
  68 H68            7.5619     9.1360     2.0152 H       
  69 H69            6.1839     7.1962     2.6255 H       
  70 H70            5.0269     5.8984     0.9133 H       
@<TRIPOS>BOND
   1    1    2 ar
   2    1    6 ar
   3    1   38 1
   4    2    3 ar
   5    2   15 1
   6    3    4 ar
   7    3   39 1
   8    4    5 ar
   9    4   40 1
  10    5    6 ar
  11    5    7 1
  12    6   41 1
  13    7    8 1
  14    7   42 1
  15    8    9 2
  16    8   10 1
  17    9   12 1
  18   10   11 2
  19   11   12 1
  20   11   14 1
  21   12   13 1
  22   13   21 ar
  23   13   25 ar
  24   14   43 1
  25   14   44 1
  26   15   16 1
  27   15   20 1
  28   16   17 1
  29   16   45 1
  30   16   46 1
  31   17   18 1
  32   17   47 1
  33   17   48 1
  34   18   19 1
  35   18   30 1
  36   19   20 1
  37   19   49 1
  38   19   50 1
  39   20   51 1
  40   20   52 1
  41   21   22 ar
  42   22   23 ar
  43   22   33 1
  44   23   24 ar
  45   24   25 ar
  46   24   34 ar
  47   25   37 ar
  48   26   27 1
  49   26   30 1
  50   26   53 1
  51   26   54 1
  52   27   28 1
  53   27   32 1
  54   27   55 1
  55   28   29 1
  56   28   56 1
  57   28   57 1
  58   29   31 1
  59   29   58 1
  60   29   59 1
  61   30   31 1
  62   30   60 1
  63   31   32 1
  64   31   61 1
  65   32   62 1
  66   32   63 1
  67   33   64 1
  68   33   65 1
  69   33   66 1
  70   34   35 ar
  71   34   67 1
  72   35   36 ar
  73   35   68 1
  74   36   37 ar
  75   36   69 1
  76   37   70 1

#	End of record

