#	Name: ASD11400008
#	Creating user name:	WinNT
#	Creation time:	15. 06. 2019 21:29

#	Modifying user name:	WinNT
#	Modification time:	15. 06. 2019 21:29

#	Program:	/corina/corina34_cracker 3.40 0067  02.08.2006

@<TRIPOS>MOLECULE
ASD11400008
  72   76    0    0    0
SMALL
NO_CHARGES


@<TRIPOS>ATOM
   1 C1             0.1141     1.4146    -0.1016 C.3     
   2 O2             0.0959    -0.0142    -0.0862 O.3     
   3 C3             0.7038    -0.6506    -1.1228 C.ar    
   4 C4             1.3038     0.0841    -2.1312 C.ar    
   5 C5             1.9246    -0.5679    -3.1888 C.ar    
   6 C6             1.9436    -1.9554    -3.2348 C.ar    
   7 C7             1.3450    -2.6902    -2.2288 C.ar    
   8 C8             0.7288    -2.0430    -1.1686 C.ar    
   9 N9             0.1217    -2.7898    -0.1475 N.pl3   
  10 C10           -0.4860    -3.9941    -0.4411 C.ar    
  11 N11           -0.5910    -4.3644    -1.7122 N.ar    
  12 C12           -1.1641    -5.5083    -2.0446 C.ar    
  13 C13           -1.6599    -6.3245    -1.0274 C.ar    
  14 C14           -1.5323    -5.9018     0.3108 C.ar    
  15 N15           -0.9383    -4.7404     0.5562 N.ar    
  16 N16           -2.0133    -6.6886     1.3287 N.pl3   
  17 C17           -1.8699    -6.2297     2.7125 C.3     
  18 C18           -3.0965    -5.4041     3.1057 C.3     
  19 C19           -2.6183    -7.8799     1.0875 C.2     
  20 C20           -2.7858    -8.3730    -0.2067 C.2     
  21 C21           -2.3114    -7.6116    -1.3125 C.2     
  22 O22           -2.4409    -8.0130    -2.4565 O.2     
  23 C23           -3.4447    -9.6635    -0.4263 C.2     
  24 O24           -2.7772   -10.6715    -0.5667 O.2     
  25 N25           -4.7898    -9.7341    -0.4729 N.am    
  26 N26           -3.0755    -8.6163     2.1415 N.pl3   
  27 N27            2.5309     0.1739    -4.2085 N.3     
  28 C28            3.1236    -0.7094    -5.2208 C.3     
  29 C29            3.9000     0.1284    -6.2393 C.3     
  30 C30            2.9484     1.1284    -6.9018 C.3     
  31 C31            2.3078     2.0041    -5.8214 C.3     
  32 C32            1.5776     1.1119    -4.8150 C.3     
  33 N33            3.6998     1.9748    -7.8381 N.3     
  34 C34            2.7985     2.8681    -8.5805 C.3     
  35 C35            3.6262     3.7713    -9.4986 C.3     
  36 O36            4.4206     2.9595   -10.3677 O.3     
  37 C37            5.3105     2.0777    -9.6779 C.3     
  38 C38            4.4999     1.1573    -8.7616 C.3     
  39 H39            1.1462     1.7649    -0.0955 H       
  40 H40           -0.3865     1.7746    -1.0005 H       
  41 H41           -0.4036     1.7940     0.7793 H       
  42 H42            1.2889     1.1634    -2.0957 H       
  43 H43            2.4263    -2.4611    -4.0579 H       
  44 H44            1.3608    -3.7695    -2.2665 H       
  45 H45            0.1291    -2.4599     0.7647 H       
  46 H46           -1.2470    -5.8042    -3.0800 H       
  47 H47           -1.7847    -7.0917     3.3742 H       
  48 H48           -0.9744    -5.6144     2.8003 H       
  49 H49           -2.9898    -5.0626     4.1353 H       
  50 H50           -3.1817    -4.5421     2.4440 H       
  51 H51           -3.9920    -6.0194     3.0179 H       
  52 H52           -5.3196    -8.9225    -0.4339 H       
  53 H53           -5.2280   -10.5964    -0.5453 H       
  54 H54           -2.9034    -8.3221     3.0497 H       
  55 H55           -3.5727    -9.4339     1.9826 H       
  56 H56            3.8014    -1.4128    -4.7370 H       
  57 H57            2.3328    -1.2596    -5.7306 H       
  58 H58            4.6998     0.6682    -5.7323 H       
  59 H59            4.3268    -0.5262    -6.9992 H       
  60 H60            2.1704     0.5882    -7.4414 H       
  61 H61            3.0825     2.5735    -5.3078 H       
  62 H62            1.5970     2.6897    -6.2827 H       
  63 H63            0.7939     0.5532    -5.3267 H       
  64 H64            1.1324     1.7314    -4.0365 H       
  65 H65            2.1092     2.2734    -9.1800 H       
  66 H66            2.2346     3.4819    -7.8781 H       
  67 H67            2.9590     4.3957   -10.0928 H       
  68 H68            4.2773     4.4043    -8.8957 H       
  69 H69            5.8615     1.4773   -10.4018 H       
  70 H70            6.0106     2.6615    -9.0803 H       
  71 H71            5.1780     0.5223    -8.1915 H       
  72 H72            3.8378     0.5353    -9.3640 H       
@<TRIPOS>BOND
   1    1    2 1
   2    1   39 1
   3    1   40 1
   4    1   41 1
   5    2    3 1
   6    3    4 ar
   7    3    8 ar
   8    4    5 ar
   9    4   42 1
  10    5    6 ar
  11    5   27 1
  12    6    7 ar
  13    6   43 1
  14    7    8 ar
  15    7   44 1
  16    8    9 1
  17    9   10 1
  18    9   45 1
  19   10   11 ar
  20   10   15 ar
  21   11   12 ar
  22   12   13 ar
  23   12   46 1
  24   13   14 ar
  25   13   21 1
  26   14   15 ar
  27   14   16 1
  28   16   17 1
  29   16   19 1
  30   17   18 1
  31   17   47 1
  32   17   48 1
  33   18   49 1
  34   18   50 1
  35   18   51 1
  36   19   20 2
  37   19   26 1
  38   20   21 1
  39   20   23 1
  40   21   22 2
  41   23   24 2
  42   23   25 am
  43   25   52 1
  44   25   53 1
  45   26   54 1
  46   26   55 1
  47   27   28 1
  48   27   32 1
  49   28   29 1
  50   28   56 1
  51   28   57 1
  52   29   30 1
  53   29   58 1
  54   29   59 1
  55   30   31 1
  56   30   33 1
  57   30   60 1
  58   31   32 1
  59   31   61 1
  60   31   62 1
  61   32   63 1
  62   32   64 1
  63   33   34 1
  64   33   38 1
  65   34   35 1
  66   34   65 1
  67   34   66 1
  68   35   36 1
  69   35   67 1
  70   35   68 1
  71   36   37 1
  72   37   38 1
  73   37   69 1
  74   37   70 1
  75   38   71 1
  76   38   72 1

#	End of record

