#	Name: ASD10950033
#	Creating user name:	WinNT
#	Creation time:	15. 06. 2019 21:28

#	Modifying user name:	WinNT
#	Modification time:	15. 06. 2019 21:28

#	Program:	/corina/corina34_cracker 3.40 0067  02.08.2006

@<TRIPOS>MOLECULE
ASD10950033
  56   59    0    0    0
SMALL
NO_CHARGES


@<TRIPOS>ATOM
   1 C1            -0.7168     1.3707    -0.3574 C.3     
   2 O2            -0.4629    -0.0543    -0.2424 O.3     
   3 C3             0.1487    -0.6524    -1.2830 C.2     
   4 O4             0.4615    -0.0014    -2.2597 O.2     
   5 C5             0.4391    -2.1001    -1.2364 C.ar    
   6 C6            -0.0297    -2.8755    -0.1743 C.ar    
   7 C7             0.2453    -4.2269    -0.1370 C.ar    
   8 C8             0.9840    -4.8139    -1.1487 C.ar    
   9 C9             1.4518    -4.0512    -2.2045 C.ar    
  10 C10            1.1790    -2.7003    -2.2575 C.ar    
  11 C11            1.6887    -1.8714    -3.4082 C.3     
  12 C12            1.2812    -6.2906    -1.1007 C.3     
  13 N13            1.5958    -6.6972     0.2738 N.am    
  14 C14            2.7054    -6.1953     1.0881 C.3     
  15 C15            2.2447    -4.9679     1.8769 C.3     
  16 C16            3.3862    -4.4516     2.7145 C.2     
  17 C17            3.6290    -4.7458     4.0015 C.2     
  18 N18            4.7537    -4.0918     4.4252 N.pl3   
  19 C19            5.2752    -3.3418     3.3950 C.ar    
  20 C20            4.4447    -3.5385     2.2768 C.ar    
  21 C21            4.7341    -2.8943     1.0722 C.ar    
  22 C22            5.8240    -2.0751     0.9860 C.ar    
  23 C23            6.6470    -1.8780     2.0866 C.ar    
  24 C24            6.3820    -2.5062     3.2835 C.ar    
  25 C25            0.6856    -7.6118     0.6546 C.2     
  26 O26            0.6559    -8.1558     1.7404 O.2     
  27 C27           -0.2745    -7.8562    -0.4443 C.2     
  28 C28            0.0580    -7.0798    -1.5051 C.2     
  29 C29           -0.6113    -7.0203    -2.7505 C.2     
  30 O30           -1.5889    -7.7121    -2.9477 O.2     
  31 C31           -0.1104    -6.0979    -3.8318 C.3     
  32 O32           -1.3167    -8.7157    -0.3981 O.3     
  33 H33            0.2281     1.8990    -0.4847 H       
  34 H34           -1.3565     1.5574    -1.2199 H       
  35 H35           -1.2125     1.7255     0.5463 H       
  36 H36           -0.6059    -2.4183     0.6165 H       
  37 H37           -0.1168    -4.8279     0.6841 H       
  38 H38            2.0279    -4.5158    -2.9911 H       
  39 H39            0.9029    -1.7659    -4.1561 H       
  40 H40            1.9795    -0.8856    -3.0452 H       
  41 H41            2.5525    -2.3632    -3.8556 H       
  42 H42            2.1155    -6.5261    -1.7613 H       
  43 H43            3.0281    -6.9724     1.7810 H       
  44 H44            3.5365    -5.9192     0.4391 H       
  45 H45            1.9220    -4.1908     1.1840 H       
  46 H46            1.4137    -5.2440     2.5259 H       
  47 H47            3.0257    -5.4011     4.6122 H       
  48 H48            5.1278    -4.1479     5.3185 H       
  49 H49            4.0988    -3.0435     0.2117 H       
  50 H50            6.0474    -1.5771     0.0540 H       
  51 H51            7.5052    -1.2276     2.0027 H       
  52 H52            7.0281    -2.3464     4.1340 H       
  53 H53            0.7689    -5.5622    -3.4739 H       
  54 H54            0.1537    -6.6815    -4.7137 H       
  55 H55           -0.8914    -5.3827    -4.0899 H       
  56 H56           -1.4014    -9.1863     0.4425 H       
@<TRIPOS>BOND
   1    1    2 1
   2    1   33 1
   3    1   34 1
   4    1   35 1
   5    2    3 1
   6    3    4 2
   7    3    5 1
   8    5    6 ar
   9    5   10 ar
  10    6    7 ar
  11    6   36 1
  12    7    8 ar
  13    7   37 1
  14    8    9 ar
  15    8   12 1
  16    9   10 ar
  17    9   38 1
  18   10   11 1
  19   11   39 1
  20   11   40 1
  21   11   41 1
  22   12   13 1
  23   12   28 1
  24   12   42 1
  25   13   14 1
  26   13   25 am
  27   14   15 1
  28   14   43 1
  29   14   44 1
  30   15   16 1
  31   15   45 1
  32   15   46 1
  33   16   17 2
  34   16   20 1
  35   17   18 1
  36   17   47 1
  37   18   19 1
  38   18   48 1
  39   19   20 ar
  40   19   24 ar
  41   20   21 ar
  42   21   22 ar
  43   21   49 1
  44   22   23 ar
  45   22   50 1
  46   23   24 ar
  47   23   51 1
  48   24   52 1
  49   25   26 2
  50   25   27 1
  51   27   28 2
  52   27   32 1
  53   28   29 1
  54   29   30 2
  55   29   31 1
  56   31   53 1
  57   31   54 1
  58   31   55 1
  59   32   56 1

#	End of record

