#	Name: ASD10160395
#	Creating user name:	WinNT
#	Creation time:	15. 06. 2019 21:25

#	Modifying user name:	WinNT
#	Modification time:	15. 06. 2019 21:25

#	Program:	/corina/corina34_cracker 3.40 0067  02.08.2006

@<TRIPOS>MOLECULE
ASD10160395
  45   46    0    0    0
SMALL
NO_CHARGES


@<TRIPOS>ATOM
   1 C1            -0.0168     1.3894     0.0097 C.ar    
   2 C2             0.0021    -0.0041     0.0020 C.ar    
   3 C3             1.2151    -0.6615    -0.0131 C.ar    
   4 C4             2.3890     0.1064    -0.0201 C.ar    
   5 C5             2.2879     1.4979    -0.0117 C.ar    
   6 N6             1.1100     2.0852     0.0027 N.ar    
   7 O7            -1.2043     2.0412     0.0188 O.3     
   8 C8            -2.3966     4.0216    -0.6861 C.3     
   9 C9            -1.1603     3.4695     0.0264 C.3     
  10 C10           -1.1378     3.9714     1.4715 C.3     
  11 F11           -3.5496     3.5871    -0.0235 F       
  12 F12           -2.3535     5.4199    -0.6787 F       
  13 F13           -2.4172     3.5627    -2.0075 F       
  14 B14            3.7961    -0.5898    -0.0368 Du      
  15 C15            5.2124     0.1126    -0.0464 C.3     
  16 C16            6.2548    -1.0245    -0.0464 C.3     
  17 C17            5.5188    -2.2416    -0.6556 C.3     
  18 C18            4.0976    -2.1457    -0.0405 C.3     
  19 C19            5.4607    -2.1283    -2.1803 C.3     
  20 C20            6.1976    -3.5470    -0.2363 C.3     
  21 C21            7.4579    -0.6431    -0.9113 C.3     
  22 C22            6.7031    -1.3351     1.3831 C.3     
  23 Cl23          -1.4834    -0.9024     0.0119 Cl      
  24 H24            1.2596    -1.7405    -0.0189 H       
  25 H25            3.1851     2.0991    -0.0167 H       
  26 H26           -0.2619     3.8080    -0.4899 H       
  27 H27           -2.0361     3.6328     1.9877 H       
  28 H28           -0.2570     3.5781     1.9791 H       
  29 H29           -1.1042     5.0609     1.4773 H       
  30 H30            5.3225     0.7222    -0.9433 H       
  31 H31            5.3309     0.7299     0.8441 H       
  32 H32            4.0902    -2.5397     0.9758 H       
  33 H33            3.3753    -2.6743    -0.6624 H       
  34 H34            6.4738    -2.0918    -2.5808 H       
  35 H35            4.9393    -2.9937    -2.5893 H       
  36 H36            4.9276    -1.2187    -2.4570 H       
  37 H37            6.1814    -3.6323     0.8502 H       
  38 H38            5.6650    -4.3908    -0.6750 H       
  39 H39            7.2302    -3.5481    -0.5854 H       
  40 H40            7.9340     0.2466    -0.4993 H       
  41 H41            8.1729    -1.4658    -0.9222 H       
  42 H42            7.1239    -0.4385    -1.9285 H       
  43 H43            5.8374    -1.6178     1.9820 H       
  44 H44            7.4192    -2.1567     1.3689 H       
  45 H45            7.1721    -0.4518     1.8167 H       
@<TRIPOS>BOND
   1    1    2 ar
   2    1    6 ar
   3    1    7 1
   4    2    3 ar
   5    2   23 1
   6    3    4 ar
   7    3   24 1
   8    4    5 ar
   9    4   14 1
  10    5    6 ar
  11    5   25 1
  12    7    9 1
  13    8    9 1
  14    8   11 1
  15    8   12 1
  16    8   13 1
  17    9   10 1
  18    9   26 1
  19   10   27 1
  20   10   28 1
  21   10   29 1
  22   14   15 1
  23   14   18 1
  24   15   16 1
  25   15   30 1
  26   15   31 1
  27   16   17 1
  28   16   21 1
  29   16   22 1
  30   17   18 1
  31   17   19 1
  32   17   20 1
  33   18   32 1
  34   18   33 1
  35   19   34 1
  36   19   35 1
  37   19   36 1
  38   20   37 1
  39   20   38 1
  40   20   39 1
  41   21   40 1
  42   21   41 1
  43   21   42 1
  44   22   43 1
  45   22   44 1
  46   22   45 1

#	End of record

