#	Name: ASD10160281
#	Creating user name:	WinNT
#	Creation time:	15. 06. 2019 21:25

#	Modifying user name:	WinNT
#	Modification time:	15. 06. 2019 21:25

#	Program:	/corina/corina34_cracker 3.40 0067  02.08.2006

@<TRIPOS>MOLECULE
ASD10160281
  36   37    0    0    0
SMALL
NO_CHARGES


@<TRIPOS>ATOM
   1 C1            -0.1296     1.4674     0.0320 C.2     
   2 C2            -0.0802    -0.0061     0.0182 C.ar    
   3 C3             1.1444    -0.6661    -0.1379 C.ar    
   4 C4             1.1854    -2.0459    -0.1502 C.ar    
   5 C5             0.0145    -2.7784    -0.0082 C.ar    
   6 C6            -1.2059    -2.1255     0.1469 C.ar    
   7 C7            -1.2557    -0.7486     0.1666 C.ar    
   8 O8             0.8945     2.1113    -0.0923 O.2     
   9 N9            -1.3104     2.1008     0.1768 N.am    
  10 S10           -1.3659     3.7558     0.1923 S.o2    
  11 O11           -2.7409     4.0585     0.3845 O.2     
  12 O12           -0.3916     4.1300     1.1566 O.2     
  13 C13           -0.8337     4.2421    -1.4722 C.3     
  14 O14            0.0593    -4.1349    -0.0209 O.3     
  15 C15           -0.0429    -6.1566    -1.2931 C.ar    
  16 C16           -0.1521    -4.7695    -1.2046 C.ar    
  17 C17           -0.4801    -4.0461    -2.3429 C.ar    
  18 C18           -0.6871    -4.7375    -3.5286 C.ar    
  19 C19           -0.5617    -6.1119    -3.5407 C.ar    
  20 N20           -0.2489    -6.7748    -2.4426 N.ar    
  21 O21            0.2828    -6.8777    -0.1901 O.3     
  22 C22            0.3788    -8.2949    -0.3465 C.3     
  23 F23           -2.3420    -2.8435     0.2842 F       
  24 F24            2.2840     0.0460    -0.2766 F       
  25 H25            2.1295    -2.5562    -0.2709 H       
  26 H26           -2.2021    -0.2435     0.2921 H       
  27 H27           -2.1278     1.5872     0.2719 H       
  28 H28           -1.5156     3.8190    -2.2099 H       
  29 H29           -0.8403     5.3291    -1.5527 H       
  30 H30            0.1747     3.8705    -1.6544 H       
  31 H31           -0.5726    -2.9707    -2.3067 H       
  32 H32           -0.9441    -4.2053    -4.4325 H       
  33 H33           -0.7220    -6.6529    -4.4616 H       
  34 H34           -0.5805    -8.6893    -0.6816 H       
  35 H35            1.1455    -8.5277    -1.0855 H       
  36 H36            0.6447    -8.7486     0.6082 H       
@<TRIPOS>BOND
   1    1    2 1
   2    1    8 2
   3    1    9 am
   4    2    3 ar
   5    2    7 ar
   6    3    4 ar
   7    3   24 1
   8    4    5 ar
   9    4   25 1
  10    5    6 ar
  11    5   14 1
  12    6    7 ar
  13    6   23 1
  14    7   26 1
  15    9   10 am
  16    9   27 1
  17   10   11 2
  18   10   12 2
  19   10   13 1
  20   13   28 1
  21   13   29 1
  22   13   30 1
  23   14   16 1
  24   15   16 ar
  25   15   20 ar
  26   15   21 1
  27   16   17 ar
  28   17   18 ar
  29   17   31 1
  30   18   19 ar
  31   18   32 1
  32   19   20 ar
  33   19   33 1
  34   21   22 1
  35   22   34 1
  36   22   35 1
  37   22   36 1

#	End of record

