#	Name: ASD15090004
#	Creating user name:	WinNT
#	Creation time:	15. 06. 2019 21:31

#	Modifying user name:	WinNT
#	Modification time:	15. 06. 2019 21:31

#	Program:	/corina/corina34_cracker 3.40 0067  02.08.2006

@<TRIPOS>MOLECULE
ASD15090004
  48   51    0    0    0
SMALL
NO_CHARGES


@<TRIPOS>ATOM
   1 C1            -0.0552     1.2773     0.0149 C.2     
   2 N2             0.0862    -0.0072    -0.3923 N.pl3   
   3 S3             1.7471    -0.3504    -0.2669 S.3     
   4 C4             2.1716     1.2646     0.3320 C.2     
   5 N5             1.0030     1.9252     0.3833 N.2     
   6 C6            -0.9227    -0.8703    -0.8248 C.ar    
   7 C7            -0.6299    -1.8892    -1.7233 C.ar    
   8 C8            -1.6300    -2.7411    -2.1485 C.ar    
   9 C9            -2.9219    -2.5810    -1.6815 C.ar    
  10 C10           -3.2170    -1.5682    -0.7872 C.ar    
  11 C11           -2.2208    -0.7160    -0.3533 C.ar    
  12 C12           -1.3843     1.9248     0.0321 C.ar    
  13 C13           -1.7944     2.6536     1.1495 C.ar    
  14 C14           -3.0357     3.2557     1.1590 C.ar    
  15 C15           -3.8733     3.1382     0.0641 C.ar    
  16 C16           -3.4730     2.4166    -1.0465 C.ar    
  17 C17           -2.2320     1.8145    -1.0711 C.ar    
  18 N18            3.3672     1.7158     0.6548 N.2     
  19 C19            4.5371     0.8426     0.5329 C.3     
  20 C20            5.4792     1.3985    -0.5368 C.3     
  21 N21            6.6524     0.5229    -0.6590 N.3     
  22 C22            7.4613     0.8864    -1.8315 C.3     
  23 C23            8.7015    -0.0096    -1.8868 C.3     
  24 O24            8.2926    -1.3798    -1.9148 O.3     
  25 C25            7.5034    -1.7683    -0.7872 C.3     
  26 C26            6.2511    -0.8901    -0.7207 C.3     
  27 H27            0.3786    -2.0143    -2.0889 H       
  28 H28           -1.4032    -3.5331    -2.8467 H       
  29 H29           -3.7023    -3.2484    -2.0162 H       
  30 H30           -4.2270    -1.4461    -0.4246 H       
  31 H31           -2.4511     0.0719     0.3485 H       
  32 H32           -1.1416     2.7459     2.0049 H       
  33 H33           -3.3544     3.8197     2.0231 H       
  34 H34           -4.8440     3.6114     0.0765 H       
  35 H35           -4.1319     2.3281    -1.8977 H       
  36 H36           -1.9187     1.2556    -1.9405 H       
  37 H37            5.0587     0.7985     1.4890 H       
  38 H38            4.2149    -0.1590     0.2483 H       
  39 H39            4.9577     1.4426    -1.4929 H       
  40 H40            5.8015     2.4001    -0.2521 H       
  41 H41            6.8715     0.7479    -2.7377 H       
  42 H42            7.7689     1.9291    -1.7525 H       
  43 H43            9.2748     0.2175    -2.7856 H       
  44 H44            9.3185     0.1682    -1.0061 H       
  45 H45            7.2103    -2.8130    -0.8906 H       
  46 H46            8.0856    -1.6416     0.1256 H       
  47 H47            5.6752    -1.1441     0.1692 H       
  48 H48            5.6420    -1.0570    -1.6091 H       
@<TRIPOS>BOND
   1    1    2 1
   2    1    5 2
   3    1   12 1
   4    2    3 1
   5    2    6 1
   6    3    4 1
   7    4    5 1
   8    4   18 2
   9    6    7 ar
  10    6   11 ar
  11    7    8 ar
  12    7   27 1
  13    8    9 ar
  14    8   28 1
  15    9   10 ar
  16    9   29 1
  17   10   11 ar
  18   10   30 1
  19   11   31 1
  20   12   13 ar
  21   12   17 ar
  22   13   14 ar
  23   13   32 1
  24   14   15 ar
  25   14   33 1
  26   15   16 ar
  27   15   34 1
  28   16   17 ar
  29   16   35 1
  30   17   36 1
  31   18   19 1
  32   19   20 1
  33   19   37 1
  34   19   38 1
  35   20   21 1
  36   20   39 1
  37   20   40 1
  38   21   22 1
  39   21   26 1
  40   22   23 1
  41   22   41 1
  42   22   42 1
  43   23   24 1
  44   23   43 1
  45   23   44 1
  46   24   25 1
  47   25   26 1
  48   25   45 1
  49   25   46 1
  50   26   47 1
  51   26   48 1

#	End of record

