#	Name: ASD11000038
#	Creating user name:	WinNT
#	Creation time:	15. 06. 2019 21:28

#	Modifying user name:	WinNT
#	Modification time:	15. 06. 2019 21:28

#	Program:	/corina/corina34_cracker 3.40 0067  02.08.2006

@<TRIPOS>MOLECULE
ASD11000038
  55   58    0    0    0
SMALL
NO_CHARGES


@<TRIPOS>ATOM
   1 C1            -1.4257    -0.0244    -0.5431 C.ar    
   2 C2            -0.9183    -1.2892    -0.3165 C.ar    
   3 C3             0.4523    -1.5010    -0.3434 C.ar    
   4 C4             1.3115    -0.4423    -0.5979 C.ar    
   5 C5             0.8014     0.8214    -0.8241 C.ar    
   6 C6            -0.5668     1.0315    -0.7970 C.ar    
   7 F7            -1.0644     2.2678    -1.0184 F       
   8 O8             0.9529    -2.7451    -0.1201 O.3     
   9 C9             2.3739    -2.8898    -0.1630 C.3     
  10 C10            2.7464    -4.3485     0.1097 C.3     
  11 N11            2.2534    -4.7386     1.4348 N.am    
  12 C12            2.1245    -5.2307    -0.9440 C.ar    
  13 C13            1.4227    -6.3729    -0.6278 C.ar    
  14 C14            2.2803    -4.8578    -2.2723 C.ar    
  15 C15            0.8860    -7.1535    -1.6448 C.ar    
  16 C16            1.0418    -6.7888    -2.9692 C.ar    
  17 C17            1.7422    -5.6288    -3.2864 C.ar    
  18 C18            2.1996    -6.1782     1.7389 C.3     
  19 C19            1.1883    -6.8210     0.7911 C.3     
  20 C20            1.8656    -3.8164     2.3379 C.2     
  21 O21            2.0299    -2.6342     2.1082 O.2     
  22 O22            1.8976    -5.2567    -4.5852 O.3     
  23 C23            2.6285    -4.0540    -4.8325 C.3     
  24 O24            0.5129    -7.5594    -3.9570 O.3     
  25 C25           -0.1932    -8.7349    -3.5549 C.3     
  26 C26            1.2402    -4.2428     3.6080 C.ar    
  27 C27            1.3720    -3.4555     4.7527 C.ar    
  28 C28            0.5110    -5.4315     3.6655 C.ar    
  29 C29           -0.0707    -5.8239     4.8558 C.ar    
  30 C30            0.0695    -5.0394     5.9897 C.ar    
  31 C31            0.7865    -3.8580     5.9356 C.ar    
  32 F32           -0.7775    -6.9738     4.9142 F       
  33 H33           -2.4930     0.1399    -0.5266 H       
  34 H34           -1.5884    -2.1126    -0.1181 H       
  35 H35            2.3789    -0.6058    -0.6188 H       
  36 H36            1.4702     1.6460    -1.0223 H       
  37 H37            2.7392    -2.5996    -1.1481 H       
  38 H38            2.8272    -2.2513     0.5952 H       
  39 H39            3.8305    -4.4577     0.0795 H       
  40 H40            2.8258    -3.9580    -2.5155 H       
  41 H41            0.3425    -8.0536    -1.3982 H       
  42 H42            3.1826    -6.6242     1.5870 H       
  43 H43            1.8827    -6.3254     2.7713 H       
  44 H44            0.1810    -6.5364     1.0951 H       
  45 H45            1.2854    -7.9053     0.8452 H       
  46 H46            2.1268    -3.2174    -4.3461 H       
  47 H47            3.6380    -4.1538    -4.4336 H       
  48 H48            2.6783    -3.8733    -5.9062 H       
  49 H49           -1.0339    -8.4546    -2.9203 H       
  50 H50           -0.5626    -9.2567    -4.4378 H       
  51 H51            0.4783    -9.3902    -3.0000 H       
  52 H52            1.9317    -2.5327     4.7129 H       
  53 H53            0.4013    -6.0427     2.7819 H       
  54 H54           -0.3870    -5.3494     6.9180 H       
  55 H55            0.8921    -3.2510     6.8227 H       
@<TRIPOS>BOND
   1    1    2 ar
   2    1    6 ar
   3    1   33 1
   4    2    3 ar
   5    2   34 1
   6    3    4 ar
   7    3    8 1
   8    4    5 ar
   9    4   35 1
  10    5    6 ar
  11    5   36 1
  12    6    7 1
  13    8    9 1
  14    9   10 1
  15    9   37 1
  16    9   38 1
  17   10   11 1
  18   10   12 1
  19   10   39 1
  20   11   18 1
  21   11   20 am
  22   12   13 ar
  23   12   14 ar
  24   13   15 ar
  25   13   19 1
  26   14   17 ar
  27   14   40 1
  28   15   16 ar
  29   15   41 1
  30   16   17 ar
  31   16   24 1
  32   17   22 1
  33   18   19 1
  34   18   42 1
  35   18   43 1
  36   19   44 1
  37   19   45 1
  38   20   21 2
  39   20   26 1
  40   22   23 1
  41   23   46 1
  42   23   47 1
  43   23   48 1
  44   24   25 1
  45   25   49 1
  46   25   50 1
  47   25   51 1
  48   26   27 ar
  49   26   28 ar
  50   27   31 ar
  51   27   52 1
  52   28   29 ar
  53   28   53 1
  54   29   30 ar
  55   29   32 1
  56   30   31 ar
  57   30   54 1
  58   31   55 1

#	End of record

