#	Name: ASD10160484
#	Creating user name:	WinNT
#	Creation time:	15. 06. 2019 21:26

#	Modifying user name:	WinNT
#	Modification time:	15. 06. 2019 21:26

#	Program:	/corina/corina34_cracker 3.40 0067  02.08.2006

@<TRIPOS>MOLECULE
ASD10160484
  48   50    0    0    0
SMALL
NO_CHARGES


@<TRIPOS>ATOM
   1 C1             0.0204     1.4425     0.3414 C.2     
   2 C2             0.1175    -0.0242     0.2706 C.ar    
   3 C3             1.3369    -0.6617     0.5387 C.ar    
   4 C4             1.4200    -2.0366     0.4702 C.ar    
   5 C5             0.2949    -2.7846     0.1358 C.ar    
   6 C6            -0.9166    -2.1476    -0.1307 C.ar    
   7 C7            -1.0088    -0.7868    -0.0590 C.ar    
   8 O8             0.9984     2.1030     0.6327 O.2     
   9 O9            -1.1517     2.0540     0.0778 O.3     
  10 F10            2.4268     0.0682     0.8625 F       
  11 S11            0.4017    -4.5412     0.0486 S.3     
  12 C12            3.0018    -4.8045    -0.7743 C.ar    
  13 C13            2.1194    -4.8466     0.2958 C.ar    
  14 C14            2.6094    -5.1332     1.5690 C.ar    
  15 C15            3.9661    -5.3659     1.7155 C.ar    
  16 C16            4.7884    -5.3064     0.5966 C.ar    
  17 N17            4.2891    -5.0317    -0.5963 N.ar    
  18 O18            6.1207    -5.5327     0.7304 O.3     
  19 C19            6.9138    -5.4576    -0.4560 C.3     
  20 C20            8.3269    -4.9944    -0.0962 C.3     
  21 C21            6.9812    -6.8379    -1.1126 C.3     
  22 Cl22           4.6322    -5.7269     3.2775 Cl      
  23 Cl23          -2.3148    -3.0882    -0.5476 Cl      
  24 C24           -1.1758     3.4095     0.1735 C.ar    
  25 C25           -0.6319     4.1873    -0.8385 C.ar    
  26 C26           -0.6575     5.5649    -0.7388 C.ar    
  27 C27           -1.2242     6.1687     0.3685 C.ar    
  28 C28           -1.7668     5.3958     1.3784 C.ar    
  29 C29           -1.7492     4.0179     1.2807 C.ar    
  30 C30           -1.2499     7.6717     0.4751 C.3     
  31 H31            2.3573    -2.5324     0.6756 H       
  32 H32           -1.9505    -0.2985    -0.2617 H       
  33 H33            2.6299    -4.5876    -1.7648 H       
  34 H34            1.9465    -5.1724     2.4207 H       
  35 H35            6.4640    -4.7470    -1.1493 H       
  36 H36            8.7767    -5.7050     0.5972 H       
  37 H37            8.9319    -4.9371    -1.0011 H       
  38 H38            8.2789    -4.0111     0.3716 H       
  39 H39            7.4310    -7.5485    -0.4192 H       
  40 H40            5.9745    -7.1679    -1.3689 H       
  41 H41            7.5862    -6.7806    -2.0175 H       
  42 H42           -0.1886     3.7162    -1.7033 H       
  43 H43           -0.2343     6.1708    -1.5263 H       
  44 H44           -2.2085     5.8698     2.2425 H       
  45 H45           -2.1775     3.4148     2.0676 H       
  46 H46           -2.1667     8.0522     0.0249 H       
  47 H47           -1.2129     7.9622     1.5250 H       
  48 H48           -0.3886     8.0878    -0.0476 H       
@<TRIPOS>BOND
   1    1    2 1
   2    1    8 2
   3    1    9 1
   4    2    3 ar
   5    2    7 ar
   6    3    4 ar
   7    3   10 1
   8    4    5 ar
   9    4   31 1
  10    5    6 ar
  11    5   11 1
  12    6    7 ar
  13    6   23 1
  14    7   32 1
  15    9   24 1
  16   11   13 1
  17   12   13 ar
  18   12   17 ar
  19   12   33 1
  20   13   14 ar
  21   14   15 ar
  22   14   34 1
  23   15   16 ar
  24   15   22 1
  25   16   17 ar
  26   16   18 1
  27   18   19 1
  28   19   20 1
  29   19   21 1
  30   19   35 1
  31   20   36 1
  32   20   37 1
  33   20   38 1
  34   21   39 1
  35   21   40 1
  36   21   41 1
  37   24   25 ar
  38   24   29 ar
  39   25   26 ar
  40   25   42 1
  41   26   27 ar
  42   26   43 1
  43   27   28 ar
  44   27   30 1
  45   28   29 ar
  46   28   44 1
  47   29   45 1
  48   30   46 1
  49   30   47 1
  50   30   48 1

#	End of record

