#	Name: ASD10610179
#	Creating user name:	WinNT
#	Creation time:	15. 06. 2019 21:28

#	Modifying user name:	WinNT
#	Modification time:	15. 06. 2019 21:28

#	Program:	/corina/corina34_cracker 3.40 0067  02.08.2006

@<TRIPOS>MOLECULE
ASD10610179
  75   80    0    0    0
SMALL
NO_CHARGES


@<TRIPOS>ATOM
   1 C1             0.1920     1.5719     0.1280 C.2     
   2 N2             0.4758     0.2723     0.3446 N.am    
   3 O3             1.0918     2.3684    -0.0523 O.2     
   4 O4            -1.0887     1.9867     0.1058 O.3     
   5 O5             1.7944    -1.8269    -1.0279 O.3     
   6 C6             2.0239    -1.7198     0.3830 C.3     
   7 C7             1.8593    -0.2006     0.2523 C.3     
   8 C8             2.3346    -0.5070    -1.1733 C.3     
   9 C9             2.8279     0.6078     1.0765 C.2     
  10 N10            2.4381     1.1269     2.2576 N.am    
  11 O11            3.9582     0.7913     0.6769 O.2     
  12 C12            3.4082     1.8195     3.1093 C.3     
  13 C13            4.1879     0.7929     3.9334 C.3     
  14 C14            2.6819     2.7603     4.0357 C.ar    
  15 C15            3.1379     4.0603     4.1831 C.ar    
  16 C16            2.4653     4.9211     5.0364 C.ar    
  17 C17            1.3455     4.4369     5.7181 C.ar    
  18 C18            0.9512     3.1161     5.5148 C.ar    
  19 N19            1.6185     2.3354     4.6898 N.ar    
  20 F20            4.2259     4.4839     3.5033 F       
  21 C21            0.5890     5.3151     6.6438 C.ar    
  22 C22            0.3966     4.9323     7.9743 C.ar    
  23 C23           -0.3117     5.7587     8.8330 C.ar    
  24 C24           -0.8256     6.9578     8.3736 C.ar    
  25 C25           -0.6368     7.3390     7.0561 C.ar    
  26 C26            0.0724     6.5272     6.1922 C.ar    
  27 O27            0.9016     3.7537     8.4244 O.3     
  28 C28            2.1870     3.7945     9.0475 C.3     
  29 C29            2.5318     2.4086     9.5964 C.3     
  30 F30            1.6322     2.0728    10.6138 F       
  31 F31            2.4455     1.4648     8.5674 F       
  32 Cl32          -1.2867     8.8459     6.4900 Cl      
  33 Cl33          -0.5541     5.2879    10.4863 Cl      
  34 C34           -1.3171     3.4139    -0.0323 C.3     
  35 C35           -2.8148     3.7043     0.0837 C.3     
  36 C36           -3.0559     5.1940     0.0945 C.ar    
  37 C37           -2.6446     6.1923     0.9523 C.ar    
  38 C38           -3.0199     7.5034     0.7197 C.ar    
  39 C39           -3.8086     7.8158    -0.3731 C.ar    
  40 C40           -4.2250     6.8236    -1.2360 C.ar    
  41 C41           -3.8497     5.4983    -1.0077 C.ar    
  42 C42           -4.1491     4.2544    -1.7595 C.ar    
  43 C43           -4.8958     4.0381    -2.9192 C.ar    
  44 C44           -5.0261     2.7623    -3.4267 C.ar    
  45 C45           -4.4189     1.6940    -2.7912 C.ar    
  46 C46           -3.6779     1.9008    -1.6414 C.ar    
  47 C47           -3.5424     3.1730    -1.1269 C.ar    
  48 H48           -0.2360    -0.3499     0.5617 H       
  49 H49            1.2458    -2.1892     0.9849 H       
  50 H50            3.0275    -2.0221     0.6824 H       
  51 H51            3.4192    -0.4927    -1.2804 H       
  52 H52            1.8286     0.0861    -1.9351 H       
  53 H53            1.5152     1.0419     2.5438 H       
  54 H54            4.1001     2.3858     2.4857 H       
  55 H55            3.4961     0.2266     4.5570 H       
  56 H56            4.7132     0.1124     3.2633 H       
  57 H57            4.9097     1.3082     4.5670 H       
  58 H58            2.7983     5.9396     5.1712 H       
  59 H59            0.0875     2.7297     6.0356 H       
  60 H60           -1.3768     7.5991     9.0453 H       
  61 H61            0.2221     6.8299     5.1664 H       
  62 H62            2.9368     4.0919     8.3145 H       
  63 H63            2.1718     4.5155     9.8648 H       
  64 H64            3.5457     2.4182     9.9965 H       
  65 H65           -0.7819     3.9454     0.7546 H       
  66 H66           -0.9567     3.7470    -1.0056 H       
  67 H67           -3.2150     3.2528     0.9915 H       
  68 H68           -2.0289     5.9505     1.8060 H       
  69 H69           -2.6970     8.2842     1.3924 H       
  70 H70           -4.0998     8.8404    -0.5511 H       
  71 H71           -4.8409     7.0717    -2.0878 H       
  72 H72           -5.3715     4.8694    -3.4185 H       
  73 H73           -5.6040     2.5967    -4.3239 H       
  74 H74           -4.5238     0.6970    -3.1931 H       
  75 H75           -3.2050     1.0654    -1.1466 H       
@<TRIPOS>BOND
   1    1    2 am
   2    1    3 2
   3    1    4 1
   4    2    7 1
   5    2   48 1
   6    4   34 1
   7    5    6 1
   8    5    8 1
   9    6    7 1
  10    6   49 1
  11    6   50 1
  12    7    8 1
  13    7    9 1
  14    8   51 1
  15    8   52 1
  16    9   10 am
  17    9   11 2
  18   10   12 1
  19   10   53 1
  20   12   13 1
  21   12   14 1
  22   12   54 1
  23   13   55 1
  24   13   56 1
  25   13   57 1
  26   14   15 ar
  27   14   19 ar
  28   15   16 ar
  29   15   20 1
  30   16   17 ar
  31   16   58 1
  32   17   18 ar
  33   17   21 1
  34   18   19 ar
  35   18   59 1
  36   21   22 ar
  37   21   26 ar
  38   22   23 ar
  39   22   27 1
  40   23   24 ar
  41   23   33 1
  42   24   25 ar
  43   24   60 1
  44   25   26 ar
  45   25   32 1
  46   26   61 1
  47   27   28 1
  48   28   29 1
  49   28   62 1
  50   28   63 1
  51   29   30 1
  52   29   31 1
  53   29   64 1
  54   34   35 1
  55   34   65 1
  56   34   66 1
  57   35   36 1
  58   35   47 1
  59   35   67 1
  60   36   37 ar
  61   36   41 ar
  62   37   38 ar
  63   37   68 1
  64   38   39 ar
  65   38   69 1
  66   39   40 ar
  67   39   70 1
  68   40   41 ar
  69   40   71 1
  70   41   42 1
  71   42   43 ar
  72   42   47 ar
  73   43   44 ar
  74   43   72 1
  75   44   45 ar
  76   44   73 1
  77   45   46 ar
  78   45   74 1
  79   46   47 ar
  80   46   75 1

#	End of record

