#	Name: ASD14720009
#	Creating user name:	WinNT
#	Creation time:	15. 06. 2019 21:31

#	Modifying user name:	WinNT
#	Modification time:	15. 06. 2019 21:31

#	Program:	/corina/corina34_cracker 3.40 0067  02.08.2006

@<TRIPOS>MOLECULE
ASD14720009
  51   54    0    0    0
SMALL
NO_CHARGES


@<TRIPOS>ATOM
   1 C1             0.7634     2.5213     0.2013 C.3     
   2 C2             0.6735     1.0585     0.6408 C.3     
   3 C3             1.9338     0.6824     1.4225 C.3     
   4 C4            -0.5553     0.8686     1.5325 C.3     
   5 N5             0.5570     0.1999    -0.5405 N.pl3   
   6 N6            -0.4250    -0.5885    -0.8210 N.2     
   7 N7            -0.1767    -1.1798    -1.9373 N.2     
   8 N8             0.9628    -0.7819    -2.3881 N.2     
   9 C9             1.4517     0.0897    -1.5400 C.2     
  10 C10            2.7627     0.8233    -1.6591 C.3     
  11 H11            2.8494     1.5464    -0.8481 H       
  12 N12            2.8158     1.5250    -2.9486 N.3     
  13 C13            4.1137     2.1938    -3.1320 C.3     
  14 C14            4.2550     2.5845    -4.6034 C.3     
  15 C15            3.0238     3.3246    -5.0595 C.ar    
  16 C16            3.0934     4.0666    -6.2285 C.ar    
  17 C17            1.9874     4.7566    -6.6836 C.ar    
  18 C18            0.8044     4.7066    -5.9705 C.ar    
  19 C19            0.7345     3.9690    -4.8056 C.ar    
  20 C20            1.8451     3.2772    -4.3458 C.ar    
  21 C21            1.7232     2.4961    -3.0637 C.3     
  22 C22            3.8994    -0.1627    -1.5766 C.ar    
  23 C23            4.6834    -0.2202    -0.4395 C.ar    
  24 C24            5.7260    -1.1246    -0.3638 C.ar    
  25 C25            5.9844    -1.9719    -1.4251 C.ar    
  26 C26            5.1999    -1.9150    -2.5618 C.ar    
  27 C27            4.1546    -1.0135    -2.6358 C.ar    
  28 H28            1.6953     2.6810    -0.3412 H       
  29 H29           -0.0798     2.7582    -0.4474 H       
  30 H30            0.7390     3.1667     1.0793 H       
  31 H31            2.0424     1.3479     2.2789 H       
  32 H32            1.8518    -0.3472     1.7705 H       
  33 H33            2.8053     0.7787     0.7748 H       
  34 H34           -1.4532     1.1365     0.9756 H       
  35 H35           -0.6194    -0.1735     1.8456 H       
  36 H36           -0.4686     1.5074     2.4114 H       
  37 H37            4.1560     3.0880    -2.5100 H       
  38 H38            4.9187     1.5132    -2.8549 H       
  39 H39            5.1283     3.2252    -4.7254 H       
  40 H40            4.3807     1.6851    -5.2062 H       
  41 H41            4.0176     4.1053    -6.7859 H       
  42 H42            2.0464     5.3337    -7.5946 H       
  43 H43           -0.0634     5.2438    -6.3237 H       
  44 H44           -0.1904     3.9305    -4.2492 H       
  45 H45            0.7695     1.9684    -3.0529 H       
  46 H46            1.7610     3.1829    -2.2181 H       
  47 H47            4.4815     0.4418     0.3896 H       
  48 H48            6.3389    -1.1690     0.5243 H       
  49 H49            6.7995    -2.6780    -1.3662 H       
  50 H50            5.4020    -2.5767    -3.3911 H       
  51 H51            3.5393    -0.9717    -3.5224 H       
@<TRIPOS>BOND
   1    1    2 1
   2    1   28 1
   3    1   29 1
   4    1   30 1
   5    2    3 1
   6    2    4 1
   7    2    5 1
   8    3   31 1
   9    3   32 1
  10    3   33 1
  11    4   34 1
  12    4   35 1
  13    4   36 1
  14    5    9 1
  15    5    6 1
  16    6    7 2
  17    7    8 1
  18    8    9 2
  19    9   10 1
  20   10   11 1
  21   10   12 1
  22   10   22 1
  23   12   21 1
  24   12   13 1
  25   13   14 1
  26   13   37 1
  27   13   38 1
  28   14   15 1
  29   14   39 1
  30   14   40 1
  31   15   20 ar
  32   15   16 ar
  33   16   17 ar
  34   16   41 1
  35   17   18 ar
  36   17   42 1
  37   18   19 ar
  38   18   43 1
  39   19   20 ar
  40   19   44 1
  41   20   21 1
  42   21   45 1
  43   21   46 1
  44   22   27 ar
  45   22   23 ar
  46   23   24 ar
  47   23   47 1
  48   24   25 ar
  49   24   48 1
  50   25   26 ar
  51   25   49 1
  52   26   27 ar
  53   26   50 1
  54   27   51 1

#	End of record

