#	Name: ASD11290001
#	Creating user name:	WinNT
#	Creation time:	15. 06. 2019 21:29

#	Modifying user name:	WinNT
#	Modification time:	15. 06. 2019 21:29

#	Program:	/corina/corina34_cracker 3.40 0067  02.08.2006

@<TRIPOS>MOLECULE
ASD11290001
  38   40    0    0    0
SMALL
NO_CHARGES


@<TRIPOS>ATOM
   1 Cl1            0.0021    -0.0041     0.0020 Cl      
   2 C2            -0.0215     1.7317     0.0116 C.ar    
   3 C3             1.1701     2.4378     0.0040 C.ar    
   4 C4             1.1578     3.8167     0.0115 C.ar    
   5 C5            -0.0590     4.5010     0.0263 C.ar    
   6 C6            -1.2569     3.7838     0.0335 C.ar    
   7 C7            -1.2318     2.4051     0.0210 C.ar    
   8 C8            -0.0791     5.9787     0.0349 C.2     
   9 O9             0.9653     6.6008     0.0291 O.2     
  10 N10           -1.2552     6.6366     0.0493 N.am    
  11 C11           -1.2751     8.1015     0.0578 C.3     
  12 C12           -1.1708     8.6135    -1.3557 C.2     
  13 O13           -1.2710     7.8404    -2.2931 O.co2   
  14 O14           -0.9862     9.8009    -1.5619 O.co2   
  15 C15           -2.5837     8.5901     0.6820 C.3     
  16 C16           -2.6317     8.1823     2.1320 C.2     
  17 C17           -3.2173     7.0834     2.6334 C.2     
  18 N18           -3.0557     7.0473     3.9917 N.pl3   
  19 C19           -2.3443     8.1502     4.4079 C.ar    
  20 C20           -2.0427     8.9066     3.2608 C.ar    
  21 C21           -1.3185    10.0945     3.3802 C.ar    
  22 C22           -0.9059    10.5164     4.6124 C.ar    
  23 C23           -1.2005     9.7732     5.7475 C.ar    
  24 C24           -1.9108     8.5968     5.6522 C.ar    
  25 H25            2.1108     1.9073    -0.0075 H       
  26 H26            2.0876     4.3662     0.0063 H       
  27 H27           -2.2012     4.3078     0.0453 H       
  28 H28           -2.1578     1.8492     0.0261 H       
  29 H29           -2.0886     6.1402     0.0539 H       
  30 H30           -0.4330     8.4729     0.6418 H       
  31 H31           -2.6382     9.6763     0.6080 H       
  32 H32           -3.4268     8.1471     0.1519 H       
  33 H33           -3.7391     6.3384     2.0511 H       
  34 H34           -3.3926     6.3490     4.5746 H       
  35 H35           -1.0850    10.6774     2.5015 H       
  36 H36           -0.3457    11.4352     4.7042 H       
  37 H37           -0.8672    10.1195     6.7146 H       
  38 H38           -2.1351     8.0258     6.5410 H       
@<TRIPOS>BOND
   1    1    2 1
   2    2    3 ar
   3    2    7 ar
   4    3    4 ar
   5    3   25 1
   6    4    5 ar
   7    4   26 1
   8    5    6 ar
   9    5    8 1
  10    6    7 ar
  11    6   27 1
  12    7   28 1
  13    8    9 2
  14    8   10 am
  15   10   11 1
  16   10   29 1
  17   11   12 1
  18   11   15 1
  19   11   30 1
  20   12   13 ar
  21   12   14 ar
  22   15   16 1
  23   15   31 1
  24   15   32 1
  25   16   17 2
  26   16   20 1
  27   17   18 1
  28   17   33 1
  29   18   19 1
  30   18   34 1
  31   19   20 ar
  32   19   24 ar
  33   20   21 ar
  34   21   22 ar
  35   21   35 1
  36   22   23 ar
  37   22   36 1
  38   23   24 ar
  39   23   37 1
  40   24   38 1

#	End of record

