#	Name: ASD11000211
#	Creating user name:	WinNT
#	Creation time:	15. 06. 2019 21:28

#	Modifying user name:	WinNT
#	Modification time:	15. 06. 2019 21:28

#	Program:	/corina/corina34_cracker 3.40 0067  02.08.2006

@<TRIPOS>MOLECULE
ASD11000211
  45   47    0    0    0
SMALL
NO_CHARGES


@<TRIPOS>ATOM
   1 N1            -0.0172     1.3215    -0.0112 N.ar    
   2 C2             0.0016    -0.0034    -0.0060 C.ar    
   3 N3             1.1403    -0.6810    -0.0155 N.ar    
   4 C4             2.3025    -0.0498    -0.0305 C.ar    
   5 C5             2.3192     1.3363    -0.0364 C.ar    
   6 C6             1.1098     2.0136    -0.0261 C.ar    
   7 N7            -1.1973    -0.6965     0.0102 N.pl3   
   8 C8            -1.2008    -2.0923    -0.1029 C.ar    
   9 C9            -2.1492    -2.8423     0.5800 C.ar    
  10 C10           -0.2595    -2.7268    -0.9027 C.ar    
  11 C11           -0.2639    -4.1032    -1.0141 C.ar    
  12 C12           -1.2086    -4.8520    -0.3278 C.ar    
  13 C13           -2.1523    -4.2186     0.4675 C.ar    
  14 O14           -1.2126    -6.2073    -0.4384 O.3     
  15 C15            3.6238     2.0904    -0.0530 C.3     
  16 C16            4.0504     2.3397    -1.5010 C.3     
  17 C17            5.3749     3.1054    -1.5179 C.3     
  18 C18           -2.2134    -6.9153     0.2959 C.3     
  19 F19           -2.0650    -6.6500     1.6615 F       
  20 F20           -3.4815    -6.5001    -0.1247 F       
  21 N21            5.7833     3.3441    -2.9044 N.pl3   
  22 C22            6.9587     4.0240    -3.1723 C.ar    
  23 N23            7.3132     4.2313    -4.4320 N.ar    
  24 C24            8.4303     4.8775    -4.7225 C.ar    
  25 C25            9.2322     5.3391    -3.6905 C.ar    
  26 C26            8.8315     5.1050    -2.3845 C.ar    
  27 N27            7.7000     4.4568    -2.1630 N.ar    
  28 H28            3.2273    -0.6075    -0.0378 H       
  29 H29            1.0881     3.0934    -0.0307 H       
  30 H30           -2.0347    -0.2151     0.0999 H       
  31 H31           -2.8840    -2.3493     1.1993 H       
  32 H32            0.4756    -2.1439    -1.4377 H       
  33 H33            0.4681    -4.5968    -1.6361 H       
  34 H34           -2.8875    -4.8023     1.0016 H       
  35 H35            3.4983     3.0449     0.4583 H       
  36 H36            4.3891     1.5038     0.4553 H       
  37 H37            4.1759     1.3853    -2.0123 H       
  38 H38            3.2851     2.9263    -2.0094 H       
  39 H39            5.2494     4.0598    -1.0067 H       
  40 H40            6.1402     2.5188    -1.0096 H       
  41 H41           -2.1045    -7.9854     0.1197 H       
  42 H42            5.2300     3.0256    -3.6347 H       
  43 H43            8.7141     5.0432    -5.7512 H       
  44 H44           10.1496     5.8694    -3.8996 H       
  45 H45            9.4339     5.4512    -1.5576 H       
@<TRIPOS>BOND
   1    1    2 ar
   2    1    6 ar
   3    2    3 ar
   4    2    7 1
   5    3    4 ar
   6    4    5 ar
   7    4   28 1
   8    5    6 ar
   9    5   15 1
  10    6   29 1
  11    7    8 1
  12    7   30 1
  13    8    9 ar
  14    8   10 ar
  15    9   13 ar
  16    9   31 1
  17   10   11 ar
  18   10   32 1
  19   11   12 ar
  20   11   33 1
  21   12   13 ar
  22   12   14 1
  23   13   34 1
  24   14   18 1
  25   15   16 1
  26   15   35 1
  27   15   36 1
  28   16   17 1
  29   16   37 1
  30   16   38 1
  31   17   21 1
  32   17   39 1
  33   17   40 1
  34   18   19 1
  35   18   20 1
  36   18   41 1
  37   21   22 1
  38   21   42 1
  39   22   23 ar
  40   22   27 ar
  41   23   24 ar
  42   24   25 ar
  43   24   43 1
  44   25   26 ar
  45   25   44 1
  46   26   27 ar
  47   26   45 1

#	End of record

