#	Name: ASD11740004
#	Creating user name:	WinNT
#	Creation time:	15. 06. 2019 21:29

#	Modifying user name:	WinNT
#	Modification time:	15. 06. 2019 21:29

#	Program:	/corina/corina34_cracker 3.40 0067  02.08.2006

@<TRIPOS>MOLECULE
ASD11740004
  46   47    0    0    0
SMALL
NO_CHARGES


@<TRIPOS>ATOM
   1 C1             0.1390     0.8369     0.3724 C.ar    
   2 C2             0.2788    -0.4986     0.6888 C.ar    
   3 C3             1.5390    -1.0573     0.8348 C.ar    
   4 C4             2.6668    -0.2848     0.6651 C.ar    
   5 C5             2.5423     1.0696     0.3439 C.ar    
   6 C6             1.2647     1.6324     0.1972 C.ar    
   7 N7             1.1267     2.9768    -0.1223 N.am    
   8 S8             1.1836     3.4619    -1.7046 S.o2    
   9 O9             1.6284     4.8101    -1.6420 O.2     
  10 O10            1.9616     2.4630    -2.3496 O.2     
  11 C11           -0.5404     3.3858    -2.2637 C.3     
  12 C12            3.7448     1.9021     0.1614 C.2     
  13 N13            4.9694     1.3576     0.3042 N.am    
  14 O14            3.6320     3.0802    -0.1180 O.2     
  15 C15            6.1038     2.1128     0.0227 C.ar    
  16 C16            7.1746     1.5413    -0.6819 C.ar    
  17 C17            8.3080     2.3109    -0.9579 C.ar    
  18 C18            8.3674     3.6218    -0.5383 C.ar    
  19 C19            7.3081     4.1829     0.1572 C.ar    
  20 C20            6.1797     3.4375     0.4325 C.ar    
  21 C21            7.1046     0.1383    -1.1274 C.2     
  22 O22            8.1660    -0.4304    -1.7322 O.3     
  23 O23            6.0897    -0.5057    -0.9493 O.2     
  24 C24            8.0259    -1.8156    -2.1444 C.3     
  25 C25            9.3228    -2.2841    -2.8073 C.3     
  26 C26            0.9306     3.9658     0.9406 C.3     
  27 H27           -0.8464     1.2635     0.2563 H       
  28 H28           -0.5992    -1.1128     0.8239 H       
  29 H29            1.6371    -2.1037     1.0834 H       
  30 H30            3.6461    -0.7253     0.7805 H       
  31 H31           -1.1496     4.0539    -1.6549 H       
  32 H32           -0.5976     3.6926    -3.3080 H       
  33 H33           -0.9100     2.3652    -2.1640 H       
  34 H34            5.0600     0.4392     0.6032 H       
  35 H35            9.1365     1.8785    -1.4993 H       
  36 H36            9.2441     4.2151    -0.7521 H       
  37 H37            7.3642     5.2114     0.4820 H       
  38 H38            5.3586     3.8822     0.9750 H       
  39 H39            7.8194    -2.4352    -1.2718 H       
  40 H40            7.2032    -1.9020    -2.8543 H       
  41 H41            9.2176    -3.3240    -3.1167 H       
  42 H42            9.5293    -1.6645    -3.6799 H       
  43 H43           10.1454    -2.1977    -2.0974 H       
  44 H44            1.8997     4.3332     1.2782 H       
  45 H45            0.3398     4.7980     0.5580 H       
  46 H46            0.4066     3.5020     1.7763 H       
@<TRIPOS>BOND
   1    1    2 ar
   2    1    6 ar
   3    1   27 1
   4    2    3 ar
   5    2   28 1
   6    3    4 ar
   7    3   29 1
   8    4    5 ar
   9    4   30 1
  10    5    6 ar
  11    5   12 1
  12    6    7 1
  13    7    8 am
  14    7   26 1
  15    8    9 2
  16    8   10 2
  17    8   11 1
  18   11   31 1
  19   11   32 1
  20   11   33 1
  21   12   13 am
  22   12   14 2
  23   13   15 1
  24   13   34 1
  25   15   16 ar
  26   15   20 ar
  27   16   17 ar
  28   16   21 1
  29   17   18 ar
  30   17   35 1
  31   18   19 ar
  32   18   36 1
  33   19   20 ar
  34   19   37 1
  35   20   38 1
  36   21   22 1
  37   21   23 2
  38   22   24 1
  39   24   25 1
  40   24   39 1
  41   24   40 1
  42   25   41 1
  43   25   42 1
  44   25   43 1
  45   26   44 1
  46   26   45 1
  47   26   46 1

#	End of record

