#	Name: ASD13010029
#	Creating user name:	WinNT
#	Creation time:	15. 06. 2019 21:30

#	Modifying user name:	WinNT
#	Modification time:	15. 06. 2019 21:30

#	Program:	/corina/corina34_cracker 3.40 0067  02.08.2006

@<TRIPOS>MOLECULE
ASD13010029
  54   58    0    0    0
SMALL
NO_CHARGES


@<TRIPOS>ATOM
   1 C1            -0.0343     1.3510    -0.1140 C.ar    
   2 C2            -0.0078    -0.0114    -0.1091 C.ar    
   3 C3             1.2100    -0.7024    -0.0249 C.ar    
   4 C4             2.4076     0.0008     0.0542 C.ar    
   5 C5             1.1543     2.0756    -0.0356 C.ar    
   6 N6             1.4429     3.4164    -0.0192 N.pl3   
   7 C7             2.3851     1.3935     0.0490 C.ar    
   8 C8             3.4234     2.4265     0.1160 C.2     
   9 N9             2.8272     3.5896     0.0737 N.2     
  10 C10            0.5040     4.4443    -0.0856 C.ar    
  11 S11            5.1597     2.1508     0.2344 S.3     
  12 C12            5.8187     3.7845     0.2739 C.ar    
  13 C13            6.1552     4.4290    -0.9111 C.ar    
  14 C14            5.9981     4.4344     1.4896 C.ar    
  15 C15            6.5148     5.7159     1.5164 C.ar    
  16 C16            6.8532     6.3518     0.3358 C.ar    
  17 C17            6.6714     5.7105    -0.8760 C.ar    
  18 C18           -1.3628     6.4883    -0.2176 C.ar    
  19 C19           -1.5760     5.2982    -0.9201 C.ar    
  20 C20           -0.6468     4.2852    -0.8524 C.ar    
  21 C21            0.7166     5.6255     0.6195 C.ar    
  22 C22           -0.2084     6.6426     0.5562 C.ar    
  23 C23           -2.3561     7.5758    -0.2878 C.2     
  24 O24           -3.3612     7.4384    -0.9567 O.2     
  25 O25           -2.1492     8.7221     0.3898 O.3     
  26 C26            1.2207    -2.1786    -0.0198 C.2     
  27 O27            2.0853    -2.7824    -0.6249 O.2     
  28 Cl28           5.9279     3.6249    -2.4327 Cl      
  29 Cl29           5.5731     3.6376     2.9722 Cl      
  30 N30            0.2720    -2.8571     0.6555 N.am    
  31 C31            0.1877    -4.3240     0.5752 C.3     
  32 C32            0.1235    -4.8834     2.0010 C.3     
  33 O33           -0.9238    -4.2256     2.7180 O.3     
  34 C34           -0.7303    -2.8180     2.8764 C.3     
  35 C35           -0.7063    -2.1533     1.4999 C.3     
  36 H36           -0.9783     1.8711    -0.1833 H       
  37 H37           -0.9334    -0.5645    -0.1702 H       
  38 H38            3.3468    -0.5285     0.1194 H       
  39 H39            6.6541     6.2217     2.4604 H       
  40 H40            7.2568     7.3532     0.3599 H       
  41 H41            6.9334     6.2117    -1.7961 H       
  42 H42           -2.4665     5.1758    -1.5187 H       
  43 H43           -0.8106     3.3659    -1.3950 H       
  44 H44            1.6082     5.7438     1.2173 H       
  45 H45           -0.0406     7.5606     1.0998 H       
  46 H46           -2.8283     9.4061     0.3131 H       
  47 H47           -0.7101    -4.6107     0.0276 H       
  48 H48            1.0689    -4.7150     0.0667 H       
  49 H49           -0.0777    -5.9540     1.9633 H       
  50 H50            1.0746    -4.7084     2.5039 H       
  51 H51           -1.5457    -2.4027     3.4685 H       
  52 H52            0.2177    -2.6355     3.3824 H       
  53 H53           -0.4168    -1.1076     1.6034 H       
  54 H54           -1.6957    -2.2177     1.0470 H       
@<TRIPOS>BOND
   1    1    2 ar
   2    1    5 ar
   3    1   36 1
   4    2    3 ar
   5    2   37 1
   6    3    4 ar
   7    3   26 1
   8    4    7 ar
   9    4   38 1
  10    5    7 ar
  11    5    6 1
  12    6    9 1
  13    6   10 1
  14    7    8 1
  15    8    9 2
  16    8   11 1
  17   10   21 ar
  18   10   20 ar
  19   11   12 1
  20   12   14 ar
  21   12   13 ar
  22   13   17 ar
  23   13   28 1
  24   14   15 ar
  25   14   29 1
  26   15   16 ar
  27   15   39 1
  28   16   17 ar
  29   16   40 1
  30   17   41 1
  31   18   19 ar
  32   18   22 ar
  33   18   23 1
  34   19   20 ar
  35   19   42 1
  36   20   43 1
  37   21   22 ar
  38   21   44 1
  39   22   45 1
  40   23   24 2
  41   23   25 1
  42   25   46 1
  43   26   27 2
  44   26   30 am
  45   30   31 1
  46   30   35 1
  47   31   32 1
  48   31   47 1
  49   31   48 1
  50   32   33 1
  51   32   49 1
  52   32   50 1
  53   33   34 1
  54   34   35 1
  55   34   51 1
  56   34   52 1
  57   35   53 1
  58   35   54 1

#	End of record

