#	Name: ASD10610050
#	Creating user name:	WinNT
#	Creation time:	15. 06. 2019 21:27

#	Modifying user name:	WinNT
#	Modification time:	15. 06. 2019 21:27

#	Program:	/corina/corina34_cracker 3.40 0067  02.08.2006

@<TRIPOS>MOLECULE
ASD10610050
  50   54    0    0    0
SMALL
NO_CHARGES


@<TRIPOS>ATOM
   1 C1            -0.0187     1.5258     0.0104 C.3     
   2 C2             0.0021    -0.0041     0.0020 C.3     
   3 C3             1.3165     0.7789    -0.0063 C.3     
   4 C4            -0.4420     2.2229    -1.2568 C.2     
   5 O5            -0.3149     1.6661    -2.3267 O.2     
   6 N6            -0.9617     3.4652    -1.2012 N.am    
   7 C7            -1.3732     4.1429    -2.4331 C.3     
   8 C8            -2.4561     5.1991    -2.1271 C.3     
   9 C9            -1.6199     6.4787    -1.9134 C.3     
  10 C10           -0.3554     6.2646    -2.7179 C.ar    
  11 C11            0.5926     7.1733    -3.1515 C.ar    
  12 C12            1.6913     6.7402    -3.8896 C.ar    
  13 C13            1.8314     5.3861    -4.1891 C.ar    
  14 C14            0.8806     4.4852    -3.7521 C.ar    
  15 C15           -0.2134     4.9217    -3.0168 C.ar    
  16 F16            1.0152     3.1725    -4.0417 F       
  17 C17            2.7069     7.7148    -4.3549 C.ar    
  18 C18            4.0714     7.4758    -4.1254 C.ar    
  19 C19            5.0171     8.3998    -4.5684 C.ar    
  20 C20            4.6080     9.5435    -5.2296 C.ar    
  21 C21            3.2619     9.7774    -5.4550 C.ar    
  22 C22            2.3131     8.8681    -5.0264 C.ar    
  23 O23            4.3914     4.4387    -2.4238 O.3     
  24 N24            3.7259     5.3053    -2.9503 N.2     
  25 C25            4.5040     6.2487    -3.4160 C.2     
  26 N26            5.7773     5.8936    -3.1287 N.2     
  27 C27            5.6897     4.7473    -2.5016 C.2     
  28 C28            6.8374     3.9294    -1.9676 C.3     
  29 F29            6.3320     8.1781    -4.3515 F       
  30 Cl30           2.7636    11.2176    -6.2863 Cl      
  31 N31           -0.4076     2.1920     1.2606 N.3     
  32 H32           -0.2728    -0.5162     0.9241 H       
  33 H33           -0.2904    -0.5063    -0.9201 H       
  34 H34            1.8888     0.7918    -0.9339 H       
  35 H35            1.9064     0.7818     0.9103 H       
  36 H36           -1.0634     3.9105    -0.3455 H       
  37 H37           -1.7460     3.4177    -3.1565 H       
  38 H38           -3.1335     5.3158    -2.9730 H       
  39 H39           -3.0055     4.9398    -1.2222 H       
  40 H40           -2.1606     7.3499    -2.2833 H       
  41 H41           -1.3800     6.6017    -0.8573 H       
  42 H42            0.4804     8.2217    -2.9174 H       
  43 H43            2.6806     5.0428    -4.7613 H       
  44 H44            5.3421    10.2580    -5.5715 H       
  45 H45            1.2652     9.0547    -5.2096 H       
  46 H46            6.4512     3.0256    -1.4963 H       
  47 H47            7.5014     3.6562    -2.7878 H       
  48 H48            7.3898     4.5149    -1.2326 H       
  49 H49           -0.3879     3.1954     1.1569 H       
  50 H50           -1.3151     1.8782     1.5704 H       
@<TRIPOS>BOND
   1    1    2 1
   2    1    3 1
   3    1    4 1
   4    1   31 1
   5    2    3 1
   6    2   32 1
   7    2   33 1
   8    3   34 1
   9    3   35 1
  10    4    5 2
  11    4    6 am
  12    6    7 1
  13    6   36 1
  14    7    8 1
  15    7   15 1
  16    7   37 1
  17    8    9 1
  18    8   38 1
  19    8   39 1
  20    9   10 1
  21    9   40 1
  22    9   41 1
  23   10   11 ar
  24   10   15 ar
  25   11   12 ar
  26   11   42 1
  27   12   13 ar
  28   12   17 1
  29   13   14 ar
  30   13   43 1
  31   14   15 ar
  32   14   16 1
  33   17   18 ar
  34   17   22 ar
  35   18   19 ar
  36   18   25 1
  37   19   20 ar
  38   19   29 1
  39   20   21 ar
  40   20   44 1
  41   21   22 ar
  42   21   30 1
  43   22   45 1
  44   23   24 1
  45   23   27 1
  46   24   25 2
  47   25   26 1
  48   26   27 2
  49   27   28 1
  50   28   46 1
  51   28   47 1
  52   28   48 1
  53   31   49 1
  54   31   50 1

#	End of record

