#	Name: ASD10610156
#	Creating user name:	WinNT
#	Creation time:	15. 06. 2019 21:28

#	Modifying user name:	WinNT
#	Modification time:	15. 06. 2019 21:28

#	Program:	/corina/corina34_cracker 3.40 0067  02.08.2006

@<TRIPOS>MOLECULE
ASD10610156
  19   19    0    0    0
SMALL
NO_CHARGES


@<TRIPOS>ATOM
   1 C1            -0.0167     1.3836     0.0096 C.ar    
   2 C2             0.0021    -0.0041     0.0020 C.ar    
   3 C3             1.2143    -0.6794    -0.0132 C.ar    
   4 C4             2.4004     0.0314    -0.0207 C.ar    
   5 C5             2.3790     1.4146    -0.0131 C.ar    
   6 C6             1.1713     2.0899     0.0021 C.ar    
   7 O7            -1.1654    -0.7008     0.0099 O.3     
   8 C8            -1.7351    -1.0265    -1.2595 C.3     
   9 C9            -3.0356    -1.8049    -1.0503 C.3     
  10 F10           -2.7660    -2.9822    -0.3444 F       
  11 F11           -3.9366    -1.0205    -0.3222 F       
  12 Cl12           3.8696     2.3044    -0.0225 Cl      
  13 Cl13           1.2416    -2.4152    -0.0222 Cl      
  14 Br14          -1.6667     2.3074     0.0225 Br      
  15 H15            3.3441    -0.4937    -0.0322 H       
  16 H16            1.1570     3.1698     0.0080 H       
  17 H17           -1.9452    -0.1092    -1.8096 H       
  18 H18           -1.0331    -1.6376    -1.8268 H       
  19 H19           -3.4702    -2.0533    -2.0186 H       
@<TRIPOS>BOND
   1    1    2 ar
   2    1    6 ar
   3    1   14 1
   4    2    3 ar
   5    2    7 1
   6    3    4 ar
   7    3   13 1
   8    4    5 ar
   9    4   15 1
  10    5    6 ar
  11    5   12 1
  12    6   16 1
  13    7    8 1
  14    8    9 1
  15    8   17 1
  16    8   18 1
  17    9   10 1
  18    9   11 1
  19    9   19 1

#	End of record

