#	Name: ASD11530008
#	Creating user name:	WinNT
#	Creation time:	15. 06. 2019 21:29

#	Modifying user name:	WinNT
#	Modification time:	15. 06. 2019 21:29

#	Program:	/corina/corina34_cracker 3.40 0067  02.08.2006

@<TRIPOS>MOLECULE
ASD11530008
  29   30    0    0    0
SMALL
NO_CHARGES


@<TRIPOS>ATOM
   1 C1            -0.0052     1.4488     0.5511 C.3     
   2 C2             0.0083    -0.0299     0.2605 C.ar    
   3 C3             1.1566    -0.6267    -0.2262 C.ar    
   4 C4             1.1726    -1.9818    -0.4932 C.ar    
   5 C5            -1.1262    -0.7879     0.4866 C.ar    
   6 C6            -1.1170    -2.1431     0.2223 C.ar    
   7 C7             0.0334    -2.7450    -0.2722 C.ar    
   8 C8             1.2946    -4.7733    -0.9345 C.3     
   9 C9             1.0385    -6.2404    -1.1650 C.2     
  10 C10            0.8324    -8.3929    -0.7981 C.2     
  11 C11            0.6818    -6.8025    -2.3338 C.2     
  12 C12            0.5489    -8.1901    -2.0973 C.2     
  13 N13            0.0461    -4.1155    -0.5411 N.pl3   
  14 N14           -2.3312    -2.9537     0.4655 N.pl3   
  15 O15            1.1334    -7.2091    -0.2396 O.3     
  16 O16           -3.4318    -2.4872     0.2317 O.2     
  17 O17           -2.2299    -4.0872     0.8995 O.2     
  18 F18            1.2477     1.9943     0.2518 F       
  19 F19           -0.9835     2.0692    -0.2332 F       
  20 F20           -0.2925     1.6554     1.9046 F       
  21 H21            2.0420    -0.0326    -0.3981 H       
  22 H22            2.0698    -2.4473    -0.8736 H       
  23 H23           -2.0203    -0.3193     0.8707 H       
  24 H24            2.0337    -4.6535    -0.1423 H       
  25 H25            1.6698    -4.3213    -1.8527 H       
  26 H26            0.8231    -9.3463    -0.2909 H       
  27 H27            0.5266    -6.2919    -3.2727 H       
  28 H28            0.2695    -8.9423    -2.8201 H       
  29 H29           -0.7718    -4.6318    -0.4674 H       
@<TRIPOS>BOND
   1    1    2 1
   2    1   18 1
   3    1   19 1
   4    1   20 1
   5    2    3 ar
   6    2    5 ar
   7    3    4 ar
   8    3   21 1
   9    4    7 ar
  10    4   22 1
  11    5    6 ar
  12    5   23 1
  13    6    7 ar
  14    6   14 1
  15    7   13 1
  16    8    9 1
  17    8   13 1
  18    8   24 1
  19    8   25 1
  20    9   11 2
  21    9   15 1
  22   10   12 2
  23   10   15 1
  24   10   26 1
  25   11   12 1
  26   11   27 1
  27   12   28 1
  28   13   29 1
  29   14   16 2
  30   14   17 2

#	End of record

