#	Name: ASD13490068
#	Creating user name:	WinNT
#	Creation time:	15. 06. 2019 21:30

#	Modifying user name:	WinNT
#	Modification time:	15. 06. 2019 21:30

#	Program:	/corina/corina34_cracker 3.40 0067  02.08.2006

@<TRIPOS>MOLECULE
ASD13490068
  42   45    0    0    0
SMALL
NO_CHARGES


@<TRIPOS>ATOM
   1 C1            -0.0169     1.3916     0.0097 C.ar    
   2 C2             0.0021    -0.0041     0.0020 C.ar    
   3 C3             1.2104    -0.6762    -0.0131 C.ar    
   4 C4             2.4061     0.0405    -0.0207 C.ar    
   5 C5             2.3862     1.4288    -0.0131 C.ar    
   6 C6             1.1843     2.1038     0.0020 C.ar    
   7 N7             3.6309    -0.6419    -0.0356 N.pl3   
   8 C8             4.6797    -0.4151    -0.8887 C.2     
   9 C9             5.6496    -1.2879    -0.5552 C.2     
  10 N10            5.2104    -2.0293     0.4725 N.2     
  11 C11            4.0046    -1.6482     0.7964 C.2     
  12 C12            6.9955    -1.4106    -1.2219 C.3     
  13 O13            1.2324    -2.0355    -0.0202 O.3     
  14 C14           -0.0301    -2.7048    -0.0113 C.3     
  15 C15           -1.3059     2.1144     0.0197 C.2     
  16 N16           -1.4760     3.4738     0.0279 N.pl3   
  17 C17           -2.8307     3.6780     0.0355 C.2     
  18 N18           -3.4023     2.4930     0.0318 N.2     
  19 N19           -2.5051     1.5728     0.0167 N.2     
  20 C20           -3.5209     4.9851     0.0463 C.ar    
  21 C21           -4.9157     5.0406     0.0532 C.ar    
  22 C22           -5.5546     6.2626     0.0632 C.ar    
  23 C23           -4.8144     7.4344     0.0660 C.ar    
  24 C24           -3.4294     7.3850     0.0588 C.ar    
  25 C25           -2.7803     6.1683     0.0555 C.ar    
  26 F26           -5.4453     8.6290     0.0754 F       
  27 H27           -0.9251    -0.5579     0.0083 H       
  28 H28            3.3143     1.9810    -0.0186 H       
  29 H29            1.1716     3.1837     0.0080 H       
  30 H30            4.7203     0.3220    -1.6771 H       
  31 H31            3.4037    -2.0653     1.5910 H       
  32 H32            7.7093    -0.7553    -0.7226 H       
  33 H33            7.3412    -2.4422    -1.1555 H       
  34 H34            6.9096    -1.1229    -2.2697 H       
  35 H35           -0.5831    -2.4255     0.8856 H       
  36 H36           -0.6004    -2.4165    -0.8943 H       
  37 H37            0.1301    -3.7829    -0.0183 H       
  38 H38           -0.7816     4.1510     0.0286 H       
  39 H39           -5.4935     4.1281     0.0503 H       
  40 H40           -6.6337     6.3067     0.0686 H       
  41 H41           -2.8573     8.3011     0.0603 H       
  42 H42           -1.7009     6.1309     0.0547 H       
@<TRIPOS>BOND
   1    1    2 ar
   2    1    6 ar
   3    1   15 1
   4    2    3 ar
   5    2   27 1
   6    3    4 ar
   7    3   13 1
   8    4    5 ar
   9    4    7 1
  10    5    6 ar
  11    5   28 1
  12    6   29 1
  13    7    8 1
  14    7   11 1
  15    8    9 2
  16    8   30 1
  17    9   10 1
  18    9   12 1
  19   10   11 2
  20   11   31 1
  21   12   32 1
  22   12   33 1
  23   12   34 1
  24   13   14 1
  25   14   35 1
  26   14   36 1
  27   14   37 1
  28   15   16 1
  29   15   19 2
  30   16   17 1
  31   16   38 1
  32   17   18 2
  33   17   20 1
  34   18   19 1
  35   20   21 ar
  36   20   25 ar
  37   21   22 ar
  38   21   39 1
  39   22   23 ar
  40   22   40 1
  41   23   24 ar
  42   23   26 1
  43   24   25 ar
  44   24   41 1
  45   25   42 1

#	End of record

