#	Name: ASD13110085
#	Creating user name:	WinNT
#	Creation time:	15. 06. 2019 21:30

#	Modifying user name:	WinNT
#	Modification time:	15. 06. 2019 21:30

#	Program:	/corina/corina34_cracker 3.40 0067  02.08.2006

@<TRIPOS>MOLECULE
ASD13110085
  47   49    0    0    0
SMALL
NO_CHARGES


@<TRIPOS>ATOM
   1 C1            -0.0167     1.3834     0.0096 C.ar    
   2 C2             0.0021    -0.0041     0.0020 C.ar    
   3 C3             1.2283    -0.6899    -0.0134 C.ar    
   4 C4             2.4236     0.0340    -0.0216 C.ar    
   5 C5             2.3909     1.4098    -0.0145 C.ar    
   6 C6             1.1738     2.0869     0.0021 C.ar    
   7 N7             0.9394    -2.0176    -0.0170 N.2     
   8 C8            -0.3504    -2.1846    -0.0052 C.2     
   9 N9            -0.9784    -0.9768     0.0069 N.pl3   
  10 C10           -1.0481    -3.5204    -0.0048 C.3     
  11 N11           -1.1804    -4.0025    -1.3819 N.am    
  12 C12           -0.1253    -4.8292    -1.9731 C.3     
  13 C13           -2.2729    -3.6856    -2.1048 C.2     
  14 O14           -3.1464    -3.0012    -1.6153 O.2     
  15 C15           -2.4090    -4.1815    -3.5213 C.3     
  16 N16           -3.6739    -3.7047    -4.0862 N.am    
  17 C17           -3.8696    -2.5098    -4.7782 C.ar    
  18 C18           -5.2192    -2.4688    -5.1287 C.ar    
  19 O19           -5.7923    -3.6031    -4.6565 O.3     
  20 C20           -4.8596    -4.3434    -4.0371 C.2     
  21 C21           -5.7136    -1.3835    -5.8343 C.ar    
  22 C22           -4.8696    -0.3482    -6.1873 C.ar    
  23 C23           -3.5300    -0.3894    -5.8391 C.ar    
  24 C24           -3.0279    -1.4687    -5.1357 C.ar    
  25 O25           -5.0549    -5.4221    -3.5108 O.2     
  26 Cl26          -2.4781     0.9166    -6.2881 Cl      
  27 O27            1.1562     3.4464     0.0091 O.3     
  28 Br28           4.0094     2.3877    -0.0257 Br      
  29 C29           -0.1253     4.0785     0.0242 C.3     
  30 H30           -0.9583     1.9123     0.0170 H       
  31 H31            3.3707    -0.4849    -0.0331 H       
  32 H32           -1.9367    -0.8271     0.0170 H       
  33 H33           -0.4646    -4.2349     0.5758 H       
  34 H34           -2.0377    -3.4133     0.4394 H       
  35 H35           -0.3354    -5.8808    -1.7780 H       
  36 H36           -0.0907    -4.6592    -3.0492 H       
  37 H37            0.8352    -4.5626    -1.5321 H       
  38 H38           -1.5792    -3.8051    -4.1194 H       
  39 H39           -2.3963    -5.2715    -3.5274 H       
  40 H40           -6.7576    -1.3471    -6.1084 H       
  41 H41           -5.2563     0.4968    -6.7375 H       
  42 H42           -1.9829    -1.4998    -4.8647 H       
  43 H43            0.0035     5.1609     0.0285 H       
  44 H44           -0.6867     3.7829    -0.8620 H       
  45 H45           -0.6701     3.7740     0.9178 H       
  46 Cl46           9.0094    10.1609     5.9178 Cl      
  47 H47            9.0094    11.5309     5.9178 H       
@<TRIPOS>BOND
   1    1    2 ar
   2    1    6 ar
   3    1   30 1
   4    2    9 1
   5    2    3 ar
   6    3    4 ar
   7    3    7 1
   8    4    5 ar
   9    4   31 1
  10    5    6 ar
  11    5   28 1
  12    6   27 1
  13    7    8 2
  14    8   10 1
  15    8    9 1
  16    9   32 1
  17   10   11 1
  18   10   33 1
  19   10   34 1
  20   11   12 1
  21   11   13 am
  22   12   35 1
  23   12   36 1
  24   12   37 1
  25   13   14 2
  26   13   15 1
  27   15   16 1
  28   15   38 1
  29   15   39 1
  30   16   17 1
  31   16   20 am
  32   17   24 ar
  33   17   18 ar
  34   18   19 1
  35   18   21 ar
  36   19   20 1
  37   20   25 2
  38   21   22 ar
  39   21   40 1
  40   22   23 ar
  41   22   41 1
  42   23   24 ar
  43   23   26 1
  44   24   42 1
  45   27   29 1
  46   29   43 1
  47   29   44 1
  48   29   45 1
  49   46   47 1

#	End of record

