#	Name: ASD13430001
#	Creating user name:	WinNT
#	Creation time:	15. 06. 2019 21:30

#	Modifying user name:	WinNT
#	Modification time:	15. 06. 2019 21:30

#	Program:	/corina/corina34_cracker 3.40 0067  02.08.2006

@<TRIPOS>MOLECULE
ASD13430001
  59   63    0    0    0
SMALL
NO_CHARGES


@<TRIPOS>ATOM
   1 C1            -0.0166     1.3975     0.1927 C.ar    
   2 C2            -0.0060     0.0120     0.3966 C.ar    
   3 C3             1.1927    -0.6351     0.5981 C.ar    
   4 C4             2.3998     0.0783     0.6014 C.ar    
   5 C5             2.4123     1.4297     0.4050 C.ar    
   6 C6             1.2069     2.1114     0.1969 C.ar    
   7 C7             1.1644     3.5105    -0.0119 C.ar    
   8 N8            -0.0181     4.0811    -0.2006 N.ar    
   9 C9            -1.1364     3.3729    -0.1963 C.ar    
  10 N10           -1.1574     2.0742    -0.0135 N.ar    
  11 N11            2.3220     4.2610    -0.0186 N.3     
  12 C12            2.1003     5.5764     0.5980 C.3     
  13 C13            3.4230     6.3451     0.6429 C.3     
  14 N14            3.9501     6.4882    -0.7214 N.3     
  15 C15            4.1717     5.1728    -1.3379 C.3     
  16 C16            2.8490     4.4041    -1.3829 C.3     
  17 C17            5.1244     7.2496    -0.7281 C.ar    
  18 C18            5.0849     8.5980    -0.3785 C.ar    
  19 C19            6.2499     9.3463    -0.3865 C.ar    
  20 C20            7.4493     8.7556    -0.7413 C.ar    
  21 C21            7.4894     7.4184    -1.0886 C.ar    
  22 C22            6.3316     6.6627    -1.0772 C.ar    
  23 O23            3.9047     9.1778    -0.0308 O.3     
  24 C24            3.9399    10.5637     0.3156 C.3     
  25 O25            3.5709    -0.5827     0.8030 O.3     
  26 C26            4.7670     0.1993     0.7953 C.3     
  27 O27            1.2059    -1.9790     0.7961 O.3     
  28 C28           -0.0561    -2.6492     0.7820 C.3     
  29 C29           -2.4433     4.0900    -0.4169 C.3     
  30 C30           -3.2859     3.6680    -1.6223 C.3     
  31 C31           -3.7314     3.2912    -0.2080 C.3     
  32 H32           -0.9314    -0.5450     0.3963 H       
  33 H33            3.3474     1.9701     0.4101 H       
  34 H34            1.3741     6.1364     0.0089 H       
  35 H35            1.7221     5.4438     1.6116 H       
  36 H36            3.2554     7.3324     1.0734 H       
  37 H37            4.1407     5.7984     1.2546 H       
  38 H38            4.5499     5.3053    -2.3516 H       
  39 H39            4.8979     4.6128    -0.7488 H       
  40 H40            3.0166     3.4168    -1.8134 H       
  41 H41            2.1313     4.9507    -1.9945 H       
  42 H42            6.2221    10.3915    -0.1160 H       
  43 H43            8.3569     9.3410    -0.7472 H       
  44 H44            8.4281     6.9617    -1.3655 H       
  45 H45            6.3664     5.6170    -1.3446 H       
  46 H46            4.3113    11.1406    -0.5314 H       
  47 H47            2.9352    10.8999     0.5717 H       
  48 H48            4.6002    10.7078     1.1708 H       
  49 H49            5.6261    -0.4491     0.9671 H       
  50 H50            4.8719     0.6932    -0.1707 H       
  51 H51            4.7151     0.9503     1.5836 H       
  52 H52           -0.6918    -2.2434     1.5690 H       
  53 H53           -0.5358    -2.5004    -0.1854 H       
  54 H54            0.0966    -3.7150     0.9518 H       
  55 H55           -2.4538     5.1441    -0.1398 H       
  56 H56           -3.8510     4.4444    -2.1379 H       
  57 H57           -2.8949     2.8717    -2.2557 H       
  58 H58           -3.6335     2.2471     0.0892 H       
  59 H59           -4.5897     3.8198     0.2069 H       
@<TRIPOS>BOND
   1    1    2 ar
   2    1    6 ar
   3    1   10 ar
   4    2    3 ar
   5    2   32 1
   6    3    4 ar
   7    3   27 1
   8    4    5 ar
   9    4   25 1
  10    5    6 ar
  11    5   33 1
  12    6    7 ar
  13    7    8 ar
  14    7   11 1
  15    8    9 ar
  16    9   10 ar
  17    9   29 1
  18   11   12 1
  19   11   16 1
  20   12   13 1
  21   12   34 1
  22   12   35 1
  23   13   14 1
  24   13   36 1
  25   13   37 1
  26   14   15 1
  27   14   17 1
  28   15   16 1
  29   15   38 1
  30   15   39 1
  31   16   40 1
  32   16   41 1
  33   17   18 ar
  34   17   22 ar
  35   18   19 ar
  36   18   23 1
  37   19   20 ar
  38   19   42 1
  39   20   21 ar
  40   20   43 1
  41   21   22 ar
  42   21   44 1
  43   22   45 1
  44   23   24 1
  45   24   46 1
  46   24   47 1
  47   24   48 1
  48   25   26 1
  49   26   49 1
  50   26   50 1
  51   26   51 1
  52   27   28 1
  53   28   52 1
  54   28   53 1
  55   28   54 1
  56   29   30 1
  57   29   31 1
  58   29   55 1
  59   30   31 1
  60   30   56 1
  61   30   57 1
  62   31   58 1
  63   31   59 1

#	End of record

