#	Name: ASD10220006
#	Creating user name:	WinNT
#	Creation time:	15. 06. 2019 21:26

#	Modifying user name:	WinNT
#	Modification time:	15. 06. 2019 21:26

#	Program:	/corina/corina34_cracker 3.40 0067  02.08.2006

@<TRIPOS>MOLECULE
ASD10220006
  43   45    0    0    0
SMALL
NO_CHARGES


@<TRIPOS>ATOM
   1 C1            -0.0064     1.4648    -0.1711 C.2     
   2 C2             0.0236     0.0553    -0.3197 C.2     
   3 C3            -1.1119    -0.6708    -0.3762 C.2     
   4 C4            -2.4338    -0.0542    -0.2880 C.2     
   5 C5            -2.5490     1.3194    -0.1412 C.2     
   6 C6            -1.3380     2.1518    -0.0695 C.2     
   7 O7            -3.6760    -0.5735    -0.3209 O.3     
   8 C8            -4.6064     0.3761    -0.2045 C.2     
   9 C9            -3.9872     1.6034    -0.0860 C.2     
  10 O10           -1.4128     3.3557     0.0592 O.2     
  11 O11            1.0253     2.1040    -0.1219 O.2     
  12 Br12           1.6920    -0.8263    -0.4419 Br      
  13 C13           -4.6329     2.9189     0.0647 C.2     
  14 O14           -3.9562     3.9086     0.2682 O.2     
  15 C15           -6.1031     3.0358    -0.0316 C.ar    
  16 C16           -6.8285     2.1365    -0.8161 C.ar    
  17 C17           -8.2004     2.2512    -0.9010 C.ar    
  18 C18           -8.8581     3.2544    -0.2112 C.ar    
  19 C19           -8.1455     4.1493     0.5676 C.ar    
  20 C20           -6.7738     4.0426     0.6661 C.ar    
  21 C21          -10.3572     3.3734    -0.3089 C.3     
  22 C22           -1.0140    -2.1661    -0.5360 C.3     
  23 C23           -1.6684    -2.8411     0.6418 C.2     
  24 C24           -1.7120    -2.5825    -1.8051 C.2     
  25 C25           -1.3140    -3.8592    -2.4998 C.3     
  26 O26           -2.5901    -1.8930    -2.2654 O.2     
  27 C27           -1.1746    -4.1858     1.1096 C.3     
  28 O28           -2.5885    -2.3044     1.2107 O.2     
  29 H29           -5.6737     0.2104    -0.2032 H       
  30 H30           -6.3164     1.3533    -1.3552 H       
  31 H31           -8.7625     1.5566    -1.5076 H       
  32 H32           -8.6650     4.9301     1.1031 H       
  33 H33           -6.2189     4.7414     1.2745 H       
  34 H34          -10.8210     2.7780     0.4776 H       
  35 H35          -10.6471     4.4177    -0.1929 H       
  36 H36          -10.6878     3.0105    -1.2821 H       
  37 H37            0.0349    -2.4583    -0.5856 H       
  38 H38           -1.4673    -4.7024    -1.8263 H       
  39 H39           -1.9243    -3.9922    -3.3931 H       
  40 H40           -0.2627    -3.8065    -2.7826 H       
  41 H41           -0.3930    -4.0462     1.8564 H       
  42 H42           -2.0014    -4.7438     1.5491 H       
  43 H43           -0.7722    -4.7402     0.2618 H       
@<TRIPOS>BOND
   1    1    2 1
   2    1   11 2
   3    1    6 1
   4    2    3 2
   5    2   12 1
   6    3    4 1
   7    3   22 1
   8    4    5 2
   9    4    7 1
  10    5    6 1
  11    5    9 1
  12    6   10 2
  13    7    8 1
  14    8    9 2
  15    8   29 1
  16    9   13 1
  17   13   14 2
  18   13   15 1
  19   15   16 ar
  20   15   20 ar
  21   16   17 ar
  22   16   30 1
  23   17   18 ar
  24   17   31 1
  25   18   19 ar
  26   18   21 1
  27   19   20 ar
  28   19   32 1
  29   20   33 1
  30   21   34 1
  31   21   35 1
  32   21   36 1
  33   22   23 1
  34   22   24 1
  35   22   37 1
  36   23   27 1
  37   23   28 2
  38   24   25 1
  39   24   26 2
  40   25   38 1
  41   25   39 1
  42   25   40 1
  43   27   41 1
  44   27   42 1
  45   27   43 1

#	End of record

