#	Name: ASD14630003
#	Creating user name:	WinNT
#	Creation time:	15. 06. 2019 21:31

#	Modifying user name:	WinNT
#	Modification time:	15. 06. 2019 21:31

#	Program:	/corina/corina34_cracker 3.40 0067  02.08.2006

@<TRIPOS>MOLECULE
ASD14630003
  28   29    0    0    0
SMALL
NO_CHARGES


@<TRIPOS>ATOM
   1 C1            -0.0163     1.4795    -0.0132 C.ar    
   2 C2             1.1733     2.2021    -0.0278 C.ar    
   3 N3             1.1600     3.5198    -0.0123 N.ar    
   4 C4             0.0273     4.2050     0.0172 C.ar    
   5 C5            -1.2018     3.5523     0.0329 C.ar    
   6 C6            -1.2323     2.1718     0.0120 C.ar    
   7 N7             0.0664     5.5965     0.0330 N.pl3   
   8 C8             1.2748     6.2505     0.1294 C.2     
   9 N9             1.3242     7.6213     0.0341 N.pl3   
  10 N10            2.3712     5.5701     0.3109 N.2     
  11 C11            0.0045    -0.0038    -0.0302 C.ar    
  12 C12            1.2193    -0.6859    -0.0611 C.ar    
  13 C13            1.2327    -2.0659    -0.0763 C.ar    
  14 C14            0.0432    -2.7719    -0.0610 C.ar    
  15 C15           -1.1655    -2.1000    -0.0304 C.ar    
  16 C16           -1.1906    -0.7202    -0.0096 C.ar    
  17 H17            2.1170     1.6774    -0.0518 H       
  18 H18           -2.1209     4.1188     0.0572 H       
  19 H19           -2.1718     1.6392     0.0235 H       
  20 H20           -0.7574     6.1055    -0.0238 H       
  21 H21            0.5080     8.1278    -0.1011 H       
  22 H22            2.1752     8.0818     0.1019 H       
  23 H23            3.2222     6.0307     0.3788 H       
  24 H24            2.1485    -0.1357    -0.0734 H       
  25 H25            2.1735    -2.5956    -0.1006 H       
  26 H26            0.0583    -3.8517    -0.0734 H       
  27 H27           -2.0912    -2.6562    -0.0186 H       
  28 H28           -2.1348    -0.1967     0.0189 H       
@<TRIPOS>BOND
   1    1   11 1
   2    1    2 ar
   3    1    6 ar
   4    2    3 ar
   5    2   17 1
   6    3    4 ar
   7    4    5 ar
   8    4    7 1
   9    5    6 ar
  10    5   18 1
  11    6   19 1
  12    7    8 1
  13    7   20 1
  14    8    9 1
  15    8   10 2
  16    9   21 1
  17    9   22 1
  18   10   23 1
  19   11   12 ar
  20   11   16 ar
  21   12   13 ar
  22   12   24 1
  23   13   14 ar
  24   13   25 1
  25   14   15 ar
  26   14   26 1
  27   15   16 ar
  28   15   27 1
  29   16   28 1

#	End of record

