#	Name: ASD10610059
#	Creating user name:	WinNT
#	Creation time:	15. 06. 2019 21:27

#	Modifying user name:	WinNT
#	Modification time:	15. 06. 2019 21:27

#	Program:	/corina/corina34_cracker 3.40 0067  02.08.2006

@<TRIPOS>MOLECULE
ASD10610059
  62   67    0    0    0
SMALL
NO_CHARGES


@<TRIPOS>ATOM
   1 C1            -0.6087     1.7200     0.6745 C.ar    
   2 C2            -0.8234     0.3617     0.8994 C.ar    
   3 C3             0.2624    -0.5098     0.9481 C.ar    
   4 C4             1.5471    -0.0294     0.7747 C.ar    
   5 C5             1.7568     1.3198     0.5516 C.ar    
   6 C6             0.6779     2.1917     0.5017 C.ar    
   7 C7             2.8740    -0.7584     0.7842 C.3     
   8 C8             3.8711     0.2088     0.1117 C.3     
   9 C9             3.2389     1.5876     0.3963 C.3     
  10 C10           -2.2008    -0.1536     1.0864 C.ar    
  11 C11           -2.6421    -1.2513     0.3541 C.ar    
  12 C12           -3.9268    -1.7299     0.5310 C.ar    
  13 C13           -4.7821    -1.1225     1.4349 C.ar    
  14 C14           -4.3596    -0.0305     2.1708 C.ar    
  15 C15           -3.0647     0.4601     2.0077 C.ar    
  16 F16           -5.1995     0.5575     3.0506 F       
  17 Cl17          -4.4712    -3.0999    -0.3858 Cl      
  18 C18           -2.6064     1.6296     2.7940 C.2     
  19 N19           -3.3317     2.3202     3.7035 N.2     
  20 C20           -2.5362     3.2615     4.1463 C.2     
  21 O21           -1.3695     3.1239     3.5085 O.3     
  22 N22           -1.4225     2.1846     2.7430 N.2     
  23 C23           -2.8731     4.3047     5.1804 C.3     
  24 N24            3.7857     2.1520     1.6327 N.am    
  25 C25            3.7884     3.4866     1.8208 C.2     
  26 O26            3.4219     4.2251     0.9313 O.2     
  27 C27            4.2467     4.0612     3.1364 C.3     
  28 N28            5.3492     3.3490     3.7872 N.am    
  29 C29            4.1934     5.5815     3.3001 C.3     
  30 C30            3.1859     4.6961     4.0379 C.3     
  31 F31            0.8874     3.5083     0.2831 F       
  32 C32            6.5662     3.3185     3.2090 C.2     
  33 C33            7.6462     2.5093     3.8054 C.2     
  34 O34            6.7742     3.9578     2.1960 O.2     
  35 C35            8.9244     2.3771     3.3404 C.2     
  36 C36            9.5351     1.4998     4.2730 C.2     
  37 N37            8.6205     1.2059     5.1569 N.2     
  38 O38            7.5714     1.7578     4.9203 O.3     
  39 O39           10.8169     1.0541     4.2507 O.3     
  40 C40           11.2149     0.1705     5.3009 C.3     
  41 H41           -1.4459     2.4010     0.6309 H       
  42 H42            0.1002    -1.5632     1.1222 H       
  43 H43            3.1829    -0.9683     1.8083 H       
  44 H44            2.8012    -1.6839     0.2131 H       
  45 H45            4.8561     0.1317     0.5722 H       
  46 H46            3.9280     0.0226    -0.9607 H       
  47 H47            3.4154     2.2644    -0.4397 H       
  48 H48           -1.9806    -1.7295    -0.3531 H       
  49 H49           -5.7843    -1.5033     1.5655 H       
  50 H50           -2.6234     3.9274     6.1720 H       
  51 H51           -2.3011     5.2111     4.9819 H       
  52 H52           -3.9386     4.5303     5.1352 H       
  53 H53            4.1459     1.5652     2.3160 H       
  54 H54            5.2032     2.8994     4.6342 H       
  55 H55            4.9784     6.0517     3.8924 H       
  56 H56            3.8269     6.1661     2.4563 H       
  57 H57            2.1566     4.6985     3.6793 H       
  58 H58            3.3084     4.5842     5.1152 H       
  59 H59            9.3662     2.8333     2.4668 H       
  60 H60           12.2595    -0.1091     5.1642 H       
  61 H61           11.0955     0.6711     6.2617 H       
  62 H62           10.5932    -0.7245     5.2778 H       
@<TRIPOS>BOND
   1    1    2 ar
   2    1    6 ar
   3    1   41 1
   4    2    3 ar
   5    2   10 1
   6    3    4 ar
   7    3   42 1
   8    4    5 ar
   9    4    7 1
  10    5    6 ar
  11    5    9 1
  12    6   31 1
  13    7    8 1
  14    7   43 1
  15    7   44 1
  16    8    9 1
  17    8   45 1
  18    8   46 1
  19    9   24 1
  20    9   47 1
  21   10   11 ar
  22   10   15 ar
  23   11   12 ar
  24   11   48 1
  25   12   13 ar
  26   12   17 1
  27   13   14 ar
  28   13   49 1
  29   14   15 ar
  30   14   16 1
  31   15   18 1
  32   18   19 1
  33   18   22 2
  34   19   20 2
  35   20   21 1
  36   20   23 1
  37   21   22 1
  38   23   50 1
  39   23   51 1
  40   23   52 1
  41   24   25 am
  42   24   53 1
  43   25   26 2
  44   25   27 1
  45   27   28 1
  46   27   29 1
  47   27   30 1
  48   28   32 am
  49   28   54 1
  50   29   30 1
  51   29   55 1
  52   29   56 1
  53   30   57 1
  54   30   58 1
  55   32   33 1
  56   32   34 2
  57   33   35 2
  58   33   38 1
  59   35   36 1
  60   35   59 1
  61   36   37 2
  62   36   39 1
  63   37   38 1
  64   39   40 1
  65   40   60 1
  66   40   61 1
  67   40   62 1

#	End of record

