#	Name: ASD10410034
#	Creating user name:	WinNT
#	Creation time:	15. 06. 2019 21:26

#	Modifying user name:	WinNT
#	Modification time:	15. 06. 2019 21:26

#	Program:	/corina/corina34_cracker 3.40 0067  02.08.2006

@<TRIPOS>MOLECULE
ASD10410034
  65   68    0    0    0
SMALL
NO_CHARGES


@<TRIPOS>ATOM
   1 C1            -0.0545     1.3694    -0.0367 C.ar    
   2 C2            -0.0276    -0.0105    -0.0342 C.ar    
   3 C3             1.1942    -0.6811    -0.0455 C.ar    
   4 C4             2.3826     0.0470    -0.0592 C.ar    
   5 C5             2.3437     1.4265    -0.0616 C.ar    
   6 C6             1.1282     2.0867    -0.0504 C.ar    
   7 C7             1.0923     3.5933    -0.0531 C.3     
   8 C8             1.2295    -2.1637    -0.0423 C.ar    
   9 N9             0.3136    -2.8600     0.6266 N.ar    
  10 C10            2.2218    -2.8513    -0.7466 C.ar    
  11 C11            2.2141    -4.2343    -0.7149 C.ar    
  12 N12            1.2749    -4.8610    -0.0241 N.ar    
  13 C13            0.3430    -4.1835     0.6304 C.ar    
  14 C14            3.2751    -2.1035    -1.5228 C.3     
  15 N15           -0.6218    -4.8779     1.3419 N.pl3   
  16 C16           -0.6757    -6.2730     1.2683 C.ar    
  17 C17           -1.0507    -7.0148     2.3812 C.ar    
  18 C18           -1.1034    -8.3927     2.3050 C.ar    
  19 C19           -0.7829    -9.0341     1.1225 C.ar    
  20 C20           -0.4088    -8.2986     0.0128 C.ar    
  21 C21           -0.3600    -6.9201     0.0804 C.ar    
  22 C22           -0.8411   -10.5379     1.0432 C.3     
  23 N23           -2.1845   -10.9543     0.6193 N.3     
  24 C24           -2.2156   -12.3888     0.3019 C.3     
  25 C25           -3.6458   -12.7982    -0.0576 C.3     
  26 N26           -4.1089   -11.9987    -1.2004 N.3     
  27 C27           -4.0778   -10.5642    -0.8830 C.3     
  28 C28           -2.6476   -10.1548    -0.5236 C.3     
  29 C29           -5.4523   -12.4151    -1.6243 C.3     
  30 C30           -0.3619     4.0688    -0.0391 C.3     
  31 C31            1.7866     4.1028     1.1406 C.1     
  32 C32            1.7882     4.1178    -1.3107 C.3     
  33 N33            2.3225     4.4960     2.0619 N.1     
  34 H34           -1.0007     1.8900    -0.0325 H       
  35 H35           -0.9516    -0.5695    -0.0232 H       
  36 H36            3.3322    -0.4675    -0.0676 H       
  37 H37            3.2639     1.9916    -0.0723 H       
  38 H38            2.9662    -4.7967    -1.2484 H       
  39 H39            4.1311    -1.9072    -0.8774 H       
  40 H40            3.5929    -2.7039    -2.3753 H       
  41 H41            2.8630    -1.1587    -1.8773 H       
  42 H42           -1.2600    -4.3961     1.8911 H       
  43 H43           -1.3004    -6.5145     3.3052 H       
  44 H44           -1.3949    -8.9700     3.1699 H       
  45 H45           -0.1585    -8.8026    -0.9090 H       
  46 H46           -0.0681    -6.3463    -0.7867 H       
  47 H47           -0.1059   -10.8923     0.3206 H       
  48 H48           -0.6214   -10.9621     2.0229 H       
  49 H49           -1.5569   -12.5886    -0.5433 H       
  50 H50           -1.8805   -12.9601     1.1675 H       
  51 H51           -3.6660   -13.8556    -0.3215 H       
  52 H52           -4.2997   -12.6238     0.7970 H       
  53 H53           -4.4130    -9.9929    -1.7487 H       
  54 H54           -4.7365   -10.3644    -0.0379 H       
  55 H55           -2.6274    -9.0974    -0.2597 H       
  56 H56           -1.9938   -10.3292    -1.3781 H       
  57 H57           -6.1514   -12.2821    -0.7986 H       
  58 H58           -5.7707   -11.8075    -2.4714 H       
  59 H59           -5.4318   -13.4648    -1.9175 H       
  60 H60           -0.8577     3.6951     0.8568 H       
  61 H61           -0.3879     5.1585    -0.0410 H       
  62 H62           -0.8761     3.6915    -0.9230 H       
  63 H63            1.2741     3.7405    -2.1946 H       
  64 H64            1.7622     5.2075    -1.3126 H       
  65 H65            2.8242     3.7790    -1.3207 H       
@<TRIPOS>BOND
   1    1    2 ar
   2    1    6 ar
   3    1   34 1
   4    2    3 ar
   5    2   35 1
   6    3    4 ar
   7    3    8 1
   8    4    5 ar
   9    4   36 1
  10    5    6 ar
  11    5   37 1
  12    6    7 1
  13    7   30 1
  14    7   31 1
  15    7   32 1
  16    8    9 ar
  17    8   10 ar
  18    9   13 ar
  19   10   11 ar
  20   10   14 1
  21   11   12 ar
  22   11   38 1
  23   12   13 ar
  24   13   15 1
  25   14   39 1
  26   14   40 1
  27   14   41 1
  28   15   16 1
  29   15   42 1
  30   16   17 ar
  31   16   21 ar
  32   17   18 ar
  33   17   43 1
  34   18   19 ar
  35   18   44 1
  36   19   20 ar
  37   19   22 1
  38   20   21 ar
  39   20   45 1
  40   21   46 1
  41   22   23 1
  42   22   47 1
  43   22   48 1
  44   23   24 1
  45   23   28 1
  46   24   25 1
  47   24   49 1
  48   24   50 1
  49   25   26 1
  50   25   51 1
  51   25   52 1
  52   26   27 1
  53   26   29 1
  54   27   28 1
  55   27   53 1
  56   27   54 1
  57   28   55 1
  58   28   56 1
  59   29   57 1
  60   29   58 1
  61   29   59 1
  62   30   60 1
  63   30   61 1
  64   30   62 1
  65   31   33 3
  66   32   63 1
  67   32   64 1
  68   32   65 1

#	End of record

