#	Name: ASD13760004
#	Creating user name:	WinNT
#	Creation time:	15. 06. 2019 21:30

#	Modifying user name:	WinNT
#	Modification time:	15. 06. 2019 21:30

#	Program:	/corina/corina34_cracker 3.40 0067  02.08.2006

@<TRIPOS>MOLECULE
ASD13760004
  52   55    0    0    0
SMALL
NO_CHARGES


@<TRIPOS>ATOM
   1 C1             0.1392     1.1134     0.5496 C.2     
   2 N2             0.0855    -0.1799     0.2793 N.2     
   3 C3             1.1141    -0.8271    -0.2580 C.2     
   4 C4             2.2179    -0.1626    -0.7066 C.2     
   5 C5             2.2375     1.3480    -0.6823 C.3     
   6 N6             1.3131     1.8035     0.3657 N.pl3   
   7 C7             3.3258    -0.8760    -1.1860 C.2     
   8 O8             3.1763    -1.7485    -2.1838 O.co2   
   9 O9             4.5292    -0.6821    -0.6441 O.co2   
  10 S10           -2.6300     1.0751     1.3198 S.3     
  11 C11           -1.0555     1.8123     1.0397 C.2     
  12 N12           -1.1234     3.0830     1.3392 N.2     
  13 C13           -2.2849     3.5087     1.7597 C.2     
  14 C14           -3.2562     2.5835     1.8287 C.2     
  15 C15            1.0604    -2.3286    -0.3741 C.3     
  16 O16            0.1479    -4.2666     3.2238 O.3     
  17 C17            1.0126    -4.9604     2.3203 C.3     
  18 C18            0.8573    -4.3678     0.9172 C.3     
  19 N19            1.1432    -2.9266     0.9652 N.3     
  20 C20            0.2374    -2.2467     1.9026 C.3     
  21 C21            0.3990    -2.8605     3.2958 C.3     
  22 C22            1.7937     1.8835    -2.0192 C.ar    
  23 C23            2.5666     1.6597    -3.1448 C.ar    
  24 C24            2.1602     2.1512    -4.3716 C.ar    
  25 C25            0.9792     2.8669    -4.4730 C.ar    
  26 C26            0.2067     3.0896    -3.3459 C.ar    
  27 C27            0.6120     2.5930    -2.1212 C.ar    
  28 F28            0.5812     3.3481    -5.6711 F       
  29 Br29           4.1793     0.6821    -3.0051 Br      
  30 C30            3.6524     1.8407    -0.3722 C.3     
  31 C31            3.6419     3.3640    -0.2286 C.3     
  32 H32            1.5270     2.5737     0.9153 H       
  33 H33           -2.4533     4.5394     2.0348 H       
  34 H34           -4.2705     2.7632     2.1535 H       
  35 H35            0.1231    -2.6232    -0.8462 H       
  36 H36            1.8973    -2.6764    -0.9796 H       
  37 H37            2.0460    -4.8509     2.6492 H       
  38 H38            0.7462    -6.0171     2.3007 H       
  39 H39            1.5558    -4.8550     0.2370 H       
  40 H40           -0.1628    -4.5251     0.5666 H       
  41 H41            0.4835    -1.1856     1.9416 H       
  42 H42           -0.7925    -2.3700     1.5677 H       
  43 H43           -0.3111    -2.3986     3.9816 H       
  44 H44            1.4146    -2.6900     3.6531 H       
  45 H45            2.7637     1.9773    -5.2501 H       
  46 H46           -0.7145     3.6478    -3.4242 H       
  47 H47            0.0073     2.7634    -1.2428 H       
  48 H48            3.9981     1.3905     0.5583 H       
  49 H49            4.3221     1.5569    -1.1840 H       
  50 H50            4.6499     3.7150    -0.0077 H       
  51 H51            3.2962     3.8142    -1.1591 H       
  52 H52            2.9722     3.6478     0.5832 H       
@<TRIPOS>BOND
   1    1    2 2
   2    1    6 1
   3    1   11 1
   4    2    3 1
   5    3    4 2
   6    3   15 1
   7    4    5 1
   8    4    7 1
   9    5    6 1
  10    5   22 1
  11    5   30 1
  12    6   32 1
  13    7    8 ar
  14    7    9 ar
  15   10   11 1
  16   10   14 1
  17   11   12 2
  18   12   13 1
  19   13   14 2
  20   13   33 1
  21   14   34 1
  22   15   19 1
  23   15   35 1
  24   15   36 1
  25   16   17 1
  26   16   21 1
  27   17   18 1
  28   17   37 1
  29   17   38 1
  30   18   19 1
  31   18   39 1
  32   18   40 1
  33   19   20 1
  34   20   21 1
  35   20   41 1
  36   20   42 1
  37   21   43 1
  38   21   44 1
  39   22   23 ar
  40   22   27 ar
  41   23   24 ar
  42   23   29 1
  43   24   25 ar
  44   24   45 1
  45   25   26 ar
  46   25   28 1
  47   26   27 ar
  48   26   46 1
  49   27   47 1
  50   30   31 1
  51   30   48 1
  52   30   49 1
  53   31   50 1
  54   31   51 1
  55   31   52 1

#	End of record

