#	Name: ASD10410268
#	Creating user name:	WinNT
#	Creation time:	15. 06. 2019 21:27

#	Modifying user name:	WinNT
#	Modification time:	15. 06. 2019 21:27

#	Program:	/corina/corina34_cracker 3.40 0067  02.08.2006

@<TRIPOS>MOLECULE
ASD10410268
  65   71    0    0    0
SMALL
NO_CHARGES


@<TRIPOS>ATOM
   1 C1            -0.0184     1.3942    -0.0799 C.ar    
   2 C2            -0.0058     0.0095     0.0248 C.ar    
   3 C3             1.2025    -0.6691     0.1147 C.ar    
   4 C4             2.3914     0.0330     0.0996 C.ar    
   5 C5             2.3788     1.4177    -0.0055 C.ar    
   6 C6             1.1705     2.0963    -0.0950 C.ar    
   7 N7             3.5845     2.1298    -0.0204 N.pl3   
   8 C8             3.6712     3.3399    -0.7078 C.2     
   9 N9             4.7096     4.1406    -0.7090 N.2     
  10 N10            2.7098     3.8661    -1.4758 N.2     
  11 C11            3.1184     5.0129    -1.9749 C.2     
  12 N12            4.3811     5.2379    -1.5215 N.pl3   
  13 C13            5.1848     6.3340    -1.8051 C.2     
  14 N14            2.3951     5.8398    -2.8123 N.pl3   
  15 N15           -1.2109    -0.7022     0.0401 N.3     
  16 C16           -0.9680    -2.1469     0.1566 C.3     
  17 C17           -2.3077    -2.8809     0.2499 C.3     
  18 N18           -3.1125    -2.5796    -0.9422 N.3     
  19 C19           -3.3554    -1.1349    -1.0587 C.3     
  20 C20           -2.0157    -0.4009    -1.1520 C.3     
  21 C21           -4.3773    -3.3265    -0.9261 C.3     
  22 C22           -5.2741    -2.9029    -2.1293 C.3     
  23 C23           -4.3241    -2.9624    -3.3643 C.3     
  24 C24           -4.0624    -4.4700    -3.5837 C.3     
  25 C25           -4.1156    -4.8341    -1.1455 C.3     
  26 C26           -4.8790    -5.1794    -2.4606 C.3     
  27 C27           -6.1106    -4.2135    -2.3433 C.3     
  28 N28            6.3779     6.5073    -1.3532 N.2     
  29 C29            7.0349     7.6252    -1.7182 C.ar    
  30 C30            6.2816     8.4471    -2.5627 C.ar    
  31 S31            4.7202     7.6785    -2.8383 S.3     
  32 C32            8.3354     8.0416    -1.3626 C.ar    
  33 C33            8.8405     9.2251    -1.8384 C.ar    
  34 C34            8.0825    10.0311    -2.6750 C.ar    
  35 C35            6.8106     9.6454    -3.0356 C.ar    
  36 H36           -0.9579     1.9216    -0.1540 H       
  37 H37            1.2123    -1.7459     0.1969 H       
  38 H38            3.3311    -0.4947     0.1699 H       
  39 H39            1.1606     3.1732    -0.1768 H       
  40 H40            4.3595     1.7812     0.4474 H       
  41 H41            1.4976     5.5907    -3.0831 H       
  42 H42            2.7847     6.6694    -3.1297 H       
  43 H43           -0.4224    -2.4958    -0.7202 H       
  44 H44           -0.3811    -2.3458     1.0534 H       
  45 H45           -2.1307    -3.9549     0.3073 H       
  46 H46           -2.8413    -2.5518     1.1416 H       
  47 H47           -3.9423    -0.9360    -1.9555 H       
  48 H48           -3.9009    -0.7860    -0.1819 H       
  49 H49           -2.1926     0.6731    -1.2094 H       
  50 H50           -1.4820    -0.7300    -2.0437 H       
  51 H51           -4.9022    -3.1632     0.0151 H       
  52 H52           -5.8341    -1.9762    -2.0032 H       
  53 H53           -4.8101    -2.5299    -4.2388 H       
  54 H54           -3.3905    -2.4418    -3.1510 H       
  55 H55           -4.4198    -4.7787    -4.5661 H       
  56 H56           -3.0002    -4.6906    -3.4783 H       
  57 H57           -3.0485    -5.0211    -1.2653 H       
  58 H58           -4.5127    -5.4139    -0.3123 H       
  59 H59           -5.0949    -6.2354    -2.6230 H       
  60 H60           -6.7325    -4.4472    -1.4792 H       
  61 H61           -6.6935    -4.1808    -3.2637 H       
  62 H62            8.9370     7.4247    -0.7115 H       
  63 H63            9.8374     9.5323    -1.5587 H       
  64 H64            8.4898    10.9611    -3.0435 H       
  65 H65            6.2218    10.2739    -3.6873 H       
@<TRIPOS>BOND
   1    1    2 ar
   2    1    6 ar
   3    1   36 1
   4    2    3 ar
   5    2   15 1
   6    3    4 ar
   7    3   37 1
   8    4    5 ar
   9    4   38 1
  10    5    6 ar
  11    5    7 1
  12    6   39 1
  13    7    8 1
  14    7   40 1
  15    8    9 2
  16    8   10 1
  17    9   12 1
  18   10   11 2
  19   11   12 1
  20   11   14 1
  21   12   13 1
  22   13   28 2
  23   13   31 1
  24   14   41 1
  25   14   42 1
  26   15   16 1
  27   15   20 1
  28   16   17 1
  29   16   43 1
  30   16   44 1
  31   17   18 1
  32   17   45 1
  33   17   46 1
  34   18   19 1
  35   18   21 1
  36   19   20 1
  37   19   47 1
  38   19   48 1
  39   20   49 1
  40   20   50 1
  41   21   22 1
  42   21   25 1
  43   21   51 1
  44   22   23 1
  45   22   27 1
  46   22   52 1
  47   23   24 1
  48   23   53 1
  49   23   54 1
  50   24   26 1
  51   24   55 1
  52   24   56 1
  53   25   26 1
  54   25   57 1
  55   25   58 1
  56   26   27 1
  57   26   59 1
  58   27   60 1
  59   27   61 1
  60   28   29 1
  61   29   30 ar
  62   29   32 ar
  63   30   31 1
  64   30   35 ar
  65   32   33 ar
  66   32   62 1
  67   33   34 ar
  68   33   63 1
  69   34   35 ar
  70   34   64 1
  71   35   65 1

#	End of record

