#	Name: ASD10420041
#	Creating user name:	WinNT
#	Creation time:	15. 06. 2019 21:27

#	Modifying user name:	WinNT
#	Modification time:	15. 06. 2019 21:27

#	Program:	/corina/corina34_cracker 3.40 0067  02.08.2006

@<TRIPOS>MOLECULE
ASD10420041
  51   54    0    0    0
SMALL
NO_CHARGES


@<TRIPOS>ATOM
   1 C1             0.4065     0.6146    -0.2088 C.2     
   2 C2             0.0163    -0.7204    -0.1138 C.2     
   3 C3             1.0641    -1.4978    -0.5815 C.2     
   4 N4             2.0930    -0.6667    -0.9632 N.pl3   
   5 C5             3.3269    -0.9446    -1.4830 C.2     
   6 C6             4.1909     0.0419    -1.7895 C.2     
   7 C7             3.8306     1.3948    -1.5753 C.2     
   8 C8             2.5797     1.6837    -1.0480 C.2     
   9 C9             1.7088     0.6299    -0.7424 C.2     
  10 C10            1.0751    -2.9574    -0.6563 C.2     
  11 O11            0.0702    -3.5880    -0.3863 O.2     
  12 O12            2.1999    -3.6057    -1.0249 O.3     
  13 C13           -0.4006     1.7957     0.1739 C.ar    
  14 C14           -0.0348     2.5659     1.2780 C.ar    
  15 C15           -0.7906     3.6655     1.6293 C.ar    
  16 C16           -1.9094     4.0045     0.8894 C.ar    
  17 C17           -2.2776     3.2443    -0.2064 C.ar    
  18 C18           -1.5265     2.1460    -0.5715 C.ar    
  19 C19            4.7718     2.4816    -1.9076 C.2     
  20 O20            4.4537     3.6392    -1.7203 O.2     
  21 O21            5.9842     2.1902    -2.4187 O.3     
  22 C22            6.8582     3.3094    -2.7218 C.3     
  23 C23           -1.3051    -1.2266     0.4046 C.3     
  24 C24           -1.2369    -1.3651     1.9037 C.ar    
  25 C25           -1.9519    -0.5002     2.7106 C.ar    
  26 C26           -1.8894    -0.6279     4.0876 C.ar    
  27 C27           -1.1105    -1.6223     4.6550 C.ar    
  28 C28           -0.3966    -2.4859     3.8464 C.ar    
  29 C29           -0.4639    -2.3607     2.4710 C.ar    
  30 C30           -2.7988     0.5819     2.0915 C.3     
  31 F31           -2.5875     0.2173     4.8773 F       
  32 H32            3.6134    -1.9724    -1.6502 H       
  33 H33            5.1607    -0.1991    -2.1991 H       
  34 H34            2.2818     2.7073    -0.8752 H       
  35 H35            2.1103    -4.5683    -1.0453 H       
  36 H36            0.8379     2.3019     1.8568 H       
  37 H37           -0.5085     4.2626     2.4838 H       
  38 H38           -2.4980     4.8659     1.1685 H       
  39 H39           -3.1522     3.5137    -0.7798 H       
  40 H40           -1.8121     1.5562    -1.4299 H       
  41 H41            7.0528     3.8755    -1.8109 H       
  42 H42            7.7993     2.9364    -3.1258 H       
  43 H43            6.3785     3.9564    -3.4562 H       
  44 H44           -2.0932    -0.5216     0.1403 H       
  45 H45           -1.5221    -2.1977    -0.0405 H       
  46 H46           -1.0607    -1.7227     5.7292 H       
  47 H47            0.2110    -3.2615     4.2887 H       
  48 H48            0.0909    -3.0389     1.8397 H       
  49 H49           -3.7988     0.1942     1.8975 H       
  50 H50           -2.8635     1.4283     2.7752 H       
  51 H51           -2.3464     0.9057     1.1542 H       
@<TRIPOS>BOND
   1    1    2 1
   2    1    9 2
   3    1   13 1
   4    2    3 2
   5    2   23 1
   6    3    4 1
   7    3   10 1
   8    4    5 1
   9    4    9 1
  10    5    6 2
  11    5   32 1
  12    6    7 1
  13    6   33 1
  14    7    8 2
  15    7   19 1
  16    8    9 1
  17    8   34 1
  18   10   11 2
  19   10   12 1
  20   12   35 1
  21   13   14 ar
  22   13   18 ar
  23   14   15 ar
  24   14   36 1
  25   15   16 ar
  26   15   37 1
  27   16   17 ar
  28   16   38 1
  29   17   18 ar
  30   17   39 1
  31   18   40 1
  32   19   20 2
  33   19   21 1
  34   21   22 1
  35   22   41 1
  36   22   42 1
  37   22   43 1
  38   23   24 1
  39   23   44 1
  40   23   45 1
  41   24   25 ar
  42   24   29 ar
  43   25   26 ar
  44   25   30 1
  45   26   27 ar
  46   26   31 1
  47   27   28 ar
  48   27   46 1
  49   28   29 ar
  50   28   47 1
  51   29   48 1
  52   30   49 1
  53   30   50 1
  54   30   51 1

#	End of record

