#	Name: ASD14830002
#	Creating user name:	WinNT
#	Creation time:	15. 06. 2019 21:31

#	Modifying user name:	WinNT
#	Modification time:	15. 06. 2019 21:31

#	Program:	/corina/corina34_cracker 3.40 0067  02.08.2006

@<TRIPOS>MOLECULE
ASD14830002
  60   64    0    0    0
SMALL
NO_CHARGES


@<TRIPOS>ATOM
   1 C1            -0.0166     1.9362    -0.5911 C.ar    
   2 C2             0.0022     0.5830    -0.2560 C.ar    
   3 N3             1.1480    -0.0672    -0.1062 N.ar    
   4 C4             2.3091     0.5327    -0.2662 C.ar    
   5 C5             2.3665     1.8886    -0.6023 C.ar    
   6 C6             1.1661     2.6011    -0.7674 C.ar    
   7 C7             3.6622     2.5588    -0.7801 C.2     
   8 C8             4.8090     1.8647    -0.6189 C.2     
   9 C9             6.0981     2.5315    -0.7959 C.2     
  10 N10            7.2429     1.8387    -0.6350 N.am    
  11 O11            6.1374     3.7125    -1.0884 O.2     
  12 C12            8.5346     2.5068    -0.8123 C.3     
  13 C13            9.6647     1.5033    -0.5744 C.3     
  14 C14           11.0449     0.2156    -1.8592 C.ar    
  15 O15            9.7435     0.5594    -1.6557 O.3     
  16 C16           11.0420     2.2055    -0.6310 C.3     
  17 C17           11.9060     1.1471    -1.2896 C.ar    
  18 C18           12.9478    -1.0420    -2.6252 C.ar    
  19 C19           11.5827    -0.8852    -2.5269 C.ar    
  20 C20           13.2693     1.0000    -1.3854 C.ar    
  21 C21           13.8049    -0.1002    -2.0567 C.ar    
  22 C22           15.2736    -0.2666    -2.1642 C.ar    
  23 C23           15.8031    -1.3690    -2.8364 C.ar    
  24 C24           17.1669    -1.5247    -2.9364 C.ar    
  25 C25           18.0214    -0.5781    -2.3650 C.ar    
  26 C26           17.4902     0.5256    -1.6926 C.ar    
  27 C27           16.1261     0.6822    -1.5982 C.ar    
  28 C28           19.4850    -0.7444    -2.4714 C.2     
  29 O29           19.9476    -1.6204    -3.1761 O.2     
  30 N30           20.3077     0.0749    -1.7871 N.am    
  31 C31           21.7606     0.1967    -1.5943 C.3     
  32 N32           -1.1941    -0.0922    -0.0764 N.pl3   
  33 Cl33          10.5252    -2.0643    -3.2378 Cl      
  34 C34           20.1482     1.2445    -0.9099 C.3     
  35 C35           21.4710     0.8470    -0.2344 C.3     
  36 F36           21.3263    -0.0601     0.8208 F       
  37 F37           22.3060     1.9270     0.0715 F       
  38 H38           -0.9563     2.4538    -0.7147 H       
  39 H39            3.2239    -0.0267    -0.1367 H       
  40 H40            1.1772     3.6492    -1.0276 H       
  41 H41            3.6970     3.6066    -1.0397 H       
  42 H42            4.7741     0.8170    -0.3594 H       
  43 H43            7.2116     0.8976    -0.4019 H       
  44 H44            8.6045     2.8991    -1.8268 H       
  45 H45            8.6205     3.3266    -0.0991 H       
  46 H46            9.5309     0.9921     0.3790 H       
  47 H47           10.9951     3.1064    -1.2429 H       
  48 H48           11.4036     2.4354     0.3712 H       
  49 H49           13.3555    -1.8971    -3.1438 H       
  50 H50           13.9250     1.7348    -0.9421 H       
  51 H51           15.1424    -2.1004    -3.2779 H       
  52 H52           17.5765    -2.3783    -3.4560 H       
  53 H53           18.1499     1.2576    -1.2504 H       
  54 H54           15.7153     1.5375    -1.0824 H       
  55 H55           22.2702    -0.7637    -1.5164 H       
  56 H56           22.2378     0.8713    -2.3052 H       
  57 H57           -2.0365     0.3766    -0.1839 H       
  58 H58           -1.1893    -1.0337     0.1568 H       
  59 H59           20.2003     2.1952    -1.4404 H       
  60 H60           19.2840     1.1767    -0.2490 H       
@<TRIPOS>BOND
   1    1    2 ar
   2    1    6 ar
   3    1   38 1
   4    2    3 ar
   5    2   32 1
   6    3    4 ar
   7    4    5 ar
   8    4   39 1
   9    5    6 ar
  10    5    7 1
  11    6   40 1
  12    7    8 2
  13    7   41 1
  14    8    9 1
  15    8   42 1
  16    9   10 am
  17    9   11 2
  18   10   12 1
  19   10   43 1
  20   12   13 1
  21   12   44 1
  22   12   45 1
  23   13   16 1
  24   13   15 1
  25   13   46 1
  26   14   15 1
  27   14   17 ar
  28   14   19 ar
  29   16   17 1
  30   16   47 1
  31   16   48 1
  32   17   20 ar
  33   18   19 ar
  34   18   21 ar
  35   18   49 1
  36   19   33 1
  37   20   21 ar
  38   20   50 1
  39   21   22 1
  40   22   23 ar
  41   22   27 ar
  42   23   24 ar
  43   23   51 1
  44   24   25 ar
  45   24   52 1
  46   25   26 ar
  47   25   28 1
  48   26   27 ar
  49   26   53 1
  50   27   54 1
  51   28   29 2
  52   28   30 am
  53   30   31 1
  54   30   34 1
  55   31   35 1
  56   31   55 1
  57   31   56 1
  58   32   57 1
  59   32   58 1
  60   34   35 1
  61   34   59 1
  62   34   60 1
  63   35   36 1
  64   35   37 1

#	End of record

