#	Name: ASD13010018
#	Creating user name:	WinNT
#	Creation time:	15. 06. 2019 21:30

#	Modifying user name:	WinNT
#	Modification time:	15. 06. 2019 21:30

#	Program:	/corina/corina34_cracker 3.40 0067  02.08.2006

@<TRIPOS>MOLECULE
ASD13010018
  58   61    0    0    0
SMALL
NO_CHARGES


@<TRIPOS>ATOM
   1 C1            -0.0073     1.3624     0.0129 C.ar    
   2 C2             0.0063    -0.0002    -0.0023 C.ar    
   3 C3             1.2203    -0.7028    -0.0094 C.ar    
   4 C4             2.4272    -0.0113    -0.0006 C.ar    
   5 C5             1.1908     2.0754     0.0216 C.ar    
   6 N6             1.4927     3.4132     0.0364 N.pl3   
   7 C7             2.4178     1.3815     0.0150 C.ar    
   8 C8             3.4682     2.4043     0.0266 C.2     
   9 N9             2.8817     3.5730     0.0387 N.2     
  10 C10            0.5614     4.4502     0.0468 C.ar    
  11 S11            5.2057     2.1118     0.0252 S.3     
  12 C12            5.8816     3.7390     0.0428 C.ar    
  13 C13            6.1446     4.3969    -1.1527 C.ar    
  14 C14            6.1476     4.3697     1.2523 C.ar    
  15 C15            6.6773     5.6448     1.2622 C.ar    
  16 C16            6.9431     6.2943     0.0704 C.ar    
  17 C17            6.6743     5.6720    -1.1351 C.ar    
  18 C18           -1.2903     6.5121     0.0677 C.ar    
  19 C19           -1.5615     5.3337    -0.6347 C.ar    
  20 C20           -0.6397     4.3118    -0.6429 C.ar    
  21 C21            0.8322     5.6195     0.7517 C.ar    
  22 C22           -0.0851     6.6454     0.7642 C.ar    
  23 C23           -2.2754     7.6090     0.0788 C.2     
  24 O24           -3.3243     7.4898    -0.5229 O.2     
  25 O25           -2.0125     8.7439     0.7561 O.3     
  26 C26            1.2171    -2.1791    -0.0259 C.2     
  27 O27            0.3537    -2.7918     0.5718 O.2     
  28 N28            2.1713    -2.8475    -0.7036 N.am    
  29 C29            2.2435    -4.3082    -0.6179 C.3     
  30 C30            3.1362    -2.1134    -1.5258 C.3     
  31 C31            5.8525     3.7195    -2.4668 C.3     
  32 C32            5.8579     3.6630     2.5514 C.3     
  33 C33            7.5207     7.6861     0.0855 C.3     
  34 H34           -0.9488     1.8915     0.0137 H       
  35 H35           -0.9266    -0.5443    -0.0086 H       
  36 H36            3.3635    -0.5496    -0.0053 H       
  37 H37            6.8840     6.1357     2.2018 H       
  38 H38            6.8793     6.1837    -2.0638 H       
  39 H39           -2.4913     5.2275    -1.1736 H       
  40 H40           -0.8484     3.4016    -1.1855 H       
  41 H41            1.7630     5.7217     1.2898 H       
  42 H42            0.1276     7.5543     1.3074 H       
  43 H43           -2.6886     9.4349     0.7342 H       
  44 H44            1.6321    -4.7490    -1.4053 H       
  45 H45            3.2783    -4.6286    -0.7390 H       
  46 H46            1.8738    -4.6339     0.3545 H       
  47 H47            3.9658    -1.7802    -0.9022 H       
  48 H48            3.5130    -2.7658    -2.3135 H       
  49 H49            2.6479    -1.2479    -1.9736 H       
  50 H50            4.8329     3.9500    -2.7757 H       
  51 H51            6.5510     4.0773    -3.2232 H       
  52 H52            5.9624     2.6411    -2.3519 H       
  53 H53            6.7370     3.0981     2.8616 H       
  54 H54            5.6094     4.3978     3.3172 H       
  55 H55            5.0179     2.9819     2.4150 H       
  56 H56            8.6092     7.6278     0.0861 H       
  57 H57            7.1864     8.2279    -0.7993 H       
  58 H58            7.1844     8.2095     0.9805 H       
@<TRIPOS>BOND
   1    1    2 ar
   2    1    5 ar
   3    1   34 1
   4    2    3 ar
   5    2   35 1
   6    3    4 ar
   7    3   26 1
   8    4    7 ar
   9    4   36 1
  10    5    7 ar
  11    5    6 1
  12    6    9 1
  13    6   10 1
  14    7    8 1
  15    8    9 2
  16    8   11 1
  17   10   21 ar
  18   10   20 ar
  19   11   12 1
  20   12   14 ar
  21   12   13 ar
  22   13   17 ar
  23   13   31 1
  24   14   15 ar
  25   14   32 1
  26   15   16 ar
  27   15   37 1
  28   16   17 ar
  29   16   33 1
  30   17   38 1
  31   18   19 ar
  32   18   22 ar
  33   18   23 1
  34   19   20 ar
  35   19   39 1
  36   20   40 1
  37   21   22 ar
  38   21   41 1
  39   22   42 1
  40   23   24 2
  41   23   25 1
  42   25   43 1
  43   26   27 2
  44   26   28 am
  45   28   29 1
  46   28   30 1
  47   29   44 1
  48   29   45 1
  49   29   46 1
  50   30   47 1
  51   30   48 1
  52   30   49 1
  53   31   50 1
  54   31   51 1
  55   31   52 1
  56   32   53 1
  57   32   54 1
  58   32   55 1
  59   33   56 1
  60   33   57 1
  61   33   58 1

#	End of record

