#	Name: ASD11000004
#	Creating user name:	WinNT
#	Creation time:	15. 06. 2019 21:28

#	Modifying user name:	WinNT
#	Modification time:	15. 06. 2019 21:28

#	Program:	/corina/corina34_cracker 3.40 0067  02.08.2006

@<TRIPOS>MOLECULE
ASD11000004
  51   53    0    0    0
SMALL
NO_CHARGES


@<TRIPOS>ATOM
   1 C1            -0.0167     1.3829     0.0096 C.ar    
   2 C2             0.0021    -0.0041     0.0020 C.ar    
   3 C3             1.2143    -0.6805    -0.0139 C.ar    
   4 C4             2.3962     0.0370    -0.0221 C.ar    
   5 C5             2.3750     1.4081    -0.0132 C.ar    
   6 C6             1.1710     2.0902     0.0021 C.ar    
   7 C7             3.7173    -0.7036    -0.0416 C.3     
   8 C8             4.3895    -0.5316     1.3228 C.3     
   9 C9             5.1894     0.7551     1.3742 C.3     
  10 C10            4.3500     2.0169     1.3407 C.3     
  11 C11            3.6734     2.1883    -0.0206 C.3     
  12 N12            5.9872     0.7588     2.6076 N.3     
  13 C13            7.2549     0.0415     2.4168 C.3     
  14 C14            8.0564     0.0668     3.7199 C.3     
  15 C15            9.3767    -0.6803     3.5211 C.3     
  16 C16           10.1661    -0.6554     4.8045 C.ar    
  17 C17           10.0028    -1.6637     5.7361 C.ar    
  18 C18           10.7269    -1.6408     6.9134 C.ar    
  19 C19           11.6146    -0.6100     7.1590 C.ar    
  20 C20           11.7785     0.3977     6.2271 C.ar    
  21 C21           11.0576     0.3726     5.0478 C.ar    
  22 O22            4.5291     1.6858    -1.0488 O.3     
  23 O23           -1.1651    -0.7001     0.0106 O.3     
  24 C24           -2.3743     0.0611     0.0274 C.3     
  25 H25           -0.9592     1.9102     0.0170 H       
  26 H26            1.2340    -1.7603    -0.0195 H       
  27 H27            1.1593     3.1701     0.0085 H       
  28 H28            3.5411    -1.7622    -0.2323 H       
  29 H29            4.3579    -0.2896    -0.8203 H       
  30 H30            3.6244    -0.5090     2.0988 H       
  31 H31            5.0560    -1.3752     1.5026 H       
  32 H32            5.8725     0.7717     0.5249 H       
  33 H33            3.5855     1.9591     2.1156 H       
  34 H34            4.9899     2.8780     1.5337 H       
  35 H35            3.4656     3.2438    -0.1961 H       
  36 H36            6.1498     1.7009     2.9303 H       
  37 H37            7.0492    -0.9916     2.1367 H       
  38 H38            7.8303     0.5244     1.6270 H       
  39 H39            8.2621     1.0999     3.9999 H       
  40 H40            7.4810    -0.4162     4.5097 H       
  41 H41            9.1710    -1.7134     3.2410 H       
  42 H42            9.9521    -0.1974     2.7312 H       
  43 H43            9.3093    -2.4690     5.5442 H       
  44 H44           10.5988    -2.4282     7.6415 H       
  45 H45           12.1797    -0.5918     8.0791 H       
  46 H46           12.4718     1.2033     6.4191 H       
  47 H47           11.1857     1.1599     4.3198 H       
  48 H48            4.1611     1.7635    -1.9397 H       
  49 H49           -2.3987     0.6847     0.9210 H       
  50 H50           -2.4174     0.6943    -0.8588 H       
  51 H51           -3.2293    -0.6150     0.0327 H       
@<TRIPOS>BOND
   1    1    2 ar
   2    1    6 ar
   3    1   25 1
   4    2    3 ar
   5    2   23 1
   6    3    4 ar
   7    3   26 1
   8    4    5 ar
   9    4    7 1
  10    5    6 ar
  11    5   11 1
  12    6   27 1
  13    7    8 1
  14    7   28 1
  15    7   29 1
  16    8    9 1
  17    8   30 1
  18    8   31 1
  19    9   10 1
  20    9   12 1
  21    9   32 1
  22   10   11 1
  23   10   33 1
  24   10   34 1
  25   11   22 1
  26   11   35 1
  27   12   13 1
  28   12   36 1
  29   13   14 1
  30   13   37 1
  31   13   38 1
  32   14   15 1
  33   14   39 1
  34   14   40 1
  35   15   16 1
  36   15   41 1
  37   15   42 1
  38   16   17 ar
  39   16   21 ar
  40   17   18 ar
  41   17   43 1
  42   18   19 ar
  43   18   44 1
  44   19   20 ar
  45   19   45 1
  46   20   21 ar
  47   20   46 1
  48   21   47 1
  49   22   48 1
  50   23   24 1
  51   24   49 1
  52   24   50 1
  53   24   51 1

#	End of record

