#	Name: ASD10160207
#	Creating user name:	WinNT
#	Creation time:	15. 06. 2019 21:25

#	Modifying user name:	WinNT
#	Modification time:	15. 06. 2019 21:25

#	Program:	/corina/corina34_cracker 3.40 0067  02.08.2006

@<TRIPOS>MOLECULE
ASD10160207
  41   43    0    0    0
SMALL
NO_CHARGES


@<TRIPOS>ATOM
   1 C1            -0.0382     1.4700     0.0143 C.2     
   2 C2            -0.0129    -0.0043     0.0051 C.ar    
   3 C3             1.2026    -0.6847    -0.1326 C.ar    
   4 C4             1.2211    -2.0651    -0.1406 C.ar    
   5 C5             0.0367    -2.7778    -0.0124 C.ar    
   6 C6            -1.1745    -2.1047     0.1248 C.ar    
   7 C7            -1.2022    -0.7269     0.1397 C.ar    
   8 O8             0.9979     2.0967    -0.0979 O.2     
   9 N9            -1.2103     2.1231     0.1414 N.am    
  10 S10           -1.2388     3.7788     0.1517 S.o2    
  11 O11           -2.6111     4.1046     0.3245 O.2     
  12 O12           -0.2715     4.1399     1.1281 O.2     
  13 C13           -0.6763     4.2515    -1.5068 C.3     
  14 O14            0.0593    -4.1352    -0.0213 O.3     
  15 N15           -0.4615    -4.0565    -2.2644 N.ar    
  16 C16           -0.1516    -4.7675    -1.2018 C.ar    
  17 C17           -0.0340    -6.1618    -1.2606 C.ar    
  18 C18           -0.2426    -6.8120    -2.4402 C.ar    
  19 C19           -0.5743    -6.0449    -3.5754 C.ar    
  20 C20           -0.8028    -6.6486    -4.8213 C.ar    
  21 C21           -1.1219    -5.8750    -5.8962 C.ar    
  22 C22           -1.2245    -4.4915    -5.7751 C.ar    
  23 C23           -1.0091    -3.8733    -4.5812 C.ar    
  24 C24           -0.6779    -4.6378    -3.4498 C.ar    
  25 C25            0.3232    -6.9420    -0.0218 C.3     
  26 F26           -2.3240    -2.8036     0.2487 F       
  27 F27            2.3556     0.0082    -0.2578 F       
  28 H28            2.1582    -2.5912    -0.2472 H       
  29 H29           -2.1418    -0.2061     0.2507 H       
  30 H30           -2.0372     1.6232     0.2269 H       
  31 H31           -1.3551     3.8375    -2.2524 H       
  32 H32           -0.6640     5.3382    -1.5903 H       
  33 H33            0.3282     3.8629    -1.6743 H       
  34 H34           -0.1556    -7.8866    -2.5036 H       
  35 H35           -0.7259    -7.7206    -4.9276 H       
  36 H36           -1.2973    -6.3406    -6.8548 H       
  37 H37           -1.4784    -3.8994    -6.6419 H       
  38 H38           -1.0929    -2.7994    -4.5041 H       
  39 H39           -0.5882    -7.2240     0.5054 H       
  40 H40            0.8724    -7.8403    -0.3038 H       
  41 H41            0.9438    -6.3262     0.6292 H       
@<TRIPOS>BOND
   1    1    2 1
   2    1    8 2
   3    1    9 am
   4    2    3 ar
   5    2    7 ar
   6    3    4 ar
   7    3   27 1
   8    4    5 ar
   9    4   28 1
  10    5    6 ar
  11    5   14 1
  12    6    7 ar
  13    6   26 1
  14    7   29 1
  15    9   10 am
  16    9   30 1
  17   10   11 2
  18   10   12 2
  19   10   13 1
  20   13   31 1
  21   13   32 1
  22   13   33 1
  23   14   16 1
  24   15   16 ar
  25   15   24 ar
  26   16   17 ar
  27   17   18 ar
  28   17   25 1
  29   18   19 ar
  30   18   34 1
  31   19   20 ar
  32   19   24 ar
  33   20   21 ar
  34   20   35 1
  35   21   22 ar
  36   21   36 1
  37   22   23 ar
  38   22   37 1
  39   23   24 ar
  40   23   38 1
  41   25   39 1
  42   25   40 1
  43   25   41 1

#	End of record

