#	Name: ASD10610044
#	Creating user name:	WinNT
#	Creation time:	15. 06. 2019 21:27

#	Modifying user name:	WinNT
#	Modification time:	15. 06. 2019 21:27

#	Program:	/corina/corina34_cracker 3.40 0067  02.08.2006

@<TRIPOS>MOLECULE
ASD10610044
  60   65    0    0    0
SMALL
NO_CHARGES


@<TRIPOS>ATOM
   1 O1             1.5639    -2.4255    -3.1722 O.3     
   2 C2             0.8922    -2.1815    -2.0279 C.2     
   3 N3             1.5639    -1.2658    -1.3690 N.2     
   4 N4             2.6073    -0.9375    -2.0467 N.2     
   5 C5             2.6400    -1.6279    -3.1577 C.2     
   6 C6            -0.3637    -2.8236    -1.5975 C.2     
   7 O7            -0.8906    -3.6622    -2.3029 O.2     
   8 N8            -0.9274    -2.4808    -0.4223 N.am    
   9 C9            -2.2295    -3.0361    -0.0449 C.3     
  10 C10           -2.3117    -4.5452     0.1935 C.3     
  11 C11           -2.3807    -3.5787     1.3776 C.3     
  12 C12           -3.4273    -2.3633    -0.6644 C.2     
  13 N13           -3.4230    -1.0305    -0.8644 N.am    
  14 O14           -4.3951    -3.0212    -0.9829 O.2     
  15 C15           -4.6263    -0.3609    -1.3644 C.3     
  16 C16           -4.6296     1.1225    -0.9387 C.3     
  17 C17           -3.9594     1.8149    -2.1442 C.3     
  18 C18           -4.2411     0.9123    -3.3266 C.ar    
  19 C19           -4.1667     1.1674    -4.6836 C.ar    
  20 C20           -4.4769     0.1664    -5.6007 C.ar    
  21 C21           -4.8629    -1.0929    -5.1435 C.ar    
  22 C22           -4.9346    -1.3376    -3.7888 C.ar    
  23 C23           -4.6247    -0.3390    -2.8784 C.ar    
  24 C24           -4.3975     0.4385    -7.0558 C.ar    
  25 C25           -3.6961    -0.4371    -7.9002 C.ar    
  26 C26           -3.6285    -0.1703    -9.2671 C.ar    
  27 C27           -4.2507     0.9519    -9.7832 C.ar    
  28 C28           -4.9419     1.8142    -8.9489 C.ar    
  29 C29           -5.0225     1.5599    -7.5926 C.ar    
  30 O30           -2.3858    -3.0328    -5.9592 O.3     
  31 N31           -3.0161    -2.0042    -6.0855 N.2     
  32 C32           -3.0309    -1.6378    -7.3416 C.2     
  33 N33           -2.3255    -2.5609    -8.0347 N.2     
  34 C34           -1.9242    -3.4362    -7.1471 C.2     
  35 C35           -1.0969    -4.6670    -7.4146 C.3     
  36 F36           -2.9554    -1.0071   -10.0868 F       
  37 Cl37          -5.7173     3.2191    -9.6111 Cl      
  38 C38            3.6979    -1.5418    -4.2276 C.3     
  39 H39           -0.4710    -1.8665     0.1737 H       
  40 H40           -3.2322    -5.0513    -0.0973 H       
  41 H41           -1.3970    -5.1248     0.0696 H       
  42 H42           -1.5113    -3.5226     2.0327 H       
  43 H43           -3.3466    -3.4490     1.8658 H       
  44 H44           -2.6232    -0.5145    -0.6774 H       
  45 H45           -5.5205    -0.8625    -0.9944 H       
  46 H46           -5.6488     1.4840    -0.8018 H       
  47 H47           -4.0412     1.2669    -0.0326 H       
  48 H48           -4.3981     2.7994    -2.3069 H       
  49 H49           -2.8850     1.9010    -1.9816 H       
  50 H50           -3.8672     2.1445    -5.0328 H       
  51 H51           -5.1054    -1.8742    -5.8486 H       
  52 H52           -5.2340    -2.3129    -3.4345 H       
  53 H53           -4.1968     1.1569   -10.8422 H       
  54 H54           -5.5671     2.2343    -6.9484 H       
  55 H55           -0.9224    -5.1980    -6.4788 H       
  56 H56           -1.6285    -5.3184    -8.1083 H       
  57 H57           -0.1414    -4.3749    -7.8502 H       
  58 H58            3.4140    -0.7853    -4.9591 H       
  59 H59            4.6513    -1.2697    -3.7748 H       
  60 H60            3.7934    -2.5082    -4.7227 H       
@<TRIPOS>BOND
   1    1    2 1
   2    1    5 1
   3    2    3 2
   4    2    6 1
   5    3    4 1
   6    4    5 2
   7    5   38 1
   8    6    7 2
   9    6    8 am
  10    8    9 1
  11    8   39 1
  12    9   10 1
  13    9   11 1
  14    9   12 1
  15   10   11 1
  16   10   40 1
  17   10   41 1
  18   11   42 1
  19   11   43 1
  20   12   13 am
  21   12   14 2
  22   13   15 1
  23   13   44 1
  24   15   16 1
  25   15   23 1
  26   15   45 1
  27   16   17 1
  28   16   46 1
  29   16   47 1
  30   17   18 1
  31   17   48 1
  32   17   49 1
  33   18   19 ar
  34   18   23 ar
  35   19   20 ar
  36   19   50 1
  37   20   21 ar
  38   20   24 1
  39   21   22 ar
  40   21   51 1
  41   22   23 ar
  42   22   52 1
  43   24   25 ar
  44   24   29 ar
  45   25   26 ar
  46   25   32 1
  47   26   27 ar
  48   26   36 1
  49   27   28 ar
  50   27   53 1
  51   28   29 ar
  52   28   37 1
  53   29   54 1
  54   30   31 1
  55   30   34 1
  56   31   32 2
  57   32   33 1
  58   33   34 2
  59   34   35 1
  60   35   55 1
  61   35   56 1
  62   35   57 1
  63   38   58 1
  64   38   59 1
  65   38   60 1

#	End of record

