#	Name: ASD11000282
#	Creating user name:	WinNT
#	Creation time:	15. 06. 2019 21:29

#	Modifying user name:	WinNT
#	Modification time:	15. 06. 2019 21:29

#	Program:	/corina/corina34_cracker 3.40 0067  02.08.2006

@<TRIPOS>MOLECULE
ASD11000282
  39   40    0    0    0
SMALL
NO_CHARGES


@<TRIPOS>ATOM
   1 C1            -0.0162     1.3209     0.0161 C.ar    
   2 N2             0.0013    -0.0046     0.0212 N.ar    
   3 C3             1.1483    -0.6685     0.0135 C.ar    
   4 C4             2.3560     0.0598    -0.0003 C.ar    
   5 C5             2.2846     1.4581    -0.0052 C.ar    
   6 N6             1.0997     2.0396     0.0032 N.ar    
   7 C7             3.6549    -0.6307    -0.0088 C.2     
   8 O8             3.6975    -1.8454    -0.0040 O.2     
   9 O9             4.7979     0.0837    -0.0220 O.3     
  10 O10            1.1606    -2.0212     0.0192 O.3     
  11 C11           -0.1067    -2.6814     0.0338 C.3     
  12 N12           -1.2320     1.9737     0.0186 N.pl3   
  13 C13           -1.2775     3.3687     0.1321 C.ar    
  14 C14           -2.2586     4.0885    -0.5370 C.ar    
  15 C15           -2.3027     5.4641    -0.4246 C.ar    
  16 C16           -1.3673     6.1269     0.3564 C.ar    
  17 C17           -0.3869     5.4086     1.0250 C.ar    
  18 C18           -0.3449     4.0325     0.9182 C.ar    
  19 O19           -1.4112     7.4816     0.4662 O.3     
  20 C20           -0.4172     8.0985     1.2868 C.3     
  21 F21           -0.5240     7.6117     2.5941 F       
  22 F22            0.8535     7.8033     0.7816 F       
  23 C23            6.0425    -0.6640    -0.0298 C.3     
  24 C24            7.2224     0.3099    -0.0444 C.3     
  25 H25            3.1863     2.0525    -0.0154 H       
  26 H26           -0.6581    -2.3897     0.9276 H       
  27 H27           -0.6745    -2.3974    -0.8523 H       
  28 H28            0.0459    -3.7606     0.0370 H       
  29 H29           -2.0551     1.4663    -0.0583 H       
  30 H30           -2.9867     3.5726    -1.1453 H       
  31 H31           -3.0655     6.0241    -0.9451 H       
  32 H32            0.3412     5.9254     1.6326 H       
  33 H33            0.4157     3.4730     1.4424 H       
  34 H34           -0.5659     9.1783     1.2879 H       
  35 H35            6.0973    -1.2877     0.8625 H       
  36 H36            6.0815    -1.2954    -0.9174 H       
  37 H37            7.1677     0.9337    -0.9366 H       
  38 H38            7.1834     0.9413     0.8432 H       
  39 H39            8.1568    -0.2514    -0.0502 H       
@<TRIPOS>BOND
   1    1    2 ar
   2    1    6 ar
   3    1   12 1
   4    2    3 ar
   5    3    4 ar
   6    3   10 1
   7    4    5 ar
   8    4    7 1
   9    5    6 ar
  10    5   25 1
  11    7    8 2
  12    7    9 1
  13    9   23 1
  14   10   11 1
  15   11   26 1
  16   11   27 1
  17   11   28 1
  18   12   13 1
  19   12   29 1
  20   13   14 ar
  21   13   18 ar
  22   14   15 ar
  23   14   30 1
  24   15   16 ar
  25   15   31 1
  26   16   17 ar
  27   16   19 1
  28   17   18 ar
  29   17   32 1
  30   18   33 1
  31   19   20 1
  32   20   21 1
  33   20   22 1
  34   20   34 1
  35   23   24 1
  36   23   35 1
  37   23   36 1
  38   24   37 1
  39   24   38 1
  40   24   39 1

#	End of record

