#	Name: ASD10160291
#	Creating user name:	WinNT
#	Creation time:	15. 06. 2019 21:25

#	Modifying user name:	WinNT
#	Modification time:	15. 06. 2019 21:25

#	Program:	/corina/corina34_cracker 3.40 0067  02.08.2006

@<TRIPOS>MOLECULE
ASD10160291
  51   53    0    0    0
SMALL
NO_CHARGES


@<TRIPOS>ATOM
   1 C1            -0.3986     1.1092    -1.9427 C.2     
   2 C2            -0.2787    -0.2692    -1.4374 C.ar    
   3 C3             0.9057    -0.9897    -1.6362 C.ar    
   4 C4             1.0132    -2.2808    -1.1603 C.ar    
   5 C5            -0.0506    -2.8649    -0.4856 C.ar    
   6 C6            -1.2303    -2.1519    -0.2857 C.ar    
   7 C7            -1.3453    -0.8608    -0.7523 C.ar    
   8 O8             0.5310     1.6230    -2.5332 O.2     
   9 O9            -1.5413     1.7986    -1.7551 O.3     
  10 F10           -2.2620    -2.7258     0.3711 F       
  11 F11            1.9410    -0.4222    -2.2929 F       
  12 O12            0.0593    -4.1350    -0.0197 O.3     
  13 C13            1.5477    -5.5224    -1.2590 C.ar    
  14 C14            1.2624    -4.7570    -0.1397 C.ar    
  15 C15            2.2229    -4.6323     0.8604 C.ar    
  16 C16            3.4341    -5.2829     0.6957 C.ar    
  17 C17            3.6488    -6.0331    -0.4541 C.ar    
  18 N18            2.7130    -6.1289    -1.3831 N.ar    
  19 O19            4.8331    -6.6746    -0.6257 O.3     
  20 C20            4.9936    -7.4298    -1.8282 C.3     
  21 C21            6.3804    -8.0758    -1.8435 C.3     
  22 C22            6.6106    -9.0124    -3.0413 C.3     
  23 C23            8.0334    -8.4341    -3.1194 C.3     
  24 C24            7.4738    -7.1735    -2.4394 C.3     
  25 F25            8.9636    -9.1269    -2.3371 F       
  26 F26            8.4781    -8.2147    -4.4276 F       
  27 Cl27           4.6689    -5.1623     1.9100 Cl      
  28 C28           -1.5886     3.1517    -2.2797 C.3     
  29 C29           -1.3719     3.1194    -3.7940 C.3     
  30 C30           -2.9540     3.7702    -1.9730 C.3     
  31 C31           -0.4898     3.9912    -1.6251 C.3     
  32 H32            1.9258    -2.8377    -1.3132 H       
  33 H33           -2.2589    -0.3074    -0.5928 H       
  34 H34            0.8060    -5.6275    -2.0369 H       
  35 H35            2.0280    -4.0419     1.7435 H       
  36 H36            4.2304    -8.2066    -1.8740 H       
  37 H37            4.8912    -6.7687    -2.6888 H       
  38 H38            6.6519    -8.5181    -0.8849 H       
  39 H39            6.5829   -10.0702    -2.7800 H       
  40 H40            5.9938    -8.7730    -3.9075 H       
  41 H41            7.0930    -6.4314    -3.1411 H       
  42 H42            8.1430    -6.7468    -1.6923 H       
  43 H43           -2.1547     2.5213    -4.2604 H       
  44 H44           -1.4074     4.1351    -4.1878 H       
  45 H45           -0.3992     2.6787    -4.0125 H       
  46 H46           -3.1084     3.7932    -0.8943 H       
  47 H47           -2.9895     4.7859    -2.3669 H       
  48 H48           -3.7368     3.1721    -2.4394 H       
  49 H49            0.4830     3.5506    -1.8436 H       
  50 H50           -0.5253     5.0070    -2.0189 H       
  51 H51           -0.6442     4.0142    -0.5463 H       
@<TRIPOS>BOND
   1    1    2 1
   2    1    8 2
   3    1    9 1
   4    2    3 ar
   5    2    7 ar
   6    3    4 ar
   7    3   11 1
   8    4    5 ar
   9    4   32 1
  10    5    6 ar
  11    5   12 1
  12    6    7 ar
  13    6   10 1
  14    7   33 1
  15    9   28 1
  16   12   14 1
  17   13   14 ar
  18   13   18 ar
  19   13   34 1
  20   14   15 ar
  21   15   16 ar
  22   15   35 1
  23   16   17 ar
  24   16   27 1
  25   17   18 ar
  26   17   19 1
  27   19   20 1
  28   20   21 1
  29   20   36 1
  30   20   37 1
  31   21   22 1
  32   21   24 1
  33   21   38 1
  34   22   23 1
  35   22   39 1
  36   22   40 1
  37   23   24 1
  38   23   25 1
  39   23   26 1
  40   24   41 1
  41   24   42 1
  42   28   29 1
  43   28   31 1
  44   28   30 1
  45   29   43 1
  46   29   44 1
  47   29   45 1
  48   30   46 1
  49   30   47 1
  50   30   48 1
  51   31   49 1
  52   31   50 1
  53   31   51 1

#	End of record

