#	Name: ASD10410028
#	Creating user name:	WinNT
#	Creation time:	15. 06. 2019 21:26

#	Modifying user name:	WinNT
#	Modification time:	15. 06. 2019 21:26

#	Program:	/corina/corina34_cracker 3.40 0067  02.08.2006

@<TRIPOS>MOLECULE
ASD10410028
  68   71    0    0    0
SMALL
NO_CHARGES


@<TRIPOS>ATOM
   1 C1            -0.1724     0.5486     0.4771 C.3     
   2 C2            -0.5863    -0.7154    -0.2314 C.ar    
   3 C3             1.2127     0.3755     1.0451 C.ar    
   4 N4             2.2773     0.5978     0.2925 N.ar    
   5 C5             1.3864    -0.0131     2.3645 C.ar    
   6 C6             2.6772    -0.1607     2.8472 C.ar    
   7 N7             3.6987     0.0721     2.0396 N.ar    
   8 C8             3.4983     0.4476     0.7850 C.ar    
   9 N9             4.5911     0.6826    -0.0333 N.pl3   
  10 C10            5.8853     0.6086     0.4905 C.ar    
  11 C11            6.9186     0.0883    -0.2783 C.ar    
  12 C12            8.1959     0.0171     0.2419 C.ar    
  13 C13            8.4467     0.4627     1.5268 C.ar    
  14 C14            7.4202     0.9809     2.2950 C.ar    
  15 C15            6.1418     1.0606     1.7786 C.ar    
  16 C16            9.8417     0.3830     2.0913 C.3     
  17 N17           10.5664     1.6230     1.7827 N.3     
  18 C18           11.8400     1.6844     2.5133 C.3     
  19 C19           12.5989     2.9493     2.1049 C.3     
  20 N20           11.7715     4.1288     2.3946 N.3     
  21 C21           10.4979     4.0674     1.6640 C.3     
  22 C22            9.7391     2.8025     2.0724 C.3     
  23 C23           12.4962     5.3688     2.0860 C.3     
  24 C24           -1.8710    -0.8297    -0.7643 C.ar    
  25 C25            0.3058    -1.7602    -0.3594 C.ar    
  26 C26           -0.0725    -2.9210    -1.0098 C.ar    
  27 C27           -1.3466    -3.0428    -1.5360 C.ar    
  28 C28           -2.2466    -2.0041    -1.4190 C.ar    
  29 C29           -2.8304     0.2879    -0.6357 C.2     
  30 O30           -2.9927     0.8286     0.4407 O.2     
  31 N31           -3.5248     0.7071    -1.7120 N.am    
  32 C32           -4.4003     1.8772    -1.6086 C.3     
  33 C33           -3.4041    -0.0072    -2.9854 C.3     
  34 C34            0.1976    -0.2689     3.2546 C.3     
  35 F35            0.6374    -0.7431     4.4951 F       
  36 F36           -0.5138     0.9219     3.4361 F       
  37 F37           -0.6343    -1.2230     2.6589 F       
  38 H38           -0.1742     1.3785    -0.2296 H       
  39 H39           -0.8729     0.7582     1.2854 H       
  40 H40            2.8469    -0.4618     3.8704 H       
  41 H41            4.4584     0.8984    -0.9696 H       
  42 H42            6.7232    -0.2605    -1.2815 H       
  43 H43            8.9998    -0.3873    -0.3553 H       
  44 H44            7.6193     1.3274     3.2983 H       
  45 H45            5.3406     1.4657     2.3789 H       
  46 H46            9.7894     0.2522     3.1721 H       
  47 H47           10.3654    -0.4638     1.6477 H       
  48 H48           11.6436     1.7083     3.5852 H       
  49 H49           12.4400     0.8068     2.2727 H       
  50 H50           13.5307     3.0117     2.6670 H       
  51 H51           12.8192     2.9127     1.0381 H       
  52 H52            9.8980     4.9450     1.9047 H       
  53 H53           10.6943     4.0435     0.5921 H       
  54 H54            8.8073     2.7401     1.5103 H       
  55 H55            9.5188     2.8391     3.1393 H       
  56 H56           12.7633     5.3802     1.0293 H       
  57 H57           11.8611     6.2260     2.3095 H       
  58 H58           13.4019     5.4202     2.6903 H       
  59 H59            1.3018    -1.6713     0.0487 H       
  60 H60            0.6297    -3.7357    -1.1077 H       
  61 H61           -1.6355    -3.9515    -2.0432 H       
  62 H62           -3.2406    -2.1004    -1.8301 H       
  63 H63           -3.8346     2.7768    -1.8507 H       
  64 H64           -5.2314     1.7719    -2.3060 H       
  65 H65           -4.7865     1.9533    -0.5921 H       
  66 H66           -4.0957    -0.8497    -2.9963 H       
  67 H67           -3.6430     0.6696    -3.8057 H       
  68 H68           -2.3839    -0.3730    -3.1015 H       
@<TRIPOS>BOND
   1    1    2 1
   2    1    3 1
   3    1   38 1
   4    1   39 1
   5    2   24 ar
   6    2   25 ar
   7    3    4 ar
   8    3    5 ar
   9    4    8 ar
  10    5    6 ar
  11    5   34 1
  12    6    7 ar
  13    6   40 1
  14    7    8 ar
  15    8    9 1
  16    9   10 1
  17    9   41 1
  18   10   11 ar
  19   10   15 ar
  20   11   12 ar
  21   11   42 1
  22   12   13 ar
  23   12   43 1
  24   13   14 ar
  25   13   16 1
  26   14   15 ar
  27   14   44 1
  28   15   45 1
  29   16   17 1
  30   16   46 1
  31   16   47 1
  32   17   18 1
  33   17   22 1
  34   18   19 1
  35   18   48 1
  36   18   49 1
  37   19   20 1
  38   19   50 1
  39   19   51 1
  40   20   21 1
  41   20   23 1
  42   21   22 1
  43   21   52 1
  44   21   53 1
  45   22   54 1
  46   22   55 1
  47   23   56 1
  48   23   57 1
  49   23   58 1
  50   24   29 1
  51   24   28 ar
  52   25   26 ar
  53   25   59 1
  54   26   27 ar
  55   26   60 1
  56   27   28 ar
  57   27   61 1
  58   28   62 1
  59   29   30 2
  60   29   31 am
  61   31   32 1
  62   31   33 1
  63   32   63 1
  64   32   64 1
  65   32   65 1
  66   33   66 1
  67   33   67 1
  68   33   68 1
  69   34   35 1
  70   34   36 1
  71   34   37 1

#	End of record

