#	Name: ASD13490074
#	Creating user name:	WinNT
#	Creation time:	15. 06. 2019 21:30

#	Modifying user name:	WinNT
#	Modification time:	15. 06. 2019 21:30

#	Program:	/corina/corina34_cracker 3.40 0067  02.08.2006

@<TRIPOS>MOLECULE
ASD13490074
  49   53    0    0    0
SMALL
NO_CHARGES


@<TRIPOS>ATOM
   1 C1            -0.0166     1.3758     0.0096 C.ar    
   2 C2             0.0021    -0.0041     0.0020 C.ar    
   3 C3             1.2250    -0.6991    -0.0134 C.ar    
   4 C4             2.4258     0.0060    -0.0212 C.ar    
   5 C5             2.4060     1.3989    -0.0135 C.ar    
   6 N6             1.4631     3.4370     0.0070 N.pl3   
   7 C7             1.1769     2.0904     0.0020 C.ar    
   8 C8             3.4524     2.4232    -0.0172 C.2     
   9 C9             2.8272     3.6255    -0.0044 C.2     
  10 C10            3.5061     4.9393    -0.0029 C.2     
  11 C11            2.8970     6.1593     0.0098 C.2     
  12 N12            3.8896     7.0859     0.0062 N.pl3   
  13 N13            4.8424     5.1464    -0.0080 N.2     
  14 C14            6.4105     7.1288    -0.0092 C.3     
  15 C15            5.0749     6.4221    -0.0068 C.2     
  16 C16            3.7808     8.5478     0.0135 C.3     
  17 C17            5.1378     9.1292    -0.4054 C.3     
  18 O18            6.1824     8.5000     0.3419 O.3     
  19 C19            7.3262     6.4929     1.0048 C.ar    
  20 C20            8.0688     5.3786     0.6622 C.ar    
  21 C21            8.9102     4.7950     1.5938 C.ar    
  22 C22            9.0068     5.3284     2.8681 C.ar    
  23 C23            8.2635     6.4424     3.2083 C.ar    
  24 C24            7.4274     7.0276     2.2754 C.ar    
  25 C25            1.2350    -2.1311    -0.0207 C.1     
  26 N26            1.2429    -3.2670    -0.0265 N.1     
  27 O27           -1.1669    -0.6949     0.0100 O.3     
  28 C28           -2.3731     0.0711     0.0261 C.3     
  29 C29            7.9621     4.7990    -0.7248 C.3     
  30 F30            9.6361     3.7056     1.2601 F       
  31 H31           -0.9598     1.9020     0.0169 H       
  32 H32            3.3668    -0.5239    -0.0327 H       
  33 H33            0.8024     4.1472     0.0169 H       
  34 H34            4.5189     2.2531    -0.0278 H       
  35 H35            1.8342     6.3509     0.0205 H       
  36 H36            6.8583     7.0684    -1.0011 H       
  37 H37            3.0118     8.8631    -0.6917 H       
  38 H38            3.5261     8.8929     1.0155 H       
  39 H39            5.2955     8.9521    -1.4693 H       
  40 H40            5.1483    10.2018    -0.2114 H       
  41 H41            9.6626     4.8737     3.5958 H       
  42 H42            8.3387     6.8586     4.2021 H       
  43 H43            6.8502     7.9010     2.5409 H       
  44 H44           -3.2307    -0.6017     0.0310 H       
  45 H45           -2.3955     0.6948     0.9197 H       
  46 H46           -2.4132     0.7044    -0.8601 H       
  47 H47            8.7038     5.2669    -1.3721 H       
  48 H48            8.1413     3.7246    -0.6843 H       
  49 H49            6.9641     4.9863    -1.1211 H       
@<TRIPOS>BOND
   1    1    2 ar
   2    1    7 ar
   3    1   31 1
   4    2    3 ar
   5    2   27 1
   6    3    4 ar
   7    3   25 1
   8    4    5 ar
   9    4   32 1
  10    5    8 1
  11    5    7 ar
  12    6    7 1
  13    6    9 1
  14    6   33 1
  15    8    9 2
  16    8   34 1
  17    9   10 1
  18   10   11 2
  19   10   13 1
  20   11   12 1
  21   11   35 1
  22   12   16 1
  23   12   15 1
  24   13   15 2
  25   14   15 1
  26   14   18 1
  27   14   19 1
  28   14   36 1
  29   16   17 1
  30   16   37 1
  31   16   38 1
  32   17   18 1
  33   17   39 1
  34   17   40 1
  35   19   20 ar
  36   19   24 ar
  37   20   21 ar
  38   20   29 1
  39   21   22 ar
  40   21   30 1
  41   22   23 ar
  42   22   41 1
  43   23   24 ar
  44   23   42 1
  45   24   43 1
  46   25   26 3
  47   27   28 1
  48   28   44 1
  49   28   45 1
  50   28   46 1
  51   29   47 1
  52   29   48 1
  53   29   49 1

#	End of record

