#	Name: ASD10220174
#	Creating user name:	WinNT
#	Creation time:	15. 06. 2019 21:26

#	Modifying user name:	WinNT
#	Modification time:	15. 06. 2019 21:26

#	Program:	/corina/corina34_cracker 3.40 0067  02.08.2006

@<TRIPOS>MOLECULE
ASD10220174
  32   34    0    0    0
SMALL
NO_CHARGES


@<TRIPOS>ATOM
   1 C1            -0.0036     1.4395    -0.1853 C.ar    
   2 C2             0.0266     0.0562    -0.3320 C.ar    
   3 C3            -1.1454    -0.6693    -0.3892 C.ar    
   4 C4            -2.3707    -0.0203    -0.3004 C.ar    
   5 C5            -2.4011     1.3738    -0.1521 C.ar    
   6 C6            -1.2160     2.1003    -0.0896 C.ar    
   7 O7            -3.6478    -0.4571    -0.3258 O.3     
   8 C8            -4.5122     0.5567    -0.2041 C.2     
   9 C9            -3.8327     1.7322    -0.0906 C.2     
  10 C10           -4.4052     3.0772     0.0618 C.2     
  11 O11           -3.6757     4.0293     0.2677 O.2     
  12 C12           -5.8652     3.2733    -0.0349 C.ar    
  13 C13           -6.4791     4.3202     0.6584 C.ar    
  14 C14           -7.8410     4.4999     0.5652 C.ar    
  15 C15           -8.6054     3.6416    -0.2168 C.ar    
  16 C16           -7.9987     2.5989    -0.9077 C.ar    
  17 C17           -6.6366     2.4161    -0.8247 C.ar    
  18 O18            1.1595     2.1424    -0.1303 O.3     
  19 Cl19           1.5525    -0.7639    -0.4445 Cl      
  20 Cl20          -1.2581     3.8260     0.0940 Cl      
  21 O21           -9.9475     3.8219    -0.3057 O.3     
  22 C22          -10.6724     2.9038    -1.1266 C.3     
  23 H23           -1.1104    -1.7426    -0.5036 H       
  24 H24           -5.5876     0.4582    -0.1975 H       
  25 H25           -5.8860     4.9870     1.2668 H       
  26 H26           -8.3161     5.3086     1.1007 H       
  27 H27           -8.5962     1.9338    -1.5136 H       
  28 H28           -6.1660     1.6057    -1.3617 H       
  29 H29            1.4813     2.4385    -0.9928 H       
  30 H30          -10.5375     1.8914    -0.7460 H       
  31 H31          -11.7318     3.1600    -1.1101 H       
  32 H32          -10.3010     2.9599    -2.1498 H       
@<TRIPOS>BOND
   1    1    2 ar
   2    1   18 1
   3    1    6 ar
   4    2    3 ar
   5    2   19 1
   6    3    4 ar
   7    3   23 1
   8    4    5 ar
   9    4    7 1
  10    5    6 ar
  11    5    9 1
  12    6   20 1
  13    7    8 1
  14    8    9 2
  15    8   24 1
  16    9   10 1
  17   10   11 2
  18   10   12 1
  19   12   13 ar
  20   12   17 ar
  21   13   14 ar
  22   13   25 1
  23   14   15 ar
  24   14   26 1
  25   15   16 ar
  26   15   21 1
  27   16   17 ar
  28   16   27 1
  29   17   28 1
  30   18   29 1
  31   21   22 1
  32   22   30 1
  33   22   31 1
  34   22   32 1

#	End of record

