#	Name: ASD10410285
#	Creating user name:	WinNT
#	Creation time:	15. 06. 2019 21:27

#	Modifying user name:	WinNT
#	Modification time:	15. 06. 2019 21:27

#	Program:	/corina/corina34_cracker 3.40 0067  02.08.2006

@<TRIPOS>MOLECULE
ASD10410285
  79   86    0    0    0
SMALL
NO_CHARGES


@<TRIPOS>ATOM
   1 C1             1.0056    -0.6311    -0.2902 C.ar    
   2 C2            -0.0689     0.1197     0.1739 C.ar    
   3 N3             0.0844     1.3951     0.4931 N.ar    
   4 C4             1.2514     2.0014     0.3852 C.ar    
   5 C5             2.3672     1.3158    -0.0710 C.ar    
   6 C6             2.2444    -0.0291    -0.4163 C.ar    
   7 N7             3.6025     1.9666    -0.1832 N.pl3   
   8 C8             4.7859     1.2554     0.0144 C.2     
   9 N9             5.9968     1.7302    -0.1543 N.2     
  10 N10            4.8689    -0.0197     0.4123 N.2     
  11 C11            6.1327    -0.3760     0.4969 C.2     
  12 N12            6.8906     0.6908     0.1498 N.pl3   
  13 N13            6.6032    -1.6184     0.8769 N.pl3   
  14 C14            8.2843     0.7463     0.1031 C.ar    
  15 C15            8.9318     1.8992    -0.2684 C.ar    
  16 N16            9.0232    -0.3178     0.4235 N.ar    
  17 N17           10.3067    -0.3080     0.3939 N.ar    
  18 C18           11.0126     0.7692     0.0390 C.ar    
  19 C19           10.3244     1.9125    -0.3023 C.ar    
  20 N20           -1.3208    -0.4770     0.3041 N.3     
  21 C21           -2.3124     0.4839     0.8072 C.3     
  22 C22           -3.6872    -0.1867     0.8603 C.3     
  23 N23           -3.6185    -1.3710     1.7276 N.3     
  24 C24           -2.6268    -2.3318     1.2245 C.3     
  25 C25           -1.2521    -1.6613     1.1714 C.3     
  26 C26           -4.9387    -2.0003     1.8649 C.3     
  27 C27           -4.7882    -3.3550     2.5599 C.3     
  28 C28           10.9070     3.2356    -0.7325 C.3     
  29 C29           10.3880     4.3057     0.2436 C.3     
  30 C30            8.8600     4.2927     0.2869 C.3     
  31 C31            8.3046     3.2133    -0.6621 C.3     
  32 C32            8.8000     3.5528    -2.0786 C.3     
  33 C33           10.3277     3.5643    -2.1194 C.3     
  34 C34           12.4953     0.7368     0.0187 C.ar    
  35 C35           -4.7142     0.7985     1.4221 C.3     
  36 C36           -6.0686    -4.1192     2.9028 C.3     
  37 C37           -5.1702    -4.6041     1.7632 C.3     
  38 C38           13.2438     1.7938     0.5447 C.ar    
  39 C39           14.6214     1.7227     0.5059 C.ar    
  40 N40           15.2310     0.6766    -0.0178 N.ar    
  41 C41           14.5622    -0.3413    -0.5244 C.ar    
  42 C42           13.1823    -0.3541    -0.5215 C.ar    
  43 H43            0.8754    -1.6726    -0.5448 H       
  44 H44            1.3385     3.0436     0.6550 H       
  45 H45            3.0965    -0.5879    -0.7741 H       
  46 H46            3.6349     2.9119    -0.3982 H       
  47 H47            5.9788    -2.3227     1.1112 H       
  48 H48            7.5581    -1.7862     0.9094 H       
  49 H49           -2.0279     0.8099     1.8076 H       
  50 H50           -2.3538     1.3460     0.1415 H       
  51 H51           -3.9837    -0.4883    -0.1443 H       
  52 H52           -2.5855    -3.1939     1.8902 H       
  53 H53           -2.9113    -2.6578     0.2241 H       
  54 H54           -0.5204    -2.3631     0.7712 H       
  55 H55           -0.9555    -1.3597     2.1760 H       
  56 H56           -5.5878    -1.3572     2.4592 H       
  57 H57           -5.3766    -2.1453     0.8773 H       
  58 H58           -3.9520    -3.4368     3.2543 H       
  59 H59           11.9965     3.2036    -0.7412 H       
  60 H60           10.7785     4.1036     1.2410 H       
  61 H61           10.7310     5.2877    -0.0824 H       
  62 H62            8.5300     4.0839     1.3045 H       
  63 H63            8.4825     5.2687    -0.0181 H       
  64 H64            7.2170     3.1630    -0.6101 H       
  65 H65            8.4263     2.8065    -2.7796 H       
  66 H66            8.4231     4.5342    -2.3666 H       
  67 H67           10.6716     4.5512    -2.4289 H       
  68 H68           10.6739     2.8230    -2.8395 H       
  69 H69           -4.7635     1.6777     0.7796 H       
  70 H70           -5.6932     0.3207     1.4598 H       
  71 H71           -4.4176     1.0990     2.4270 H       
  72 H72           -6.0746    -4.7041     3.8226 H       
  73 H73           -7.0182    -3.6569     2.6332 H       
  74 H74           -5.5288    -4.4607     0.7438 H       
  75 H75           -4.5852    -5.5079     1.9332 H       
  76 H76           12.7513     2.6534     0.9746 H       
  77 H77           15.2083     2.5346     0.9095 H       
  78 H78           15.1019    -1.1778    -0.9433 H       
  79 H79           12.6412    -1.1908    -0.9380 H       
@<TRIPOS>BOND
   1    1    2 ar
   2    1    6 ar
   3    1   43 1
   4    2    3 ar
   5    2   20 1
   6    3    4 ar
   7    4    5 ar
   8    4   44 1
   9    5    6 ar
  10    5    7 1
  11    6   45 1
  12    7    8 1
  13    7   46 1
  14    8    9 2
  15    8   10 1
  16    9   12 1
  17   10   11 2
  18   11   12 1
  19   11   13 1
  20   12   14 1
  21   13   47 1
  22   13   48 1
  23   14   15 ar
  24   14   16 ar
  25   15   19 ar
  26   15   31 1
  27   16   17 ar
  28   17   18 ar
  29   18   19 ar
  30   18   34 1
  31   19   28 1
  32   20   21 1
  33   20   25 1
  34   21   22 1
  35   21   49 1
  36   21   50 1
  37   22   23 1
  38   22   35 1
  39   22   51 1
  40   23   24 1
  41   23   26 1
  42   24   25 1
  43   24   52 1
  44   24   53 1
  45   25   54 1
  46   25   55 1
  47   26   27 1
  48   26   56 1
  49   26   57 1
  50   27   36 1
  51   27   37 1
  52   27   58 1
  53   28   29 1
  54   28   33 1
  55   28   59 1
  56   29   30 1
  57   29   60 1
  58   29   61 1
  59   30   31 1
  60   30   62 1
  61   30   63 1
  62   31   32 1
  63   31   64 1
  64   32   33 1
  65   32   65 1
  66   32   66 1
  67   33   67 1
  68   33   68 1
  69   34   38 ar
  70   34   42 ar
  71   35   69 1
  72   35   70 1
  73   35   71 1
  74   36   37 1
  75   36   72 1
  76   36   73 1
  77   37   74 1
  78   37   75 1
  79   38   39 ar
  80   38   76 1
  81   39   40 ar
  82   39   77 1
  83   40   41 ar
  84   41   42 ar
  85   41   78 1
  86   42   79 1

#	End of record

