#	Name: ASD13490019
#	Creating user name:	WinNT
#	Creation time:	15. 06. 2019 21:30

#	Modifying user name:	WinNT
#	Modification time:	15. 06. 2019 21:30

#	Program:	/corina/corina34_cracker 3.40 0067  02.08.2006

@<TRIPOS>MOLECULE
ASD13490019
  51   55    0    0    0
SMALL
NO_CHARGES


@<TRIPOS>ATOM
   1 C1             0.0026     1.3715    -0.0815 C.ar    
   2 C2             0.0017    -0.0032     0.0823 C.ar    
   3 C3             1.1597    -0.6535     0.5036 C.ar    
   4 C4             2.3108     0.0766     0.7582 C.ar    
   5 C5             2.3106     1.4483     0.5950 C.ar    
   6 C6             1.1577     2.0994     0.1746 C.ar    
   7 N7             1.1609    -2.0484     0.6708 N.pl3   
   8 C8             2.0802    -2.9280     0.1620 C.2     
   9 C9             1.7046    -4.1585     0.5614 C.2     
  10 N10            0.5877    -4.0352     1.2936 N.2     
  11 C11            0.2585    -2.7740     1.3690 C.2     
  12 C12            2.4153    -5.4483     0.2415 C.3     
  13 O13           -1.1276    -0.7176    -0.1673 O.3     
  14 C14           -2.2774     0.0150    -0.5955 C.3     
  15 N15            1.1600     3.4874     0.0092 N.pl3   
  16 C16            2.3568     4.2002     0.1071 C.2     
  17 C17            3.4415     3.9004    -0.7526 C.2     
  18 C18            2.4930     5.1991     1.0296 C.2     
  19 C19            3.7032     5.9059     1.1139 C.2     
  20 C20            4.7285     5.6039     0.2905 C.2     
  21 C21            4.8183     3.1226    -2.2416 C.2     
  22 N22            3.5869     3.0087    -1.7208 N.2     
  23 N23            4.6076     4.6108    -0.6422 N.pl3   
  24 C24            5.4713     4.1191    -1.5800 C.2     
  25 C25            5.3737     2.3041    -3.3480 C.ar    
  26 C26            4.5960     1.3120    -3.9417 C.ar    
  27 C27            5.1162     0.5536    -4.9704 C.ar    
  28 C28            6.4099     0.7771    -5.4128 C.ar    
  29 C29            7.1866     1.7624    -4.8254 C.ar    
  30 C30            6.6724     2.5293    -3.8000 C.ar    
  31 F31            6.9156     0.0316    -6.4197 F       
  32 H32           -0.8927     1.8770    -0.4122 H       
  33 H33            3.2083    -0.4277     1.0848 H       
  34 H34            3.2080     2.0152     0.7942 H       
  35 H35            2.9402    -2.6820    -0.4433 H       
  36 H36           -0.5945    -2.3766     1.8990 H       
  37 H37            3.1552    -5.6569     1.0143 H       
  38 H38            1.6913    -6.2622     0.2026 H       
  39 H39            2.9136    -5.3588    -0.7239 H       
  40 H40           -2.5526     0.7396     0.1708 H       
  41 H41           -2.0500     0.5374    -1.5247 H       
  42 H42           -3.1065    -0.6734    -0.7592 H       
  43 H43            0.3302     3.9554    -0.1735 H       
  44 H44            1.6742     5.4437     1.6900 H       
  45 H45            3.8139     6.6962     1.8416 H       
  46 H46            5.6538     6.1557     0.3657 H       
  47 H47            6.4809     4.4565    -1.7625 H       
  48 H48            3.5876     1.1367    -3.5969 H       
  49 H49            4.5140    -0.2155    -5.4311 H       
  50 H50            8.1948     1.9331    -5.1730 H       
  51 H51            7.2772     3.3000    -3.3453 H       
@<TRIPOS>BOND
   1    1    2 ar
   2    1    6 ar
   3    1   32 1
   4    2    3 ar
   5    2   13 1
   6    3    4 ar
   7    3    7 1
   8    4    5 ar
   9    4   33 1
  10    5    6 ar
  11    5   34 1
  12    6   15 1
  13    7    8 1
  14    7   11 1
  15    8    9 2
  16    8   35 1
  17    9   10 1
  18    9   12 1
  19   10   11 2
  20   11   36 1
  21   12   37 1
  22   12   38 1
  23   12   39 1
  24   13   14 1
  25   14   40 1
  26   14   41 1
  27   14   42 1
  28   15   16 1
  29   15   43 1
  30   16   18 2
  31   16   17 1
  32   17   23 1
  33   17   22 2
  34   18   19 1
  35   18   44 1
  36   19   20 2
  37   19   45 1
  38   20   23 1
  39   20   46 1
  40   21   22 1
  41   21   24 2
  42   21   25 1
  43   23   24 1
  44   24   47 1
  45   25   26 ar
  46   25   30 ar
  47   26   27 ar
  48   26   48 1
  49   27   28 ar
  50   27   49 1
  51   28   29 ar
  52   28   31 1
  53   29   30 ar
  54   29   50 1
  55   30   51 1

#	End of record

