#	Name: ASD11920063
#	Creating user name:	WinNT
#	Creation time:	15. 06. 2019 21:29

#	Modifying user name:	WinNT
#	Modification time:	15. 06. 2019 21:29

#	Program:	/corina/corina34_cracker 3.40 0067  02.08.2006

@<TRIPOS>MOLECULE
ASD11920063
  62   64    0    0    0
SMALL
NO_CHARGES


@<TRIPOS>ATOM
   1 C1            -0.7433     2.0039    -2.0499 C.3     
   2 C2            -4.2090    -8.2784    -6.4113 C.3     
   3 C3            -3.5379   -10.6715    -6.1566 C.3     
   4 C4             1.5701    -6.2974    -3.0619 C.1     
   5 C5            -2.2033    -8.8749    -5.0462 C.3     
   6 C6             0.4851    -4.3920    -1.9622 C.ar    
   7 C7            -0.6520    -3.6929    -1.6302 C.ar    
   8 C8            -2.0087    -5.3184    -2.7856 C.ar    
   9 C9            -2.2882    -7.5790    -4.2372 C.3     
  10 C10           -5.9491     2.3439     3.6554 C.3     
  11 C11           -8.2058     1.8044     3.0607 C.3     
  12 C12           -4.9896     2.0440    -0.5843 C.3     
  13 C13           -5.6962     2.8911     2.2481 C.3     
  14 C14           -7.9758     2.3462     1.6474 C.3     
  15 C15           -6.3062     2.6404    -0.0827 C.3     
  16 C16           -3.6106    -9.3132    -5.4563 C.3     
  17 C17            0.3882    -5.5674    -2.7141 C.ar    
  18 N18            2.5076    -6.8765    -3.3379 N.1     
  19 N19           -1.8932    -1.4076    -1.9315 N.ar    
  20 N20           -4.0692    -1.3868    -1.1800 N.ar    
  21 N21           -2.9145     0.5876    -1.4173 N.ar    
  22 N22           -3.0497    -3.4381    -1.6986 N.pl3   
  23 O23           -0.7196     0.5805    -2.1738 O.3     
  24 O24           -7.3368     2.4815     3.9727 O.3     
  25 O25           -0.9737    -7.1696    -3.8542 O.3     
  26 O26           -5.1087     0.6219    -0.6589 O.3     
  27 C27           -1.9019    -4.1519    -2.0395 C.ar    
  28 C28           -3.0033    -2.0604    -1.6020 C.ar    
  29 C29           -1.8497    -0.0842    -1.8389 C.ar    
  30 C30           -4.0240    -0.0637    -1.0880 C.ar    
  31 C31           -0.8714    -6.0293    -3.1256 C.ar    
  32 N32           -6.5589     2.1838     1.2905 N.3     
  33 H33            0.2226     2.4107    -2.3492 H       
  34 H34           -1.5240     2.4115    -2.6920 H       
  35 H35           -0.9465     2.2751    -1.0139 H       
  36 H36           -5.2117    -8.5906    -6.7034 H       
  37 H37           -4.2608    -7.3107    -5.9123 H       
  38 H38           -3.5810    -8.1966    -7.2984 H       
  39 H39           -2.9099   -10.5898    -7.0437 H       
  40 H40           -3.1116   -11.4087    -5.4763 H       
  41 H41           -4.5405   -10.9838    -6.4488 H       
  42 H42           -1.6004    -8.7073    -5.9386 H       
  43 H43           -1.7431    -9.6534    -4.4378 H       
  44 H44            1.4528    -4.0308    -1.6466 H       
  45 H45           -0.5756    -2.7852    -1.0498 H       
  46 H46           -2.9798    -5.6710    -3.1002 H       
  47 H47           -2.7483    -6.8004    -4.8456 H       
  48 H48           -2.8910    -7.7466    -3.3448 H       
  49 H49           -5.6701     1.2909     3.6920 H       
  50 H50           -5.3536     2.9042     4.3762 H       
  51 H51           -9.2425     1.9746     3.3515 H       
  52 H52           -7.9924     0.7357     3.0801 H       
  53 H53           -4.7639     2.4421    -1.5736 H       
  54 H54           -4.1864     2.3056     0.1046 H       
  55 H55           -5.9245     3.9567     2.2254 H       
  56 H56           -4.6512     2.7363     1.9797 H       
  57 H57           -8.5948     1.7936     0.9406 H       
  58 H58           -8.2405     3.4031     1.6151 H       
  59 H59           -6.2413     3.7284    -0.0976 H       
  60 H60           -7.1216     2.3162    -0.7292 H       
  61 H61           -4.2387    -9.3949    -4.5692 H       
  62 H62           -3.8809    -3.9084    -1.5291 H       
@<TRIPOS>BOND
   1    1   23 1
   2    1   33 1
   3    1   34 1
   4    1   35 1
   5    2   16 1
   6    2   36 1
   7    2   37 1
   8    2   38 1
   9    3   16 1
  10    3   39 1
  11    3   40 1
  12    3   41 1
  13    4   17 1
  14    4   18 3
  15    5    9 1
  16    5   16 1
  17    5   42 1
  18    5   43 1
  19    6    7 ar
  20    6   17 ar
  21    6   44 1
  22    7   27 ar
  23    7   45 1
  24    8   27 ar
  25    8   31 ar
  26    8   46 1
  27    9   25 1
  28    9   47 1
  29    9   48 1
  30   10   13 1
  31   10   24 1
  32   10   49 1
  33   10   50 1
  34   11   14 1
  35   11   24 1
  36   11   51 1
  37   11   52 1
  38   12   15 1
  39   12   26 1
  40   12   53 1
  41   12   54 1
  42   13   32 1
  43   13   55 1
  44   13   56 1
  45   14   32 1
  46   14   57 1
  47   14   58 1
  48   15   32 1
  49   15   59 1
  50   15   60 1
  51   16   61 1
  52   17   31 ar
  53   19   28 ar
  54   19   29 ar
  55   20   28 ar
  56   20   30 ar
  57   21   29 ar
  58   21   30 ar
  59   22   27 1
  60   22   28 1
  61   22   62 1
  62   23   29 1
  63   25   31 1
  64   26   30 1

#	End of record

