#	Name: ASD11000049
#	Creating user name:	WinNT
#	Creation time:	15. 06. 2019 21:28

#	Modifying user name:	WinNT
#	Modification time:	15. 06. 2019 21:28

#	Program:	/corina/corina34_cracker 3.40 0067  02.08.2006

@<TRIPOS>MOLECULE
ASD11000049
  33   35    0    0    0
SMALL
NO_CHARGES


@<TRIPOS>ATOM
   1 C1            -0.0167     1.3806     0.0096 C.ar    
   2 C2             0.0021    -0.0041     0.0020 C.ar    
   3 C3            -1.1810    -0.7126     0.0091 C.ar    
   4 C4            -2.3995    -0.0309     0.0243 C.ar    
   5 C5            -2.4118     1.3653     0.0324 C.ar    
   6 C6            -1.2219     2.0624     0.0306 C.ar    
   7 C7            -3.6707    -0.7839     0.0315 C.2     
   8 O8            -3.6571    -1.9995     0.0240 O.2     
   9 N9            -4.8452    -0.1231     0.0462 N.am    
  10 C10           -6.0368    -0.8290     0.0529 C.2     
  11 C11           -7.2768    -0.2575     0.0677 C.2     
  12 C12           -8.3624    -1.2346     0.0718 C.2     
  13 C13           -7.9176    -2.4877     0.0601 C.2     
  14 S14           -6.1548    -2.5256     0.0364 S.3     
  15 C15           -7.4963     1.1901     0.0789 C.2     
  16 O16           -7.5863     1.8496     1.2521 O.3     
  17 O17           -7.5974     1.7980    -0.9698 O.2     
  18 Br18           1.6102     2.3444    -0.0007 Br      
  19 C19           -9.8883    -1.2163     0.0861 C.3     
  20 C20          -10.3063    -2.6299    -0.3660 C.3     
  21 C21           -9.0851    -3.4672     0.0644 C.3     
  22 H22            0.9452    -0.5301    -0.0098 H       
  23 H23           -1.1651    -1.7925     0.0024 H       
  24 H24           -3.3511     1.8982     0.0442 H       
  25 H25           -1.2300     3.1423     0.0372 H       
  26 H26           -4.8560     0.8468     0.0522 H       
  27 H27           -7.7315     2.8046     1.2089 H       
  28 H28          -10.2557    -1.0161     1.0926 H       
  29 H29          -10.2650    -0.4684    -0.6116 H       
  30 H30          -11.2067    -2.9561     0.1546 H       
  31 H31          -10.4458    -2.6692    -1.4463 H       
  32 H32           -8.9072    -4.2724    -0.6484 H       
  33 H33           -9.2367    -3.8722     1.0650 H       
@<TRIPOS>BOND
   1    1    2 ar
   2    1   18 1
   3    1    6 ar
   4    2    3 ar
   5    2   22 1
   6    3    4 ar
   7    3   23 1
   8    4    5 ar
   9    4    7 1
  10    5    6 ar
  11    5   24 1
  12    6   25 1
  13    7    8 2
  14    7    9 am
  15    9   10 1
  16    9   26 1
  17   10   11 2
  18   10   14 1
  19   11   12 1
  20   11   15 1
  21   12   13 2
  22   12   19 1
  23   13   14 1
  24   13   21 1
  25   15   16 1
  26   15   17 2
  27   16   27 1
  28   19   20 1
  29   19   28 1
  30   19   29 1
  31   20   21 1
  32   20   30 1
  33   20   31 1
  34   21   32 1
  35   21   33 1

#	End of record

