#	Name: ASD10160416
#	Creating user name:	WinNT
#	Creation time:	15. 06. 2019 21:25

#	Modifying user name:	WinNT
#	Modification time:	15. 06. 2019 21:25

#	Program:	/corina/corina34_cracker 3.40 0067  02.08.2006

@<TRIPOS>MOLECULE
ASD10160416
  37   38    0    0    0
SMALL
NO_CHARGES


@<TRIPOS>ATOM
   1 C1            -0.3993     1.1088    -1.9440 C.2     
   2 C2            -0.2792    -0.2696    -1.4385 C.ar    
   3 C3             0.9052    -0.9903    -1.6376 C.ar    
   4 C4             1.0123    -2.2812    -1.1613 C.ar    
   5 C5            -0.0519    -2.8645    -0.4860 C.ar    
   6 C6            -1.2305    -2.1513    -0.2863 C.ar    
   7 C7            -1.3453    -0.8609    -0.7530 C.ar    
   8 O8             0.5301     1.6224    -2.5350 O.2     
   9 O9            -1.5419     1.7983    -1.7561 O.3     
  10 F10            1.9404    -0.4232    -2.2949 F       
  11 O11            0.0574    -4.1342    -0.0197 O.3     
  12 C12            1.5457    -5.5230    -1.2594 C.ar    
  13 C13            1.2599    -4.7568    -0.1396 C.ar    
  14 C14            2.2205    -4.6332     0.8596 C.ar    
  15 C15            3.4318    -5.2855     0.6934 C.ar    
  16 C16            3.6447    -6.0338    -0.4541 C.ar    
  17 N17            2.7107    -6.1290    -1.3822 N.ar    
  18 F18            4.8225    -6.6733    -0.6247 F       
  19 Cl19           4.6677    -5.1666     1.9068 Cl      
  20 Cl20          -2.5559    -2.8878     0.5589 Cl      
  21 C21           -1.5894     3.1512    -2.2810 C.3     
  22 C22           -1.3733     3.1186    -3.7953 C.3     
  23 C23           -2.9546     3.7698    -1.9739 C.3     
  24 C24           -0.4902     3.9909    -1.6270 C.3     
  25 H25            1.9247    -2.8386    -1.3142 H       
  26 H26           -2.2590    -0.3076    -0.5935 H       
  27 H27            0.8044    -5.6282    -2.0377 H       
  28 H28            2.0269    -4.0428     1.7430 H       
  29 H29           -2.1564     2.5204    -4.2613 H       
  30 H30           -1.4089     4.1342    -4.1894 H       
  31 H31           -0.4007     2.6778    -4.0141 H       
  32 H32           -3.1085     3.7931    -0.8951 H       
  33 H33           -2.9902     4.7855    -2.3680 H       
  34 H34           -3.7377     3.1717    -2.4398 H       
  35 H35            0.4824     3.5501    -1.8458 H       
  36 H36           -0.5258     5.0065    -2.0211 H       
  37 H37           -0.6441     4.0141    -0.5482 H       
@<TRIPOS>BOND
   1    1    2 1
   2    1    8 2
   3    1    9 1
   4    2    3 ar
   5    2    7 ar
   6    3    4 ar
   7    3   10 1
   8    4    5 ar
   9    4   25 1
  10    5    6 ar
  11    5   11 1
  12    6    7 ar
  13    6   20 1
  14    7   26 1
  15    9   21 1
  16   11   13 1
  17   12   13 ar
  18   12   17 ar
  19   12   27 1
  20   13   14 ar
  21   14   15 ar
  22   14   28 1
  23   15   16 ar
  24   15   19 1
  25   16   17 ar
  26   16   18 1
  27   21   22 1
  28   21   24 1
  29   21   23 1
  30   22   29 1
  31   22   30 1
  32   22   31 1
  33   23   32 1
  34   23   33 1
  35   23   34 1
  36   24   35 1
  37   24   36 1
  38   24   37 1

#	End of record

