#	Name: ASD16910001
#	Creating user name:	WinNT
#	Creation time:	15. 06. 2019 21:31

#	Modifying user name:	WinNT
#	Modification time:	15. 06. 2019 21:31

#	Program:	/corina/corina34_cracker 3.40 0067  02.08.2006

@<TRIPOS>MOLECULE
ASD16910001
  83   88    0    0    0
SMALL
NO_CHARGES


@<TRIPOS>ATOM
   1 C1            -0.1957     1.7231     0.1185 C.ar    
   2 C2             0.1154     0.3618     0.1014 C.ar    
   3 C3             1.4420    -0.0167     0.1279 C.ar    
   4 C4             2.1519     2.1876     0.1828 C.ar    
   5 C5            -0.9776    -0.6746     0.0555 C.3     
   6 C6            -1.6248    -0.7827     1.4121 C.2     
   7 C7            -2.6245    -1.3915    -1.5316 C.3     
   8 C8             2.5719     7.1494    -0.6630 C.3     
   9 C9            -1.5986    -2.2677    -2.2532 C.3     
  10 C10            1.4226     6.3503    -0.0454 C.3     
  11 C11           -1.4538     2.3563    -2.4022 C.3     
  12 C12           -2.2234     2.4869    -1.1131 C.ar    
  13 C13           -1.6066     2.1793     0.0969 C.ar    
  14 C14           -2.3209     2.3014     1.2878 C.ar    
  15 C15           -3.6333     2.7239     1.2597 C.ar    
  16 C16           -4.2494     3.0287     0.0463 C.ar    
  17 C17           -3.5373     2.9170    -1.1362 C.ar    
  18 C18           -4.1643     3.2546    -2.4655 C.3     
  19 C19           -5.6886     3.2700    -2.3275 C.3     
  20 C20           -6.0519     4.1051    -1.0930 C.3     
  21 O21           -5.5472     3.4308     0.0642 O.3     
  22 F22           -4.3259     2.8427     2.4136 F       
  23 C23            0.8563     2.6480     0.1624 C.ar    
  24 N24            2.4003     0.8856     0.1663 N.ar    
  25 O25           -2.7729    -0.4380     1.5629 O.2     
  26 O26           -0.9256    -1.2618     2.4530 O.3     
  27 O27           -1.9579    -0.2905    -0.9107 O.3     
  28 C28           -3.6461    -0.8652    -2.5418 C.3     
  29 C29           -3.3427    -2.2203    -0.4647 C.3     
  30 C30            1.7986    -1.4809     0.1131 C.3     
  31 C31            3.3229     3.1377     0.2207 C.3     
  32 C32            2.8547     4.5259     0.6573 C.3     
  33 N33            1.7020     4.9136    -0.1714 N.3     
  34 C34            0.5261     4.1156     0.1914 C.3     
  35 C35            2.2546     8.0143    -1.8845 C.3     
  36 C36            2.5249     8.6729    -0.5294 C.3     
  37 C37            1.3500     9.2714     0.2004 C.ar    
  38 C38            0.0656     9.0552    -0.2627 C.ar    
  39 C39           -1.0120     9.6042     0.4067 C.ar    
  40 C40           -0.8053    10.3691     1.5395 C.ar    
  41 C41            0.4790    10.5845     2.0031 C.ar    
  42 C42            1.5564    10.0319     1.3362 C.ar    
  43 H43           -0.5523    -1.6391    -0.2221 H       
  44 H44            3.5506     6.6709    -0.6256 H       
  45 H45           -2.1071    -3.1075    -2.7268 H       
  46 H46           -1.0870    -1.6773    -3.0132 H       
  47 H47           -0.8709    -2.6427    -1.5335 H       
  48 H48            1.3245     6.6103     1.0086 H       
  49 H49            0.4947     6.5869    -0.5660 H       
  50 H50           -1.6551     1.3824    -2.8484 H       
  51 H51           -1.7628     3.1424    -3.0911 H       
  52 H52           -0.3869     2.4496    -2.1995 H       
  53 H53           -1.8479     2.0655     2.2297 H       
  54 H54           -3.8195     4.2363    -2.7902 H       
  55 H55           -3.8745     2.5067    -3.2036 H       
  56 H56           -6.1335     3.7163    -3.2169 H       
  57 H57           -6.0566     2.2516    -2.2035 H       
  58 H58           -5.6039     5.0954    -1.1749 H       
  59 H59           -7.1354     4.1968    -1.0177 H       
  60 H60           -1.3833    -1.3123     3.3033 H       
  61 H61           -4.3770    -0.2410    -2.0277 H       
  62 H62           -3.1345    -0.2747    -3.3018 H       
  63 H63           -4.1546    -1.7050    -3.0154 H       
  64 H64           -2.6149    -2.5952     0.2549 H       
  65 H65           -4.0736    -1.5961     0.0493 H       
  66 H66           -3.8512    -3.0601    -0.9383 H       
  67 H67            1.8127    -1.8410    -0.9156 H       
  68 H68            2.7830    -1.6196     0.5601 H       
  69 H69            1.0581    -2.0409     0.6841 H       
  70 H70            4.0662     2.7678     0.9270 H       
  71 H71            3.7692     3.2017    -0.7716 H       
  72 H72            2.5592     4.4995     1.7061 H       
  73 H73            3.6637     5.2440     0.5229 H       
  74 H74           -0.2786     4.3180    -0.5154 H       
  75 H75            0.1988     4.3915     1.1938 H       
  76 H76            3.0246     8.1051    -2.6507 H       
  77 H77            1.2270     8.0143    -2.2481 H       
  78 H78            3.4726     9.1966    -0.4045 H       
  79 H79           -0.0959     8.4576    -1.1477 H       
  80 H80           -2.0155     9.4359     0.0445 H       
  81 H81           -1.6472    10.7986     2.0621 H       
  82 H82            0.6406    11.1823     2.8879 H       
  83 H83            2.5596    10.1971     1.7005 H       
@<TRIPOS>BOND
   1    1    2 ar
   2    1   23 ar
   3    1   13 1
   4    2    3 ar
   5    2    5 1
   6    3   30 1
   7    3   24 ar
   8    4   24 ar
   9    4   31 1
  10    4   23 ar
  11    5   27 1
  12    5   43 1
  13    5    6 1
  14    6   25 2
  15    6   26 1
  16    7   29 1
  17    7    9 1
  18    7   27 1
  19    7   28 1
  20    8   10 1
  21    8   44 1
  22    8   36 1
  23    8   35 1
  24    9   45 1
  25    9   46 1
  26    9   47 1
  27   10   48 1
  28   10   49 1
  29   10   33 1
  30   11   12 1
  31   11   50 1
  32   11   51 1
  33   11   52 1
  34   12   13 ar
  35   12   17 ar
  36   13   14 ar
  37   14   53 1
  38   14   15 ar
  39   15   22 1
  40   15   16 ar
  41   16   17 ar
  42   16   21 1
  43   17   18 1
  44   18   19 1
  45   18   54 1
  46   18   55 1
  47   19   20 1
  48   19   56 1
  49   19   57 1
  50   20   21 1
  51   20   58 1
  52   20   59 1
  53   23   34 1
  54   26   60 1
  55   28   61 1
  56   28   62 1
  57   28   63 1
  58   29   64 1
  59   29   65 1
  60   29   66 1
  61   30   67 1
  62   30   68 1
  63   30   69 1
  64   31   32 1
  65   31   70 1
  66   31   71 1
  67   32   72 1
  68   32   73 1
  69   32   33 1
  70   33   34 1
  71   34   74 1
  72   34   75 1
  73   35   36 1
  74   35   76 1
  75   35   77 1
  76   36   37 1
  77   36   78 1
  78   37   42 ar
  79   37   38 ar
  80   38   39 ar
  81   38   79 1
  82   39   40 ar
  83   39   80 1
  84   40   41 ar
  85   40   81 1
  86   41   82 1
  87   41   42 ar
  88   42   83 1

#	End of record

