#	Name: ASD13490003
#	Creating user name:	WinNT
#	Creation time:	15. 06. 2019 21:30

#	Modifying user name:	WinNT
#	Modification time:	15. 06. 2019 21:30

#	Program:	/corina/corina34_cracker 3.40 0067  02.08.2006

@<TRIPOS>MOLECULE
ASD13490003
  41   43    0    0    0
SMALL
NO_CHARGES


@<TRIPOS>ATOM
   1 C1            -0.0186     1.4093    -0.1185 C.ar    
   2 C2             0.2237     0.2432     0.6233 C.ar    
   3 C3             1.4114    -0.4152     0.4867 C.ar    
   4 C4             2.3830     0.0691    -0.3879 C.ar    
   5 C5             2.1472     1.2275    -1.1268 C.ar    
   6 C6             0.9624     1.8927    -0.9975 C.ar    
   7 S7             3.9143    -0.7855    -0.5597 S.3     
   8 C8             4.8068     0.2176    -1.7795 C.3     
   9 C9            -1.2930     2.1158     0.0197 C.2     
  10 C10           -1.3108     3.4888     0.1312 C.2     
  11 C11           -2.4893     4.3587     0.0545 C.2     
  12 C12           -2.0955     5.6376     0.2102 C.2     
  13 C13           -0.6443     5.6915     0.3980 C.ar    
  14 C14           -0.1480     4.3705     0.3577 C.ar    
  15 C15            1.2131     4.1343     0.5172 C.ar    
  16 C16            2.0748     5.1930     0.7183 C.ar    
  17 C17            1.5923     6.4945     0.7626 C.ar    
  18 C18            0.2461     6.7508     0.5978 C.ar    
  19 C19           -3.0117     6.8341     0.1931 C.3     
  20 C20           -3.3972     7.1917     1.6054 C.2     
  21 O21           -2.9717     6.5417     2.5308 O.2     
  22 O22           -4.2133     8.2323     1.8353 O.3     
  23 C23           -3.9073     3.8978    -0.1636 C.3     
  24 F24            2.4494     7.5198     0.9608 F       
  25 H25           -0.5282    -0.1325     1.3014 H       
  26 H26            1.5991    -1.3127     1.0575 H       
  27 H27            2.9032     1.5992    -1.8026 H       
  28 H28            0.7805     2.7899    -1.5706 H       
  29 H29            4.2385     0.2498    -2.7091 H       
  30 H30            4.9327     1.2298    -1.3953 H       
  31 H31            5.7854    -0.2242    -1.9671 H       
  32 H32           -2.2193     1.5607     0.0342 H       
  33 H33            1.5947     3.1245     0.4842 H       
  34 H34            3.1317     5.0083     0.8424 H       
  35 H35           -0.1202     7.7660     0.6356 H       
  36 H36           -2.4987     7.6779    -0.2682 H       
  37 H37           -3.9084     6.5969    -0.3793 H       
  38 H38           -4.4323     8.4231     2.7576 H       
  39 H39           -3.9262     2.8119    -0.2561 H       
  40 H40           -4.5223     4.2010     0.6837 H       
  41 H41           -4.2991     4.3470    -1.0762 H       
@<TRIPOS>BOND
   1    1    2 ar
   2    1    6 ar
   3    1    9 1
   4    2    3 ar
   5    2   25 1
   6    3    4 ar
   7    3   26 1
   8    4    5 ar
   9    4    7 1
  10    5    6 ar
  11    5   27 1
  12    6   28 1
  13    7    8 1
  14    8   29 1
  15    8   30 1
  16    8   31 1
  17    9   10 2
  18    9   32 1
  19   10   11 1
  20   10   14 1
  21   11   12 2
  22   11   23 1
  23   12   13 1
  24   12   19 1
  25   13   18 ar
  26   13   14 ar
  27   14   15 ar
  28   15   16 ar
  29   15   33 1
  30   16   17 ar
  31   16   34 1
  32   17   18 ar
  33   17   24 1
  34   18   35 1
  35   19   20 1
  36   19   36 1
  37   19   37 1
  38   20   21 2
  39   20   22 1
  40   22   38 1
  41   23   39 1
  42   23   40 1
  43   23   41 1

#	End of record

