#	Name: ASD13110053
#	Creating user name:	WinNT
#	Creation time:	15. 06. 2019 21:30

#	Modifying user name:	WinNT
#	Modification time:	15. 06. 2019 21:30

#	Program:	/corina/corina34_cracker 3.40 0067  02.08.2006

@<TRIPOS>MOLECULE
ASD13110053
  38   39    0    0    0
SMALL
NO_CHARGES


@<TRIPOS>ATOM
   1 C1            -0.0169     1.3930     0.0097 C.ar    
   2 C2             0.0021    -0.0041     0.0020 C.ar    
   3 C3             1.2341    -0.6797    -0.0134 C.ar    
   4 C4             2.4198     0.0412    -0.0208 C.ar    
   5 C5             2.3847     1.4203    -0.0131 C.ar    
   6 C6             1.1690     2.0931     0.0021 C.ar    
   7 N7             0.9294    -2.0269    -0.0173 N.pl3   
   8 C8            -0.4268    -2.1351    -0.0046 C.2     
   9 N9            -0.9696    -0.9529     0.0066 N.2     
  10 C10           -1.1891    -3.4351    -0.0048 C.3     
  11 N11           -1.5265    -3.8035     1.3723 N.am    
  12 C12           -2.7865    -3.3478     1.9648 C.3     
  13 C13           -0.6777    -4.5617     2.0943 C.2     
  14 O14            0.3673    -4.9397     1.6029 O.2     
  15 O15           -0.9878    -4.9004     3.3600 O.3     
  16 C16           -0.0269    -5.7187     4.0777 C.3     
  17 C17            1.3089    -4.9778     4.1658 C.3     
  18 C18           -0.5486    -5.9991     5.4884 C.3     
  19 C19            0.1718    -7.0416     3.3351 C.3     
  20 Cl20           1.1449     3.8289     0.0117 Cl      
  21 Cl21           3.8688     2.3209    -0.0218 Cl      
  22 H22           -0.9584     1.9221     0.0170 H       
  23 H23            3.3678    -0.4761    -0.0323 H       
  24 H24            1.5645    -2.7600    -0.0276 H       
  25 H25           -2.1047    -3.3192    -0.5847 H       
  26 H26           -0.5737    -4.2171    -0.4498 H       
  27 H27           -3.5667    -4.0837     1.7700 H       
  28 H28           -2.6599    -3.2286     3.0408 H       
  29 H29           -3.0704    -2.3921     1.5243 H       
  30 H30            1.1673    -4.0353     4.6949 H       
  31 H31            2.0303    -5.5921     4.7046 H       
  32 H32            1.6806    -4.7780     3.1608 H       
  33 H33           -1.5002    -6.5269     5.4256 H       
  34 H34            0.1728    -6.6134     6.0272 H       
  35 H35           -0.6902    -5.0566     6.0174 H       
  36 H36            0.5435    -6.8419     2.3301 H       
  37 H37            0.8932    -7.6559     3.8739 H       
  38 H38           -0.7798    -7.5694     3.2723 H       
@<TRIPOS>BOND
   1    1    2 ar
   2    1    6 ar
   3    1   22 1
   4    2    9 1
   5    2    3 ar
   6    3    4 ar
   7    3    7 1
   8    4    5 ar
   9    4   23 1
  10    5    6 ar
  11    5   21 1
  12    6   20 1
  13    7    8 1
  14    7   24 1
  15    8   10 1
  16    8    9 2
  17   10   11 1
  18   10   25 1
  19   10   26 1
  20   11   12 1
  21   11   13 am
  22   12   27 1
  23   12   28 1
  24   12   29 1
  25   13   14 2
  26   13   15 1
  27   15   16 1
  28   16   17 1
  29   16   18 1
  30   16   19 1
  31   17   30 1
  32   17   31 1
  33   17   32 1
  34   18   33 1
  35   18   34 1
  36   18   35 1
  37   19   36 1
  38   19   37 1
  39   19   38 1

#	End of record

