#	Name: ASD10160222
#	Creating user name:	WinNT
#	Creation time:	15. 06. 2019 21:25

#	Modifying user name:	WinNT
#	Modification time:	15. 06. 2019 21:25

#	Program:	/corina/corina34_cracker 3.40 0067  02.08.2006

@<TRIPOS>MOLECULE
ASD10160222
  38   40    0    0    0
SMALL
NO_CHARGES


@<TRIPOS>ATOM
   1 C1            -0.3866     1.1255    -1.9070 C.2     
   2 C2            -0.2695    -0.2580    -1.4108 C.ar    
   3 C3             0.9145    -0.9776    -1.6103 C.ar    
   4 C4             1.0192    -2.2726    -1.1439 C.ar    
   5 C5            -0.0477    -2.8611    -0.4784 C.ar    
   6 C6            -1.2275    -2.1488    -0.2783 C.ar    
   7 C7            -1.3388    -0.8533    -0.7344 C.ar    
   8 O8             0.5462     1.6431    -2.4906 O.2     
   9 N9            -1.5295     1.8145    -1.7186 N.am    
  10 O10            0.0593    -4.1350    -0.0218 O.3     
  11 N11            4.9182    -6.6203    -0.4588 N.ar    
  12 C12            5.2117    -7.3498    -1.5075 C.ar    
  13 C13            4.3088    -7.5265    -2.5540 C.ar    
  14 C14            3.0807    -6.9314    -2.5023 C.ar    
  15 C15            2.7686    -6.1488    -1.3740 C.ar    
  16 C16            1.5269    -5.5071    -1.2520 C.ar    
  17 C17            1.2616    -4.7565    -0.1411 C.ar    
  18 C18            2.2138    -4.6206     0.8737 C.ar    
  19 C19            3.4262    -5.2299     0.7830 C.ar    
  20 C20            3.7339    -6.0105    -0.3454 C.ar    
  21 S21           -1.6611     3.3684    -2.2759 S.o2    
  22 O22           -2.9650     3.7729    -1.8817 O.2     
  23 O23           -0.5062     4.0219    -1.7675 O.2     
  24 C24           -1.5614     3.2120    -4.0804 C.3     
  25 F25           -2.2625    -2.7269     0.3696 F       
  26 F26            1.9528    -0.4058    -2.2586 F       
  27 H27            1.9322    -2.8288    -1.2972 H       
  28 H28           -2.2525    -0.3002    -0.5743 H       
  29 H29           -2.2751     1.4002    -1.2566 H       
  30 H30            6.1793    -7.8264    -1.5620 H       
  31 H31            4.5801    -8.1331    -3.4053 H       
  32 H32            2.3688    -7.0573    -3.3046 H       
  33 H33            0.7855    -5.6053    -2.0312 H       
  34 H34            1.9830    -4.0223     1.7427 H       
  35 H35            4.1508    -5.1146     1.5755 H       
  36 H36           -2.3766     2.5818    -4.4361 H       
  37 H37           -1.6403     4.1993    -4.5356 H       
  38 H38           -0.6076     2.7610    -4.3539 H       
@<TRIPOS>BOND
   1    1    2 1
   2    1    8 2
   3    1    9 am
   4    2    3 ar
   5    2    7 ar
   6    3    4 ar
   7    3   26 1
   8    4    5 ar
   9    4   27 1
  10    5    6 ar
  11    5   10 1
  12    6    7 ar
  13    6   25 1
  14    7   28 1
  15    9   21 am
  16    9   29 1
  17   10   17 1
  18   11   12 ar
  19   11   20 ar
  20   12   13 ar
  21   12   30 1
  22   13   14 ar
  23   13   31 1
  24   14   15 ar
  25   14   32 1
  26   15   16 ar
  27   15   20 ar
  28   16   17 ar
  29   16   33 1
  30   17   18 ar
  31   18   19 ar
  32   18   34 1
  33   19   20 ar
  34   19   35 1
  35   21   22 2
  36   21   23 2
  37   21   24 1
  38   24   36 1
  39   24   37 1
  40   24   38 1

#	End of record

