#	Name: ASD16350001
#	Creating user name:	WinNT
#	Creation time:	15. 06. 2019 21:31

#	Modifying user name:	WinNT
#	Modification time:	15. 06. 2019 21:31

#	Program:	/corina/corina34_cracker 3.40 0067  02.08.2006

@<TRIPOS>MOLECULE
ASD16350001
  44   47    0    0    0
SMALL
NO_CHARGES


@<TRIPOS>ATOM
   1 C1            -0.0167     1.3781     0.0096 C.ar    
   2 C2             0.0021    -0.0041     0.0020 C.ar    
   3 C3            -1.2230     2.0529     0.0305 C.ar    
   4 C4            -5.5313    -6.6943    -8.2116 C.ar    
   5 C5            -5.2652    -6.1873    -6.9528 C.ar    
   6 C6            -1.1855    -0.7115     0.0095 C.ar    
   7 C7            -2.4105     1.3455     0.0438 C.ar    
   8 C8            -5.6402    -4.2530    -2.9277 C.2     
   9 C9            -6.6697    -7.4596    -8.4097 C.ar    
  10 C10           -7.3635    -6.7042    -4.0181 C.2     
  11 C11           -3.9222    -5.5437    -3.7659 C.2     
  12 C12           -6.1659    -6.4727    -5.9267 C.ar    
  13 C13           -5.2610    -5.3128    -3.7336 C.2     
  14 C14           -6.2363    -6.1299    -4.4989 C.2     
  15 C15           -2.3919    -0.0367     0.0246 C.ar    
  16 C16           -4.5892    -3.6336    -2.3185 C.2     
  17 C17           -7.3021    -7.2569    -6.1994 C.ar    
  18 C18           -4.6939    -2.4861    -1.4121 C.2     
  19 C19           -3.9690    -1.3035     1.4588 C.3     
  20 C20           -3.6865    -0.8079     0.0391 C.3     
  21 N21           -7.5037    -7.7213    -7.4258 N.ar    
  22 N22           -8.0044    -7.3774    -5.0238 N.pl3   
  23 N23           -3.5819    -1.9546    -0.8666 N.am    
  24 N24           -5.1661    -2.1549     1.4511 N.3     
  25 O25           -5.7848    -2.0134    -1.1523 O.2     
  26 S26           -3.0901    -4.4224    -2.7861 S.3     
  27 H27            0.9112     1.9308     0.0037 H       
  28 H28            0.9446    -0.5313    -0.0101 H       
  29 H29           -1.2376     3.1328     0.0368 H       
  30 H30           -4.8608    -6.4917    -9.0337 H       
  31 H31           -4.3856    -5.5881    -6.7695 H       
  32 H32           -1.1709    -1.7913     0.0032 H       
  33 H33           -3.3529     1.8727     0.0605 H       
  34 H34           -6.6670    -3.9442    -2.7979 H       
  35 H35           -6.8774    -7.8506    -9.3948 H       
  36 H36           -7.7054    -6.6417    -2.9955 H       
  37 H37           -3.4487    -6.3270    -4.3390 H       
  38 H38           -3.1163    -1.8788     1.8193 H       
  39 H39           -4.1348    -0.4494     2.1155 H       
  40 H40           -4.4994    -0.1596    -0.2879 H       
  41 H41           -8.8346    -7.8686    -4.9213 H       
  42 H42           -2.7124    -2.3314    -1.0737 H       
  43 H43           -5.0622    -2.9190     0.8004 H       
  44 H44           -5.3739    -2.4950     2.3780 H       
@<TRIPOS>BOND
   1    1    2 ar
   2    1   27 1
   3    1    3 ar
   4    2    6 ar
   5    2   28 1
   6    3    7 ar
   7    3   29 1
   8    4    9 ar
   9    4   30 1
  10    4    5 ar
  11    5   31 1
  12    5   12 ar
  13    6   32 1
  14    6   15 ar
  15    7   15 ar
  16    7   33 1
  17    8   13 1
  18    8   34 1
  19    8   16 2
  20    9   21 ar
  21    9   35 1
  22   10   22 1
  23   10   36 1
  24   10   14 2
  25   11   13 2
  26   11   37 1
  27   11   26 1
  28   12   17 ar
  29   12   14 1
  30   13   14 1
  31   15   20 1
  32   16   18 1
  33   16   26 1
  34   17   21 ar
  35   17   22 1
  36   18   23 am
  37   18   25 2
  38   19   38 1
  39   19   39 1
  40   19   20 1
  41   19   24 1
  42   20   23 1
  43   20   40 1
  44   22   41 1
  45   23   42 1
  46   24   43 1
  47   24   44 1

#	End of record

