#	Name: ASD11000103
#	Creating user name:	WinNT
#	Creation time:	15. 06. 2019 21:28

#	Modifying user name:	WinNT
#	Modification time:	15. 06. 2019 21:28

#	Program:	/corina/corina34_cracker 3.40 0067  02.08.2006

@<TRIPOS>MOLECULE
ASD11000103
  55   58    0    0    0
SMALL
NO_CHARGES


@<TRIPOS>ATOM
   1 C1             0.0991     1.2913     0.1354 C.3     
   2 C2            -0.4216    -0.1186    -0.1509 C.3     
   3 N3             0.0296    -0.5450    -1.4798 N.am    
   4 C4             0.1055    -1.0700     0.8941 C.ar    
   5 C5             0.6858    -2.2758     0.5665 C.ar    
   6 C6            -0.0108    -0.6963     2.2261 C.ar    
   7 C7             1.1378    -3.1153     1.5759 C.ar    
   8 C8             1.0185    -2.7455     2.9047 C.ar    
   9 C9             0.4428    -1.5260     3.2299 C.ar    
  10 C10           -0.0655    -1.9794    -1.7977 C.3     
  11 C11            0.8731    -2.7326    -0.8564 C.3     
  12 C12            0.5114     0.3407    -2.3741 C.2     
  13 O13            0.4701     1.5314    -2.1330 O.2     
  14 C14            1.0903    -0.1359    -3.6483 C.ar    
  15 C15            1.0415     0.6717    -4.7858 C.ar    
  16 O16            1.5275     1.2892     0.0936 O.3     
  17 C17            2.1537     2.4732     0.3285 C.ar    
  18 C18            3.5387     2.5422     0.3032 C.ar    
  19 C19            1.4072     3.6131     0.5879 C.ar    
  20 C20            2.0434     4.8157     0.8265 C.ar    
  21 C21            3.4285     4.8834     0.8072 C.ar    
  22 C22            4.1748     3.7448     0.5419 C.ar    
  23 O23            4.0547     6.0676     1.0413 O.3     
  24 C24            5.4833     6.0641     1.0060 C.3     
  25 C25            1.6928    -1.3928    -3.7175 C.ar    
  26 C26            2.2312    -1.8322    -4.9096 C.ar    
  27 C27            2.1750    -1.0300    -6.0350 C.ar    
  28 C28            1.5838     0.2206    -5.9722 C.ar    
  29 Br29           1.5122     1.3092    -7.5167 Br      
  30 C30            1.3078    -3.1245     5.2338 C.3     
  31 O31            1.4644    -3.5731     3.8861 O.3     
  32 H32           -0.2854     1.9803    -0.6167 H       
  33 H33           -0.2350     1.6084     1.1233 H       
  34 H34           -1.5112    -0.1158    -0.1213 H       
  35 H35           -0.4602     0.2528     2.4784 H       
  36 H36            1.5857    -4.0648     1.3224 H       
  37 H37            0.3499    -1.2281     4.2638 H       
  38 H38           -1.0894    -2.3228    -1.6499 H       
  39 H39            0.2353    -2.1487    -2.8316 H       
  40 H40            1.9047    -2.5513    -1.1582 H       
  41 H41            0.6641    -3.8004    -0.9205 H       
  42 H42            0.5802     1.6471    -4.7377 H       
  43 H43            4.1199     1.6555     0.0972 H       
  44 H44            0.3286     3.5604     0.6029 H       
  45 H45            1.4621     5.7034     1.0278 H       
  46 H46            5.2535     3.7974     0.5272 H       
  47 H47            5.8638     5.3771     1.7619 H       
  48 H48            5.8216     5.7437     0.0206 H       
  49 H49            5.8542     7.0689     1.2085 H       
  50 H50            1.7378    -2.0203    -2.8396 H       
  51 H51            2.6980    -2.8046    -4.9639 H       
  52 H52            2.5982    -1.3785    -6.9655 H       
  53 H53            0.2500    -2.9652     5.4432 H       
  54 H54            1.7037    -3.8772     5.9156 H       
  55 H55            1.8502    -2.1890     5.3707 H       
@<TRIPOS>BOND
   1    1    2 1
   2    1   16 1
   3    1   32 1
   4    1   33 1
   5    2    3 1
   6    2    4 1
   7    2   34 1
   8    3   10 1
   9    3   12 am
  10    4    5 ar
  11    4    6 ar
  12    5    7 ar
  13    5   11 1
  14    6    9 ar
  15    6   35 1
  16    7    8 ar
  17    7   36 1
  18    8    9 ar
  19    8   31 1
  20    9   37 1
  21   10   11 1
  22   10   38 1
  23   10   39 1
  24   11   40 1
  25   11   41 1
  26   12   13 2
  27   12   14 1
  28   14   15 ar
  29   14   25 ar
  30   15   28 ar
  31   15   42 1
  32   16   17 1
  33   17   18 ar
  34   17   19 ar
  35   18   22 ar
  36   18   43 1
  37   19   20 ar
  38   19   44 1
  39   20   21 ar
  40   20   45 1
  41   21   22 ar
  42   21   23 1
  43   22   46 1
  44   23   24 1
  45   24   47 1
  46   24   48 1
  47   24   49 1
  48   25   26 ar
  49   25   50 1
  50   26   27 ar
  51   26   51 1
  52   27   28 ar
  53   27   52 1
  54   28   29 1
  55   30   31 1
  56   30   53 1
  57   30   54 1
  58   30   55 1

#	End of record

