#	Name: ASD11530003
#	Creating user name:	WinNT
#	Creation time:	15. 06. 2019 21:29

#	Modifying user name:	WinNT
#	Modification time:	15. 06. 2019 21:29

#	Program:	/corina/corina34_cracker 3.40 0067  02.08.2006

@<TRIPOS>MOLECULE
ASD11530003
  32   33    0    0    0
SMALL
NO_CHARGES


@<TRIPOS>ATOM
   1 C1            -0.1761     1.3865    -0.3866 C.ar    
   2 C2            -0.0326     0.0115    -0.3642 C.ar    
   3 C3            -1.1398    -0.7974    -0.1983 C.ar    
   4 C4            -2.3984    -0.2281    -0.0539 C.ar    
   5 C5            -2.5391     1.1539    -0.0768 C.ar    
   6 C6            -1.4272     1.9569    -0.2374 C.ar    
   7 C7             1.0342     2.2659    -0.5679 C.3     
   8 F8             2.1765     1.4676    -0.6906 F       
   9 F9             0.8797     3.0396    -1.7231 F       
  10 F10            1.1700     3.1068     0.5419 F       
  11 N11           -3.8783     1.7649     0.0768 N.pl3   
  12 O12           -3.9885     2.9740     0.1745 O.2     
  13 O13           -4.8703     1.0587     0.1053 O.2     
  14 N14           -3.5203    -1.0431     0.1137 N.pl3   
  15 N15           -3.3977    -2.4007     0.0246 N.3     
  16 C16           -4.3129    -2.9471    -0.9879 C.3     
  17 C17           -3.6254    -3.0371     1.3301 C.3     
  18 C18           -3.4200    -4.5484     1.1979 C.3     
  19 O19           -4.2955    -5.0568     0.1877 O.3     
  20 C20           -4.1006    -4.4593    -1.0970 C.3     
  21 H21            0.9463    -0.4305    -0.4770 H       
  22 H22           -1.0271    -1.8713    -0.1813 H       
  23 H23           -1.5358     3.0313    -0.2549 H       
  24 H24           -4.3865    -0.6452     0.2933 H       
  25 H25           -5.3430    -2.7443    -0.6947 H       
  26 H26           -4.1096    -2.4806    -1.9519 H       
  27 H27           -2.9202    -2.6363     2.0583 H       
  28 H28           -4.6444    -2.8358     1.6604 H       
  29 H29           -2.3860    -4.7523     0.9196 H       
  30 H30           -3.6433    -5.0308     2.1495 H       
  31 H31           -4.8162    -4.8772    -1.8050 H       
  32 H32           -3.0864    -4.6606    -1.4419 H       
@<TRIPOS>BOND
   1    1    2 ar
   2    1    7 1
   3    1    6 ar
   4    2    3 ar
   5    2   21 1
   6    3    4 ar
   7    3   22 1
   8    4    5 ar
   9    4   14 1
  10    5    6 ar
  11    5   11 1
  12    6   23 1
  13    7    8 1
  14    7    9 1
  15    7   10 1
  16   11   12 2
  17   11   13 2
  18   14   15 1
  19   14   24 1
  20   15   16 1
  21   15   17 1
  22   16   20 1
  23   16   25 1
  24   16   26 1
  25   17   18 1
  26   17   27 1
  27   17   28 1
  28   18   19 1
  29   18   29 1
  30   18   30 1
  31   19   20 1
  32   20   31 1
  33   20   32 1

#	End of record

