#	Name: ASD15360003
#	Creating user name:	WinNT
#	Creation time:	15. 06. 2019 21:31

#	Modifying user name:	WinNT
#	Modification time:	15. 06. 2019 21:31

#	Program:	/corina/corina34_cracker 3.40 0067  02.08.2006

@<TRIPOS>MOLECULE
ASD15360003
 145  150    0    0    0
SMALL
NO_CHARGES


@<TRIPOS>ATOM
   1 C1             4.2065     5.6815     5.0763 C.3     
   2 C2             4.9150     4.3405     5.2782 C.3     
   3 C3             6.3873     4.4773     4.8850 C.3     
   4 C4             4.8159     3.9275     6.7480 C.3     
   5 H5             5.3953     3.0186     6.9099 H       
   6 N6             3.4136     3.6806     7.0924 N.am    
   7 C7             3.1054     2.8540     8.1114 C.2     
   8 O8             3.9890     2.3146     8.7432 O.2     
   9 C9             1.6628     2.6000     8.4657 C.3     
  10 H10            1.0733     2.5084     7.5534 H       
  11 C11            1.1291     3.7616     9.3064 C.3     
  12 S12            0.0796     4.8224     8.2750 S.3     
  13 S13           -0.8132     6.0591     9.6446 S.3     
  14 C14           -2.4948     6.2459     8.9904 C.3     
  15 C15           -3.5077     5.9993    10.1102 C.3     
  16 H16           -4.0432     6.9240    10.3258 H       
  17 N17           -2.8046     5.5501    11.3144 N.am    
  18 C18           -3.3554     5.7459    12.5288 C.2     
  19 O19           -4.4331     6.2939    12.6247 O.2     
  20 C20           -2.6322     5.2838    13.7676 C.3     
  21 H21           -1.6664     5.7848    13.8326 H       
  22 C22           -2.4180     3.7704    13.6984 C.3     
  23 N23           -3.4345     5.6111    14.9538 N.3     
  24 C24           -4.4884     4.9404     9.6768 C.2     
  25 O25           -4.3322     4.3482     8.6299 O.2     
  26 N26           -5.5526     4.6580    10.4785 N.am    
  27 C27           -6.4774     3.6108     9.9993 C.3     
  28 H28           -7.4984     3.8687    10.2804 H       
  29 C29           -6.3781     3.4966     8.4768 C.3     
  30 C30           -6.7969     4.8000     7.8468 C.ar    
  31 C31           -8.0128     5.3679     8.1819 C.ar    
  32 C32           -8.4012     6.5617     7.6083 C.ar    
  33 C33           -7.5658     7.1948     6.6903 C.ar    
  34 C34           -6.3421     6.6183     6.3565 C.ar    
  35 C35           -5.9614     5.4269     6.9401 C.ar    
  36 C36           -7.9782     8.4783     6.0700 C.ar    
  37 C37           -9.1996     9.0575     6.4078 C.ar    
  38 C38           -9.5780    10.2516     5.8282 C.ar    
  39 C39           -8.7474    10.8729     4.9132 C.ar    
  40 C40           -7.5340    10.3021     4.5738 C.ar    
  41 C41           -7.1429     9.1114     5.1520 C.ar    
  42 C42           -6.0953     2.2981    10.6330 C.2     
  43 O43           -5.5125     2.2711    11.6963 O.2     
  44 N44           -6.4182     1.1379     9.9853 N.am    
  45 C45           -6.0025    -0.1043    10.6782 C.3     
  46 H46           -5.6282     0.1389    11.6726 H       
  47 C47           -7.1984    -1.0514    10.7968 C.3     
  48 C48           -8.2440    -0.4311    11.6873 C.2     
  49 C49           -8.3959    -0.6386    13.0048 C.2     
  50 N50           -9.4512     0.0950    13.4741 N.pl3   
  51 H51           -9.7544     0.1088    14.3954 H       
  52 C52          -10.0187     0.8109    12.4439 C.ar    
  53 C53          -11.0901     1.6945    12.3681 C.ar    
  54 C54          -11.4219     2.2656    11.1588 C.ar    
  55 C55          -10.6974     1.9682    10.0130 C.ar    
  56 C56           -9.6413     1.1024    10.0646 C.ar    
  57 C57           -9.2835     0.5176    11.2806 C.ar    
  58 C58           -4.9106    -0.7600     9.8727 C.2     
  59 O59           -4.8363    -0.5788     8.6757 O.2     
  60 N60           -4.0084    -1.5582    10.5075 N.am    
  61 C61           -2.9623    -2.1690     9.6621 C.3     
  62 H62           -2.9163    -3.2408     9.8550 H       
  63 C63           -3.2890    -1.9270     8.1871 C.3     
  64 C64           -4.5940    -2.6412     7.8299 C.3     
  65 C65           -5.0144    -2.2556     6.4102 C.3     
  66 C66           -6.3195    -2.9699     6.0530 C.3     
  67 N67           -6.7231    -2.5996     4.6900 N.3     
  68 C68           -1.6360    -1.5378     9.9987 C.2     
  69 O69           -1.4580    -1.0102    11.0762 O.2     
  70 N70           -0.6369    -1.5720     9.0657 N.am    
  71 C71            0.6313    -0.9274     9.4809 C.3     
  72 H72            0.6066    -0.7271    10.5520 H       
  73 C73            1.8071    -1.8516     9.1580 C.3     
  74 C74            1.7063    -3.1028     9.9920 C.ar    
  75 C75            2.3027    -3.1513    11.2384 C.ar    
  76 C76            2.2117    -4.2971    12.0048 C.ar    
  77 C77            1.5208    -5.3995    11.5230 C.ar    
  78 O78            1.4295    -6.5276    12.2752 O.3     
  79 C79            0.9230    -5.3481    10.2722 C.ar    
  80 C80            1.0127    -4.1983     9.5117 C.ar    
  81 C81            0.7798     0.3689     8.7269 C.2     
  82 O82            0.2134     0.5322     7.6669 O.2     
  83 N83            1.5579     1.3529     9.2501 N.am    
  84 C84            5.3599     5.0315     7.6178 C.2     
  85 O85            6.6341     5.4299     7.4781 O.3     
  86 O86            4.6491     5.5580     8.4408 O.2     
  87 H87            4.6800     6.4400     5.6996 H       
  88 H88            4.2771     5.9757     4.0291 H       
  89 H89            3.1576     5.5840     5.3564 H       
  90 H90            4.4415     3.5819     4.6549 H       
  91 H91            6.8608     5.2359     5.5082 H       
  92 H92            6.8921     3.5220     5.0288 H       
  93 H93            6.4579     4.7716     3.8378 H       
  94 H94            2.7068     4.1120     6.5871 H       
  95 H95            0.5435     3.3694    10.1378 H       
  96 H96            1.9652     4.3440     9.6937 H       
  97 H97           -2.6229     7.2556     8.6004 H       
  98 H98           -2.6555     5.5239     8.1897 H       
  99 H99           -1.9427     5.1118    11.2377 H       
 100 H100          -3.3838     3.2694    13.6334 H       
 101 H101          -1.8227     3.5276    12.8183 H       
 102 H102          -1.8949     3.4362    14.5944 H       
 103 H103          -4.3584     5.2110    14.8871 H       
 104 H104          -2.9706     5.3111    15.7981 H       
 105 H105          -5.6956     5.1202    11.3192 H       
 106 H106          -5.3493     3.2712     8.1957 H       
 107 H107          -7.0331     2.6978     8.1288 H       
 108 H108          -8.6597     4.8761     8.8933 H       
 109 H109          -9.3509     7.0040     7.8703 H       
 110 H110          -5.6909     7.1047     5.6453 H       
 111 H111          -5.0112     4.9811     6.6851 H       
 112 H112          -9.8492     8.5728     7.1216 H       
 113 H113         -10.5245    10.7014     6.0893 H       
 114 H114          -9.0475    11.8070     4.4617 H       
 115 H115          -6.8894    10.7913     3.8585 H       
 116 H116          -6.1933     8.6689     4.8897 H       
 117 H117          -6.8847     1.1288     9.1348 H       
 118 H118          -7.6216    -1.2278     9.8080 H       
 119 H119          -6.8708    -1.9982    11.2261 H       
 120 H120          -7.7769    -1.2887    13.6054 H       
 121 H121         -11.6602     1.9320    13.2540 H       
 122 H122         -12.2544     2.9512    11.1019 H       
 123 H123         -10.9706     2.4244     9.0730 H       
 124 H124          -9.0823     0.8754     9.1688 H       
 125 H125          -4.0501    -1.7170    11.4635 H       
 126 H126          -3.4002    -0.8572     8.0103 H       
 127 H127          -2.4808    -2.3156     7.5675 H       
 128 H128          -4.4447    -3.7196     7.8843 H       
 129 H129          -5.3736    -2.3465     8.5324 H       
 130 H130          -5.1637    -1.1773     6.3558 H       
 131 H131          -4.2349    -2.5504     5.7077 H       
 132 H132          -6.1701    -4.0482     6.1075 H       
 133 H133          -7.0990    -2.6751     6.7555 H       
 134 H134          -7.5832    -3.0589     4.4302 H       
 135 H135          -6.8053    -1.5983     4.5966 H       
 136 H136          -0.7498    -1.9877     8.1966 H       
 137 H137           1.7815    -2.1165     8.1010 H       
 138 H138           2.7433    -1.3403     9.3819 H       
 139 H139           2.8404    -2.2929    11.6131 H       
 140 H140           2.6783    -4.3348    12.9781 H       
 141 H141           0.6599    -6.5490    12.8603 H       
 142 H142           0.3848    -6.2050     9.8947 H       
 143 H143           0.5440    -4.1563     8.5396 H       
 144 H144           2.0200     1.2407    10.0956 H       
 145 H145           6.9377     6.1414     8.0583 H       
@<TRIPOS>BOND
   1    1    2 1
   2    1   87 1
   3    1   88 1
   4    1   89 1
   5    2    3 1
   6    2    4 1
   7    2   90 1
   8    3   91 1
   9    3   92 1
  10    3   93 1
  11    4    5 1
  12    4    6 1
  13    4   84 1
  14    6    7 am
  15    6   94 1
  16    7    8 2
  17    7    9 1
  18    9   10 1
  19    9   83 1
  20    9   11 1
  21   11   12 1
  22   11   95 1
  23   11   96 1
  24   12   13 1
  25   13   14 1
  26   14   15 1
  27   14   97 1
  28   14   98 1
  29   15   16 1
  30   15   17 1
  31   15   24 1
  32   17   18 am
  33   17   99 1
  34   18   19 2
  35   18   20 1
  36   20   21 1
  37   20   22 1
  38   20   23 1
  39   22  100 1
  40   22  101 1
  41   22  102 1
  42   23  103 1
  43   23  104 1
  44   24   25 2
  45   24   26 am
  46   26   27 1
  47   26  105 1
  48   27   28 1
  49   27   29 1
  50   27   42 1
  51   29   30 1
  52   29  106 1
  53   29  107 1
  54   30   35 ar
  55   30   31 ar
  56   31   32 ar
  57   31  108 1
  58   32   33 ar
  59   32  109 1
  60   33   34 ar
  61   33   36 1
  62   34   35 ar
  63   34  110 1
  64   35  111 1
  65   36   41 ar
  66   36   37 ar
  67   37   38 ar
  68   37  112 1
  69   38   39 ar
  70   38  113 1
  71   39   40 ar
  72   39  114 1
  73   40   41 ar
  74   40  115 1
  75   41  116 1
  76   42   43 2
  77   42   44 am
  78   44   45 1
  79   44  117 1
  80   45   46 1
  81   45   47 1
  82   45   58 1
  83   47   48 1
  84   47  118 1
  85   47  119 1
  86   48   57 1
  87   48   49 2
  88   49   50 1
  89   49  120 1
  90   50   51 1
  91   50   52 1
  92   52   57 ar
  93   52   53 ar
  94   53   54 ar
  95   53  121 1
  96   54   55 ar
  97   54  122 1
  98   55   56 ar
  99   55  123 1
 100   56   57 ar
 101   56  124 1
 102   58   59 2
 103   58   60 am
 104   60   61 1
 105   60  125 1
 106   61   62 1
 107   61   63 1
 108   61   68 1
 109   63   64 1
 110   63  126 1
 111   63  127 1
 112   64   65 1
 113   64  128 1
 114   64  129 1
 115   65   66 1
 116   65  130 1
 117   65  131 1
 118   66   67 1
 119   66  132 1
 120   66  133 1
 121   67  134 1
 122   67  135 1
 123   68   69 2
 124   68   70 am
 125   70   71 1
 126   70  136 1
 127   71   72 1
 128   71   73 1
 129   71   81 1
 130   73   74 1
 131   73  137 1
 132   73  138 1
 133   74   80 ar
 134   74   75 ar
 135   75   76 ar
 136   75  139 1
 137   76   77 ar
 138   76  140 1
 139   77   78 1
 140   77   79 ar
 141   78  141 1
 142   79   80 ar
 143   79  142 1
 144   80  143 1
 145   81   82 2
 146   81   83 am
 147   83  144 1
 148   84   85 1
 149   84   86 2
 150   85  145 1

#	End of record

