#	Name: ASD15990001
#	Creating user name:	WinNT
#	Creation time:	15. 06. 2019 21:31

#	Modifying user name:	WinNT
#	Modification time:	15. 06. 2019 21:31

#	Program:	/corina/corina34_cracker 3.40 0067  02.08.2006

@<TRIPOS>MOLECULE
ASD15990001
 246  248    0    0    0
SMALL
NO_CHARGES


@<TRIPOS>ATOM
   1 C1            -3.0419     6.2305     3.6429 C.2     
   2 O2             7.4359    10.2699    -4.3505 O.3     
   3 C3            -2.5904     7.6215     3.2792 C.3     
   4 C4            -2.2970     5.0460     3.5148 C.2     
   5 O5             9.5858    10.7188    -4.1052 O.2     
   6 C6             4.9011     9.1926    -0.0009 C.3     
   7 C7             6.2490     8.9260    -0.6199 C.2     
   8 C8             7.7314     8.7426    -2.4769 C.3     
   9 C9             7.7147     8.8887    -3.9998 C.3     
  10 C10            6.6293     7.9843    -4.5870 C.3     
  11 C11            8.4848    11.1047    -4.4196 C.2     
  12 C12            0.4952     8.7062    -2.9732 C.3     
  13 C13            0.7584    10.1409    -3.4353 C.3     
  14 C14           -1.8375    14.6366    -2.4792 C.3     
  15 C15           -3.0928    14.9202    -1.6518 C.3     
  16 C16           -3.4003    16.4185    -1.6888 C.3     
  17 C17           -4.9187    17.9837    -0.7274 C.2     
  18 C18           -6.0743    18.3568     0.1649 C.3     
  19 C19           -6.3217    19.8640     0.0758 C.3     
  20 C20           -7.4950    20.2428     0.9818 C.3     
  21 C21           -7.7423    21.7500     0.8927 C.3     
  22 C22          -10.5798    25.4993     2.5277 C.2     
  23 C23          -11.7670    25.9504     2.2064 C.2     
  24 C24          -12.0106    27.4350     2.1187 C.3     
  25 C25          -12.5793    27.7779     0.7403 C.3     
  26 C26          -12.8266    29.2852     0.6512 C.3     
  27 C27          -13.3954    29.6280    -0.7272 C.3     
  28 C28          -13.6427    31.1353    -0.8163 C.3     
  29 C29          -14.2114    31.4782    -2.1946 C.3     
  30 C30          -14.4587    32.9854    -2.2837 C.3     
  31 C31          -15.0275    33.3283    -3.6621 C.3     
  32 C32           -5.1737    13.7989    -1.3483 C.2     
  33 C33           -6.3682    13.0291    -1.8499 C.3     
  34 C34           -7.3031    12.7185    -0.6793 C.3     
  35 C35           -8.5158    11.9369    -1.1885 C.3     
  36 C36           -9.4507    11.6263    -0.0179 C.3     
  37 C37          -13.7318     9.4467     1.2872 C.2     
  38 C38          -14.9904     9.8061     1.2336 C.2     
  39 C39          -15.9112     9.5002     2.3866 C.3     
  40 C40          -16.5738    10.7929     2.8670 C.3     
  41 C41          -17.5086    10.4823     4.0377 C.3     
  42 C42          -18.1712    11.7750     4.5181 C.3     
  43 C43          -19.1061    11.4644     5.6888 C.3     
  44 C44          -19.7686    12.7571     6.1692 C.3     
  45 C45          -20.7035    12.4466     7.3399 C.3     
  46 C46          -21.3660    13.7393     7.8203 C.3     
  47 C47            0.0838     7.6397    -0.8821 C.2     
  48 C48            0.3719     7.3995     0.5775 C.3     
  49 C49           -0.4034     6.1698     1.0547 C.3     
  50 C50           -0.1969     5.9892     2.5599 C.3     
  51 C51           -1.0065     4.8124     3.0403 C.2     
  52 O52            7.1888     8.6344     0.0813 O.2     
  53 O53            6.4055     9.0125    -1.9502 O.3     
  54 O54            5.3711     8.2992    -3.9873 O.3     
  55 P55            4.0248     7.4683    -4.2862 P.3     
  56 O56            4.1905     5.9631    -3.7394 O.3     
  57 O57            3.7770     7.4387    -5.7450 O.2     
  58 O58            2.7824     8.1748    -3.5450 O.3     
  59 C59            1.4289     7.7508    -3.7191 C.3     
  60 O60           -0.1904    11.0190    -2.8265 O.3     
  61 P61           -0.2093    12.6074    -3.0888 P.3     
  62 O62            1.1411    13.2635    -2.5073 O.3     
  63 O63           -0.2968    12.8662    -4.5434 O.2     
  64 O64           -1.4833    13.2582    -2.3503 O.3     
  65 O65           -4.5199    16.7047    -0.8096 O.3     
  66 O66           -4.3511    18.8360    -1.3688 O.2     
  67 C67           -8.9156    22.1287     1.7987 C.3     
  68 C68           -9.1629    23.6360     1.7095 C.3     
  69 C69          -10.3362    24.0147     2.6155 C.3     
  70 O70           -4.2141    14.1821    -2.2051 O.3     
  71 O71           -5.0798    14.0712    -0.1749 O.2     
  72 C72          -10.6634    10.8448    -0.5272 C.3     
  73 C73          -11.5983    10.5342     0.6435 C.3     
  74 C74          -12.8110     9.7526     0.1342 C.3     
  75 O75            0.7392     8.6052    -1.5454 O.3     
  76 O76           -0.7371     6.9633    -1.4552 O.2     
  77 C77           -0.4273     3.5448     2.9885 C.2     
  78 C78            0.8376     3.1161     2.5520 C.2     
  79 C79            1.9405     3.9821     2.0001 C.3     
  80 C80            0.8736     1.7450     2.7279 C.2     
  81 C81           -0.3451     1.3638     3.2584 C.2     
  82 C82           -0.7421    -0.0467     3.6103 C.3     
  83 N83           -1.1088     2.4382     3.4089 N.pl3   
  84 B84           -2.5194     2.6139     3.9367 Du      
  85 F85           -3.3536     1.8407     3.1731 F       
  86 F86           -2.5539     2.1244     5.2159 F       
  87 N87           -3.0813     4.0219     3.9642 N.2     
  88 C88           -4.2540     4.5018     4.3575 C.2     
  89 C89           -5.3904     3.6838     4.9146 C.3     
  90 C90           -4.2676     5.8721     4.1732 C.2     
  91 C91            8.2891    12.5231    -4.8894 C.3     
  92 C92            9.6493    13.2141    -5.0055 C.3     
  93 C93            9.4613    14.6149    -5.5916 C.3     
  94 C94           10.8033    15.3497    -5.5972 C.3     
  95 C95           10.6153    16.7504    -6.1833 C.3     
  96 C96           11.9573    17.4852    -6.1889 C.3     
  97 C97           11.7694    18.8859    -6.7750 C.3     
  98 C98           13.0912    19.6097    -6.7805 C.2     
  99 C99           13.5572    20.1140    -7.8961 C.2     
 100 C100          14.8790    20.8377    -7.9016 C.3     
 101 C101          15.8033    20.2036    -8.9430 C.3     
 102 C102          17.1453    20.9384    -8.9486 C.3     
 103 C103          18.0696    20.3043    -9.9900 C.3     
 104 C104          19.4116    21.0391    -9.9956 C.3     
 105 C105          20.3359    20.4050   -11.0370 C.3     
 106 C106          21.6779    21.1398   -11.0426 C.3     
 107 C107          22.6022    20.5057   -12.0840 C.3     
 108 H108          -3.3883     8.3312     3.4978 H       
 109 H109          -1.7051     7.8797     3.8602 H       
 110 H110          -2.3513     7.6596     2.2164 H       
 111 H111           4.3367     8.2618     0.0555 H       
 112 H112           5.0356     9.5973     1.0023 H       
 113 H113           4.3561     9.9115    -0.6126 H       
 114 H114           8.0277     7.7275    -2.2125 H       
 115 H115           8.4424     9.4510    -2.0517 H       
 116 H116           8.6854     8.6003    -4.4031 H       
 117 H117           6.5682     8.1422    -5.6638 H       
 118 H118           6.8769     6.9420    -4.3861 H       
 119 H119          -0.5406     8.4407    -3.1845 H       
 120 H120           1.7663    10.4371    -3.1446 H       
 121 H121           0.6618    10.1969    -4.5195 H       
 122 H122          -2.0336    14.8649    -3.5269 H       
 123 H123          -1.0172    15.2577    -2.1195 H       
 124 H124          -2.9262    14.6089    -0.6206 H       
 125 H125          -2.5254    16.9773    -1.3567 H       
 126 H126          -3.6539    16.7123    -2.7074 H       
 127 H127          -6.9685    17.8223    -0.1560 H       
 128 H128          -5.8399    18.0873     1.1948 H       
 129 H129          -5.4276    20.3985     0.3968 H       
 130 H130          -6.5561    20.1335    -0.9540 H       
 131 H131          -8.3891    19.7083     0.6609 H       
 132 H132          -7.2606    19.9733     2.0116 H       
 133 H133          -6.8482    22.2845     1.2136 H       
 134 H134          -7.9767    22.0195    -0.1371 H       
 135 H135          -9.7757    26.1914     2.7297 H       
 136 H136         -12.5712    25.2584     2.0045 H       
 137 H137         -12.7216    27.7327     2.8894 H       
 138 H138         -11.0707    27.9668     2.2664 H       
 139 H139         -11.8684    27.4802    -0.0304 H       
 140 H140         -13.5193    27.2461     0.5926 H       
 141 H141         -13.5376    29.5829     1.4219 H       
 142 H142         -11.8867    29.8169     0.7990 H       
 143 H143         -12.6844    29.3303    -1.4979 H       
 144 H144         -14.3353    29.0963    -0.8749 H       
 145 H145         -14.3536    31.4330    -0.0455 H       
 146 H146         -12.7028    31.6671    -0.6685 H       
 147 H147         -13.5005    31.1805    -2.9653 H       
 148 H148         -15.1514    30.9464    -2.3424 H       
 149 H149         -15.1697    33.2832    -1.5130 H       
 150 H150         -13.5188    33.5172    -2.1360 H       
 151 H151         -15.2036    34.4021    -3.7256 H       
 152 H152         -14.3165    33.0306    -4.4328 H       
 153 H153         -15.9674    32.7965    -3.8099 H       
 154 H154          -6.8999    13.6258    -2.5911 H       
 155 H155          -6.0344    12.0969    -2.3056 H       
 156 H156          -6.7714    12.1218     0.0619 H       
 157 H157          -7.6369    13.6507    -0.2236 H       
 158 H158          -9.0475    12.5336    -1.9297 H       
 159 H159          -8.1820    11.0047    -1.6442 H       
 160 H160          -8.9190    11.0296     0.7233 H       
 161 H161          -9.7845    12.5586     0.4378 H       
 162 H162         -13.3541     8.9311     2.1578 H       
 163 H163         -15.3681    10.3217     0.3630 H       
 164 H164         -16.6787     8.7974     2.0621 H       
 165 H165         -15.3378     9.0607     3.2028 H       
 166 H166         -15.8063    11.4956     3.1915 H       
 167 H167         -17.1472    11.2324     2.0509 H       
 168 H168         -18.2761     9.7795     3.7132 H       
 169 H169         -16.9352    10.0428     4.8539 H       
 170 H170         -17.4037    12.4778     4.8426 H       
 171 H171         -18.7446    12.2145     3.7019 H       
 172 H172         -19.8735    10.7617     5.3643 H       
 173 H173         -18.5327    11.0249     6.5050 H       
 174 H174         -19.0012    13.4599     6.4937 H       
 175 H175         -20.3420    13.1966     5.3530 H       
 176 H176         -21.4709    11.7438     7.0154 H       
 177 H177         -20.1301    12.0071     8.1561 H       
 178 H178         -20.5986    14.4420     8.1448 H       
 179 H179         -21.9394    14.1788     7.0041 H       
 180 H180         -22.0320    13.5180     8.6543 H       
 181 H181           1.4401     7.2311     0.7142 H       
 182 H182           0.0643     8.2702     1.1567 H       
 183 H183          -1.4648     6.3064     0.8474 H       
 184 H184          -0.0415     5.2858     0.5296 H       
 185 H185           0.8590     5.8109     2.7630 H       
 186 H186          -0.5202     6.8899     3.0817 H       
 187 H187           4.3557     5.9061    -2.7883 H       
 188 H188           1.3100     6.7427    -3.3219 H       
 189 H189           1.1805     7.7548    -4.7804 H       
 190 H190           1.2644    13.1326    -1.5572 H       
 191 H191          -9.8097    21.5943     1.4777 H       
 192 H192          -8.6812    21.8593     2.8285 H       
 193 H193          -8.2688    24.1705     2.0305 H       
 194 H194          -9.3973    23.9055     0.6797 H       
 195 H195         -10.1018    23.7453     3.6453 H       
 196 H196         -11.2304    23.4802     2.2946 H       
 197 H197         -11.1951    11.4415    -1.2683 H       
 198 H198         -10.3296     9.9125    -0.9828 H       
 199 H199         -11.0666     9.9375     1.3846 H       
 200 H200         -11.9321    11.4664     1.0991 H       
 201 H201         -12.4772     8.8204    -0.3215 H       
 202 H202         -13.3427    10.3493    -0.6070 H       
 203 H203           2.5136     4.4090     2.8232 H       
 204 H204           2.5979     3.3784     1.3744 H       
 205 H205           1.5079     4.7853     1.4036 H       
 206 H206           1.7013     1.0920     2.4938 H       
 207 H207          -0.4657    -0.2548     4.6439 H       
 208 H208          -1.8197    -0.1610     3.4924 H       
 209 H209          -0.2282    -0.7445     2.9492 H       
 210 H210          -5.2928     3.6168     5.9982 H       
 211 H211          -6.3381     4.1603     4.6640 H       
 212 H212          -5.3623     2.6825     4.4847 H       
 213 H213          -5.0836     6.5403     4.4056 H       
 214 H214           7.7993    12.5191    -5.8631 H       
 215 H215           7.6684    13.0609    -4.1727 H       
 216 H216          10.1030    13.2916    -4.0174 H       
 217 H217          10.2984    12.6310    -5.6587 H       
 218 H218           9.0868    14.5345    -6.6121 H       
 219 H219           8.7458    15.1697    -4.9846 H       
 220 H220          11.1778    15.4300    -4.5767 H       
 221 H221          11.5188    14.7948    -6.2041 H       
 222 H222          10.2409    16.6700    -7.2038 H       
 223 H223           9.8999    17.3052    -5.5764 H       
 224 H224          12.3318    17.5656    -5.1684 H       
 225 H225          12.6728    16.9304    -6.7958 H       
 226 H226          11.3949    18.8055    -7.7955 H       
 227 H227          11.0539    19.4407    -6.1681 H       
 228 H228          13.6543    19.7126    -5.8647 H       
 229 H229          12.9941    20.0111    -8.8119 H       
 230 H230          14.7178    21.8868    -8.1497 H       
 231 H231          15.3378    20.7639    -6.9157 H       
 232 H232          15.9645    19.1545    -8.6950 H       
 233 H233          15.3445    20.2775    -9.9290 H       
 234 H234          16.9841    21.9875    -9.1967 H       
 235 H235          17.6041    20.8645    -7.9626 H       
 236 H236          18.2308    19.2552    -9.7419 H       
 237 H237          17.6108    20.3781   -10.9760 H       
 238 H238          19.2504    22.0882   -10.2437 H       
 239 H239          19.8704    20.9652    -9.0096 H       
 240 H240          20.4971    19.3559   -10.7889 H       
 241 H241          19.8771    20.4788   -12.0230 H       
 242 H242          21.5167    22.1889   -11.2907 H       
 243 H243          22.1367    21.0659   -10.0566 H       
 244 H244          22.1434    20.5795   -13.0700 H       
 245 H245          23.5583    21.0291   -12.0880 H       
 246 H246          22.7634    19.4566   -11.8359 H       
@<TRIPOS>BOND
   1    1   90 2
   2    1    3 1
   3    1    4 1
   4    2    9 1
   5    2   11 1
   6    3  108 1
   7    3  109 1
   8    3  110 1
   9    4   51 2
  10    4   87 1
  11    5   11 2
  12    6    7 1
  13    6  111 1
  14    6  112 1
  15    6  113 1
  16    7   53 1
  17    7   52 2
  18    8    9 1
  19    8  114 1
  20    8  115 1
  21    8   53 1
  22    9   10 1
  23    9  116 1
  24   10   54 1
  25   10  117 1
  26   10  118 1
  27   11   91 1
  28   12   59 1
  29   12   13 1
  30   12  119 1
  31   12   75 1
  32   13   60 1
  33   13  120 1
  34   13  121 1
  35   14  122 1
  36   14  123 1
  37   14   15 1
  38   14   64 1
  39   15  124 1
  40   15   16 1
  41   15   70 1
  42   16  125 1
  43   16  126 1
  44   16   65 1
  45   17   65 1
  46   17   18 1
  47   17   66 2
  48   18  127 1
  49   18  128 1
  50   18   19 1
  51   19  129 1
  52   19  130 1
  53   19   20 1
  54   20  131 1
  55   20  132 1
  56   20   21 1
  57   21  133 1
  58   21  134 1
  59   21   67 1
  60   22   69 1
  61   22  135 1
  62   22   23 2
  63   23  136 1
  64   23   24 1
  65   24  137 1
  66   24  138 1
  67   24   25 1
  68   25   26 1
  69   25  139 1
  70   25  140 1
  71   26  141 1
  72   26  142 1
  73   26   27 1
  74   27   28 1
  75   27  143 1
  76   27  144 1
  77   28   29 1
  78   28  145 1
  79   28  146 1
  80   29  147 1
  81   29  148 1
  82   29   30 1
  83   30   31 1
  84   30  149 1
  85   30  150 1
  86   31  151 1
  87   31  152 1
  88   31  153 1
  89   32   33 1
  90   32   70 1
  91   32   71 2
  92   33   34 1
  93   33  154 1
  94   33  155 1
  95   34  156 1
  96   34  157 1
  97   34   35 1
  98   35   36 1
  99   35  158 1
 100   35  159 1
 101   36  160 1
 102   36  161 1
 103   36   72 1
 104   37   74 1
 105   37  162 1
 106   37   38 2
 107   38  163 1
 108   38   39 1
 109   39  164 1
 110   39  165 1
 111   39   40 1
 112   40  166 1
 113   40  167 1
 114   40   41 1
 115   41  168 1
 116   41  169 1
 117   41   42 1
 118   42  170 1
 119   42  171 1
 120   42   43 1
 121   43  172 1
 122   43  173 1
 123   43   44 1
 124   44  174 1
 125   44  175 1
 126   44   45 1
 127   45  176 1
 128   45  177 1
 129   45   46 1
 130   46  178 1
 131   46  179 1
 132   46  180 1
 133   47   48 1
 134   47   75 1
 135   47   76 2
 136   48  181 1
 137   48  182 1
 138   48   49 1
 139   49   50 1
 140   49  183 1
 141   49  184 1
 142   50  185 1
 143   50  186 1
 144   50   51 1
 145   51   77 1
 146   54   55 1
 147   55   57 2
 148   55   56 1
 149   55   58 1
 150   56  187 1
 151   58   59 1
 152   59  188 1
 153   59  189 1
 154   60   61 1
 155   61   62 1
 156   61   64 1
 157   61   63 2
 158   62  190 1
 159   67  191 1
 160   67  192 1
 161   67   68 1
 162   68  193 1
 163   68  194 1
 164   68   69 1
 165   69  195 1
 166   69  196 1
 167   72  197 1
 168   72  198 1
 169   72   73 1
 170   73  199 1
 171   73  200 1
 172   73   74 1
 173   74  201 1
 174   74  202 1
 175   77   78 2
 176   77   83 1
 177   78   79 1
 178   78   80 1
 179   79  203 1
 180   79  204 1
 181   79  205 1
 182   80   81 2
 183   80  206 1
 184   81   83 1
 185   81   82 1
 186   82  207 1
 187   82  208 1
 188   82  209 1
 189   83   84 1
 190   84   87 1
 191   84   85 1
 192   84   86 1
 193   87   88 2
 194   88   90 1
 195   88   89 1
 196   89  210 1
 197   89  211 1
 198   89  212 1
 199   90  213 1
 200   91  214 1
 201   91  215 1
 202   91   92 1
 203   92  216 1
 204   92  217 1
 205   92   93 1
 206   93  218 1
 207   93  219 1
 208   93   94 1
 209   94  220 1
 210   94  221 1
 211   94   95 1
 212   95  222 1
 213   95  223 1
 214   95   96 1
 215   96  224 1
 216   96  225 1
 217   96   97 1
 218   97  226 1
 219   97  227 1
 220   97   98 1
 221   98  228 1
 222   98   99 2
 223   99  229 1
 224   99  100 1
 225  100  101 1
 226  100  230 1
 227  100  231 1
 228  101  232 1
 229  101  233 1
 230  101  102 1
 231  102  103 1
 232  102  234 1
 233  102  235 1
 234  103  104 1
 235  103  236 1
 236  103  237 1
 237  104  105 1
 238  104  238 1
 239  104  239 1
 240  105  106 1
 241  105  240 1
 242  105  241 1
 243  106  107 1
 244  106  242 1
 245  106  243 1
 246  107  244 1
 247  107  245 1
 248  107  246 1

#	End of record

