#	Name: ASD13010012
#	Creating user name:	WinNT
#	Creation time:	15. 06. 2019 21:30

#	Modifying user name:	WinNT
#	Modification time:	15. 06. 2019 21:30

#	Program:	/corina/corina34_cracker 3.40 0067  02.08.2006

@<TRIPOS>MOLECULE
ASD13010012
  39   42    0    0    0
SMALL
NO_CHARGES


@<TRIPOS>ATOM
   1 C1            -0.0166     1.3727     0.0096 C.ar    
   2 C2             0.0021    -0.0041     0.0020 C.ar    
   3 C3             1.2065    -0.6957    -0.0127 C.ar    
   4 C4             2.3946    -0.0227    -0.0200 C.ar    
   5 C5             1.1823     2.0793     0.0019 C.ar    
   6 N6             1.4975     3.4168     0.0057 N.pl3   
   7 C7             2.4010     1.3746    -0.0130 C.ar    
   8 C8             3.4599     2.3856    -0.0179 C.2     
   9 N9             2.8887     3.5598    -0.0071 N.2     
  10 C10            0.5774     4.4640     0.0195 C.ar    
  11 O11            4.7969     2.1452    -0.0313 O.3     
  12 C12            5.6373     3.2135    -0.0339 C.ar    
  13 C13            6.0518     3.7694    -1.2365 C.ar    
  14 C14            6.0783     3.7545     1.1662 C.ar    
  15 C15            6.9331     4.8411     1.1603 C.ar    
  16 C16            7.3488     5.3890    -0.0392 C.ar    
  17 C17            6.9067     4.8560    -1.2359 C.ar    
  18 Cl18           5.4978     3.1006    -2.7396 Cl      
  19 C19           -1.2521     6.5454     0.0478 C.ar    
  20 C20           -1.5430     5.3662    -0.6451 C.ar    
  21 C21           -0.6321     4.3345    -0.6570 C.ar    
  22 C22            0.8679     5.6344     0.7146 C.ar    
  23 C23           -0.0384     6.6700     0.7307 C.ar    
  24 C24           -2.2253     7.6530     0.0624 C.2     
  25 O25           -3.2814     7.5417    -0.5281 O.2     
  26 O26           -1.9435     8.7888     0.7306 O.3     
  27 Cl27           5.5565     3.0676     2.6727 Cl      
  28 H28           -0.9579     1.9021     0.0169 H       
  29 H29           -0.9289    -0.5515     0.0080 H       
  30 H30            1.2032    -1.7757    -0.0182 H       
  31 H31            3.3264    -0.5687    -0.0308 H       
  32 H32            7.2763     5.2625     2.0936 H       
  33 H33            8.0166     6.2378    -0.0412 H       
  34 H34            7.2298     5.2887    -2.1712 H       
  35 H35           -2.4795     5.2667    -1.1736 H       
  36 H36           -0.8559     3.4236    -1.1923 H       
  37 H37            1.8054     5.7298     1.2422 H       
  38 H38            0.1894     7.5794     1.2669 H       
  39 H39           -2.6123     9.4869     0.7115 H       
@<TRIPOS>BOND
   1    1    2 ar
   2    1    5 ar
   3    1   28 1
   4    2    3 ar
   5    2   29 1
   6    3    4 ar
   7    3   30 1
   8    4    7 ar
   9    4   31 1
  10    5    7 ar
  11    5    6 1
  12    6    9 1
  13    6   10 1
  14    7    8 1
  15    8    9 2
  16    8   11 1
  17   10   22 ar
  18   10   21 ar
  19   11   12 1
  20   12   14 ar
  21   12   13 ar
  22   13   17 ar
  23   13   18 1
  24   14   15 ar
  25   14   27 1
  26   15   16 ar
  27   15   32 1
  28   16   17 ar
  29   16   33 1
  30   17   34 1
  31   19   20 ar
  32   19   23 ar
  33   19   24 1
  34   20   21 ar
  35   20   35 1
  36   21   36 1
  37   22   23 ar
  38   22   37 1
  39   23   38 1
  40   24   25 2
  41   24   26 1
  42   26   39 1

#	End of record

