#	Name: ASD10950014
#	Creating user name:	WinNT
#	Creation time:	15. 06. 2019 21:28

#	Modifying user name:	WinNT
#	Modification time:	15. 06. 2019 21:28

#	Program:	/corina/corina34_cracker 3.40 0067  02.08.2006

@<TRIPOS>MOLECULE
ASD10950014
  64   68    0    0    0
SMALL
NO_CHARGES


@<TRIPOS>ATOM
   1 C1            -2.3145     1.3074     0.4727 C.3     
   2 O2            -1.8998    -0.0808     0.3770 O.3     
   3 C3            -1.1212    -0.4157    -0.6700 C.2     
   4 O4            -0.7974     0.4288    -1.4808 O.2     
   5 C5            -0.6610    -1.8101    -0.8321 C.ar    
   6 C6             0.1462    -2.1607    -1.9161 C.ar    
   7 C7             0.5724    -3.4646    -2.0614 C.ar    
   8 C8             0.2017    -4.4241    -1.1360 C.ar    
   9 C9            -0.5980    -4.0836    -0.0594 C.ar    
  10 C10           -1.0265    -2.7822     0.1012 C.ar    
  11 C11            0.6707    -5.8467    -1.3016 C.3     
  12 N12            1.2064    -6.3524    -0.0323 N.am    
  13 C13            2.3477    -5.8012     0.7025 C.3     
  14 C14            1.8561    -4.7338     1.6823 C.3     
  15 C15            3.0302    -4.1669     2.4381 C.2     
  16 C16            3.4703    -4.5622     3.6430 C.2     
  17 N17            4.5583    -3.8177     4.0095 N.pl3   
  18 C18            4.8522    -2.9019     3.0242 C.ar    
  19 C19            3.9114    -3.0841     1.9944 C.ar    
  20 C20            3.9660    -2.2840     0.8514 C.ar    
  21 C21            4.9346    -1.3269     0.7391 C.ar    
  22 C22            5.8656    -1.1435     1.7524 C.ar    
  23 C23            5.8321    -1.9239     2.8870 C.ar    
  24 C24            0.4639    -7.4118     0.3371 C.2     
  25 O25            0.6379    -8.0679     1.3448 O.2     
  26 C26           -0.5950    -7.6592    -0.6639 C.2     
  27 C27           -0.4957    -6.7407    -1.6525 C.2     
  28 C28           -1.3548    -6.6333    -2.8363 C.2     
  29 O29           -2.5296    -6.3415    -2.7110 O.2     
  30 C30           -0.7947    -6.8792    -4.1791 C.ar    
  31 C31            0.5397    -7.2680    -4.3238 C.ar    
  32 C32            1.0563    -7.4964    -5.5806 C.ar    
  33 C33            0.2588    -7.3420    -6.7030 C.ar    
  34 C34           -1.0618    -6.9582    -6.5748 C.ar    
  35 C35           -1.6003    -6.7296    -5.3178 C.ar    
  36 O36           -2.8971    -6.3526    -5.1903 O.3     
  37 C37           -3.6525    -6.2095    -6.3949 C.3     
  38 O38           -1.5171    -8.6474    -0.6017 O.3     
  39 H39           -1.4338     1.9454     0.5468 H       
  40 H40           -2.8855     1.5781    -0.4154 H       
  41 H41           -2.9354     1.4409     1.3585 H       
  42 H42            0.4360    -1.4128    -2.6394 H       
  43 H43            1.1965    -3.7372    -2.8996 H       
  44 H44           -0.8840    -4.8375     0.6591 H       
  45 H45           -1.6507    -2.5177     0.9419 H       
  46 H46            1.4332    -5.9014    -2.0786 H       
  47 H47            2.8446    -6.5994     1.2539 H       
  48 H48            3.0503    -5.3533    -0.0003 H       
  49 H49            1.3593    -3.9356     1.1308 H       
  50 H50            1.1536    -5.1817     2.3851 H       
  51 H51            3.0305    -5.3507     4.2357 H       
  52 H52            5.0492    -3.9197     4.8398 H       
  53 H53            3.2455    -2.4214     0.0587 H       
  54 H54            4.9764    -0.7083    -0.1452 H       
  55 H55            6.6255    -0.3831     1.6490 H       
  56 H56            6.5608    -1.7735     3.6698 H       
  57 H57            1.1653    -7.3889    -3.4517 H       
  58 H58            2.0877    -7.7968    -5.6913 H       
  59 H59            0.6724    -7.5225    -7.6842 H       
  60 H60           -1.6769    -6.8400    -7.4546 H       
  61 H61           -4.6704    -5.9050    -6.1514 H       
  62 H62           -3.1883    -5.4527    -7.0271 H       
  63 H63           -3.6751    -7.1617    -6.9249 H       
  64 H64           -1.4368    -9.2117     0.1794 H       
@<TRIPOS>BOND
   1    1    2 1
   2    1   39 1
   3    1   40 1
   4    1   41 1
   5    2    3 1
   6    3    4 2
   7    3    5 1
   8    5    6 ar
   9    5   10 ar
  10    6    7 ar
  11    6   42 1
  12    7    8 ar
  13    7   43 1
  14    8    9 ar
  15    8   11 1
  16    9   10 ar
  17    9   44 1
  18   10   45 1
  19   11   12 1
  20   11   27 1
  21   11   46 1
  22   12   13 1
  23   12   24 am
  24   13   14 1
  25   13   47 1
  26   13   48 1
  27   14   15 1
  28   14   49 1
  29   14   50 1
  30   15   16 2
  31   15   19 1
  32   16   17 1
  33   16   51 1
  34   17   18 1
  35   17   52 1
  36   18   19 ar
  37   18   23 ar
  38   19   20 ar
  39   20   21 ar
  40   20   53 1
  41   21   22 ar
  42   21   54 1
  43   22   23 ar
  44   22   55 1
  45   23   56 1
  46   24   25 2
  47   24   26 1
  48   26   27 2
  49   26   38 1
  50   27   28 1
  51   28   29 2
  52   28   30 1
  53   30   31 ar
  54   30   35 ar
  55   31   32 ar
  56   31   57 1
  57   32   33 ar
  58   32   58 1
  59   33   34 ar
  60   33   59 1
  61   34   35 ar
  62   34   60 1
  63   35   36 1
  64   36   37 1
  65   37   61 1
  66   37   62 1
  67   37   63 1
  68   38   64 1

#	End of record

