#	Name: ASD10410244
#	Creating user name:	WinNT
#	Creation time:	15. 06. 2019 21:27

#	Modifying user name:	WinNT
#	Modification time:	15. 06. 2019 21:27

#	Program:	/corina/corina34_cracker 3.40 0067  02.08.2006

@<TRIPOS>MOLECULE
ASD10410244
  69   74    0    0    0
SMALL
NO_CHARGES


@<TRIPOS>ATOM
   1 C1             0.0474     1.2880     0.5356 C.ar    
   2 C2             0.0015    -0.0026     0.0294 C.ar    
   3 C3             1.1470    -0.5847    -0.4931 C.ar    
   4 C4             2.3343     0.1203    -0.5096 C.ar    
   5 C5             2.3811     1.4127    -0.0034 C.ar    
   6 C6             1.2337     1.9947     0.5195 C.ar    
   7 O7            -1.1672    -0.6978     0.0456 O.3     
   8 N8             3.5843     2.1280    -0.0193 N.pl3   
   9 C9             3.5673     3.5190    -0.1174 C.2     
  10 N10            4.6183     4.2991    -0.0406 N.2     
  11 N11            2.4764     4.2697    -0.3106 N.2     
  12 C12            2.8142     5.5405    -0.3549 C.2     
  13 N13            4.1618     5.6189    -0.1889 N.pl3   
  14 C14            4.9348     6.7769    -0.1703 C.ar    
  15 N15            1.9539     6.6052    -0.5401 N.pl3   
  16 N16            4.3449     7.9516    -0.3261 N.ar    
  17 C17           -1.1421    -2.0217    -0.4919 C.3     
  18 C18           -2.5373    -2.6409    -0.3879 C.3     
  19 N19           -3.4700    -1.8926    -1.2412 N.3     
  20 C20           -4.7615    -2.5947    -1.3549 C.3     
  21 C21           -5.8570    -1.6165    -0.8809 C.3     
  22 C22           -5.1887    -0.2283    -1.0634 C.3     
  23 C23           -3.7159    -0.5396    -0.6981 C.3     
  24 N24            6.2415     6.6794     0.0081 N.ar    
  25 C25            7.0109     7.7601     0.0325 C.ar    
  26 C26            6.4307     9.0010    -0.1416 C.ar    
  27 C27            5.0529     9.0670    -0.3174 C.ar    
  28 C28            8.4848     7.5994     0.2616 C.3     
  29 C29            9.2336     8.8365    -0.2332 C.3     
  30 C30            8.6181    10.0702     0.4269 C.3     
  31 C31            7.2201    10.2802    -0.1563 C.3     
  32 C32            9.0290     6.3639    -0.4523 C.3     
  33 C33           10.5173     6.2156    -0.1204 C.3     
  34 C34           11.2799     7.4618    -0.5707 C.3     
  35 C35           10.7125     8.7032     0.1251 C.3     
  36 H36           -0.8460     1.7419     0.9385 H       
  37 H37            1.1105    -1.5898    -0.8867 H       
  38 H38            3.2263    -0.3333    -0.9158 H       
  39 H39            1.2691     2.9998     0.9131 H       
  40 H40            4.4298     1.6561     0.0379 H       
  41 H41            1.0034     6.4470    -0.6518 H       
  42 H42            2.3002     7.5111    -0.5583 H       
  43 H43           -0.8387    -1.9833    -1.5381 H       
  44 H44           -0.4324    -2.6287     0.0702 H       
  45 H45           -2.4991    -3.6798    -0.7153 H       
  46 H46           -2.8775    -2.5983     0.6468 H       
  47 H47           -4.9401    -2.8769    -2.3925 H       
  48 H48           -4.7580    -3.4823    -0.7222 H       
  49 H49           -6.7460    -1.7014    -1.5058 H       
  50 H50           -6.1027    -1.7912     0.1666 H       
  51 H51           -5.2714     0.1121    -2.0956 H       
  52 H52           -5.6149     0.5035    -0.3772 H       
  53 H53           -3.5843    -0.5354     0.3839 H       
  54 H54           -3.0479     0.1840    -1.1653 H       
  55 H55            4.5662    10.0219    -0.4501 H       
  56 H56            8.6647     7.4829     1.3303 H       
  57 H57            9.1300     8.9144    -1.3154 H       
  58 H58            8.5474     9.9142     1.5034 H       
  59 H59            9.2368    10.9438     0.2217 H       
  60 H60            7.3104    10.6331    -1.1836 H       
  61 H61            6.6953    11.0312     0.4342 H       
  62 H62            8.4895     5.4793    -0.1139 H       
  63 H63            8.9048     6.4800    -1.5290 H       
  64 H64           10.6370     6.0873     0.9554 H       
  65 H65           10.9172     5.3414    -0.6341 H       
  66 H66           12.3338     7.3534    -0.3143 H       
  67 H67           11.1818     7.5756    -1.6503 H       
  68 H68           11.2511     9.5890    -0.2117 H       
  69 H69           10.8186     8.5974     1.2048 H       
@<TRIPOS>BOND
   1    1    2 ar
   2    1    6 ar
   3    1   36 1
   4    2    3 ar
   5    2    7 1
   6    3    4 ar
   7    3   37 1
   8    4    5 ar
   9    4   38 1
  10    5    6 ar
  11    5    8 1
  12    6   39 1
  13    7   17 1
  14    8    9 1
  15    8   40 1
  16    9   10 2
  17    9   11 1
  18   10   13 1
  19   11   12 2
  20   12   13 1
  21   12   15 1
  22   13   14 1
  23   14   16 ar
  24   14   24 ar
  25   15   41 1
  26   15   42 1
  27   16   27 ar
  28   17   18 1
  29   17   43 1
  30   17   44 1
  31   18   19 1
  32   18   45 1
  33   18   46 1
  34   19   20 1
  35   19   23 1
  36   20   21 1
  37   20   47 1
  38   20   48 1
  39   21   22 1
  40   21   49 1
  41   21   50 1
  42   22   23 1
  43   22   51 1
  44   22   52 1
  45   23   53 1
  46   23   54 1
  47   24   25 ar
  48   25   26 ar
  49   25   28 1
  50   26   27 ar
  51   26   31 1
  52   27   55 1
  53   28   29 1
  54   28   32 1
  55   28   56 1
  56   29   30 1
  57   29   35 1
  58   29   57 1
  59   30   31 1
  60   30   58 1
  61   30   59 1
  62   31   60 1
  63   31   61 1
  64   32   33 1
  65   32   62 1
  66   32   63 1
  67   33   34 1
  68   33   64 1
  69   33   65 1
  70   34   35 1
  71   34   66 1
  72   34   67 1
  73   35   68 1
  74   35   69 1

#	End of record

