#	Name: ASD11000265
#	Creating user name:	WinNT
#	Creation time:	15. 06. 2019 21:29

#	Modifying user name:	WinNT
#	Modification time:	15. 06. 2019 21:29

#	Program:	/corina/corina34_cracker 3.40 0067  02.08.2006

@<TRIPOS>MOLECULE
ASD11000265
  21   22    0    0    0
SMALL
NO_CHARGES


@<TRIPOS>ATOM
   1 N1            -0.0162     1.3415     0.0094 N.am    
   2 C2             0.0021    -0.0041     0.0020 C.2     
   3 C3             1.3059    -0.7558     0.0042 C.3     
   4 C4             2.3475     0.0059    -0.8160 C.3     
   5 C5             2.3615     1.4524    -0.3948 C.ar    
   6 C6             3.5444     2.1657    -0.4036 C.ar    
   7 C7             3.5548     3.4975    -0.0163 C.ar    
   8 C8             2.3774     4.1148     0.3808 C.ar    
   9 C9             1.1927     3.4025     0.3908 C.ar    
  10 C10            1.1826     2.0674     0.0019 C.ar    
  11 O11           -1.0441    -0.6180    -0.0061 O.2     
  12 O12            4.7197     4.1985    -0.0255 O.3     
  13 F13            0.0459     4.0027     0.7779 F       
  14 H14           -0.8644     1.8119     0.0160 H       
  15 H15            1.6602    -0.8631     1.0294 H       
  16 H16            1.1548    -1.7439    -0.4305 H       
  17 H17            3.3320    -0.4307    -0.6480 H       
  18 H18            2.0964    -0.0617    -1.8745 H       
  19 H19            4.4615     1.6862    -0.7125 H       
  20 H20            2.3865     5.1517     0.6826 H       
  21 H21            4.9033     4.6454    -0.8632 H       
@<TRIPOS>BOND
   1    1    2 am
   2    1   10 1
   3    1   14 1
   4    2    3 1
   5    2   11 2
   6    3    4 1
   7    3   15 1
   8    3   16 1
   9    4    5 1
  10    4   17 1
  11    4   18 1
  12    5    6 ar
  13    5   10 ar
  14    6    7 ar
  15    6   19 1
  16    7    8 ar
  17    7   12 1
  18    8    9 ar
  19    8   20 1
  20    9   10 ar
  21    9   13 1
  22   12   21 1

#	End of record

