#	Name: ASD10410215
#	Creating user name:	WinNT
#	Creation time:	15. 06. 2019 21:27

#	Modifying user name:	WinNT
#	Modification time:	15. 06. 2019 21:27

#	Program:	/corina/corina34_cracker 3.40 0067  02.08.2006

@<TRIPOS>MOLECULE
ASD10410215
  61   65    0    0    0
SMALL
NO_CHARGES


@<TRIPOS>ATOM
   1 C1             1.9409    -0.3942     0.9256 C.ar    
   2 C2             1.4560    -1.6882     0.8049 C.ar    
   3 C3             2.3151    -2.7678     0.9478 C.ar    
   4 C4             3.6541    -2.5553     1.2104 C.ar    
   5 C5             4.1405    -1.2601     1.3314 C.ar    
   6 C6             3.2796    -0.1798     1.1881 C.ar    
   7 O7             0.1374    -1.8984     0.5468 O.3     
   8 N8             5.4975    -1.0437     1.5980 N.pl3   
   9 C9             6.1253     0.1093     1.1276 C.2     
  10 N10            7.3659     0.4544     1.3756 N.2     
  11 N11            5.5595     1.0369     0.3465 N.2     
  12 C12            6.4288     1.9904     0.0886 C.2     
  13 N13            7.5926     1.6734     0.7163 N.pl3   
  14 C14            8.7753     2.4112     0.7067 C.ar    
  15 N15            6.2007     3.1122    -0.6847 N.pl3   
  16 N16            9.0268     3.2309    -0.2952 N.ar    
  17 C17           -0.2933    -3.2564     0.4352 C.3     
  18 C18           -1.7952    -3.2929     0.1455 C.3     
  19 N19           -2.0654    -2.6084    -1.1259 N.3     
  20 C20           -1.5447    -3.3886    -2.2687 C.3     
  21 C21           -2.5455    -3.1197    -3.4200 C.3     
  22 C22           -3.8952    -3.0691    -2.6566 C.3     
  23 C23           -3.5127    -2.4030    -1.3182 C.3     
  24 C24            9.6870     2.2798     1.7673 C.ar    
  25 N25           10.8049     2.9655     1.7760 N.ar    
  26 C26           11.0826     3.7994     0.7661 C.ar    
  27 C27           10.1626     3.9385    -0.3028 C.ar    
  28 C28           -0.1465    -2.9010    -2.6536 C.3     
  29 C29           -4.2879    -3.0556    -0.1718 C.3     
  30 C30           12.2733     4.5456     0.7502 C.ar    
  31 C31           12.5300     5.3855    -0.2896 C.ar    
  32 C32           11.6278     5.5183    -1.3433 C.ar    
  33 C33           10.4622     4.8158    -1.3593 C.ar    
  34 H34            1.2722     0.4459     0.8098 H       
  35 H35            1.9366    -3.7750     0.8541 H       
  36 H36            4.3227    -3.3960     1.3220 H       
  37 H37            3.6571     0.8278     1.2817 H       
  38 H38            6.0012    -1.6957     2.1099 H       
  39 H39            5.3326     3.2502    -1.0949 H       
  40 H40            6.9086     3.7619    -0.8174 H       
  41 H41            0.2455    -3.7428    -0.3779 H       
  42 H42           -0.0907    -3.7798     1.3696 H       
  43 H43           -2.1271    -4.3289     0.0782 H       
  44 H44           -2.3327    -2.7907     0.9499 H       
  45 H45           -1.5233    -4.4507    -2.0248 H       
  46 H46           -2.3355    -2.1665    -3.9053 H       
  47 H47           -2.5365    -3.9348    -4.1436 H       
  48 H48           -4.6207    -2.4606    -3.1965 H       
  49 H49           -4.2817    -4.0746    -2.4902 H       
  50 H50           -3.7338    -1.3364    -1.3582 H       
  51 H51            9.4651     1.6081     2.5833 H       
  52 H52            0.5517    -3.1268    -1.8476 H       
  53 H53            0.1757    -3.4043    -3.5651 H       
  54 H54           -0.1708    -1.8244    -2.8222 H       
  55 H55           -3.9937    -4.1014    -0.0833 H       
  56 H56           -4.0653    -2.5354     0.7598 H       
  57 H57           -5.3570    -2.9950    -0.3753 H       
  58 H58           12.9817     4.4532     1.5602 H       
  59 H59           13.4460     5.9575    -0.2980 H       
  60 H60           11.8547     6.1916    -2.1568 H       
  61 H61            9.7724     4.9284    -2.1827 H       
@<TRIPOS>BOND
   1    1    2 ar
   2    1    6 ar
   3    1   34 1
   4    2    3 ar
   5    2    7 1
   6    3    4 ar
   7    3   35 1
   8    4    5 ar
   9    4   36 1
  10    5    6 ar
  11    5    8 1
  12    6   37 1
  13    7   17 1
  14    8    9 1
  15    8   38 1
  16    9   10 2
  17    9   11 1
  18   10   13 1
  19   11   12 2
  20   12   13 1
  21   12   15 1
  22   13   14 1
  23   14   16 ar
  24   14   24 ar
  25   15   39 1
  26   15   40 1
  27   16   27 ar
  28   17   18 1
  29   17   41 1
  30   17   42 1
  31   18   19 1
  32   18   43 1
  33   18   44 1
  34   19   20 1
  35   19   23 1
  36   20   21 1
  37   20   28 1
  38   20   45 1
  39   21   22 1
  40   21   46 1
  41   21   47 1
  42   22   23 1
  43   22   48 1
  44   22   49 1
  45   23   29 1
  46   23   50 1
  47   24   25 ar
  48   24   51 1
  49   25   26 ar
  50   26   27 ar
  51   26   30 ar
  52   27   33 ar
  53   28   52 1
  54   28   53 1
  55   28   54 1
  56   29   55 1
  57   29   56 1
  58   29   57 1
  59   30   31 ar
  60   30   58 1
  61   31   32 ar
  62   31   59 1
  63   32   33 ar
  64   32   60 1
  65   33   61 1

#	End of record

