#	Name: ASD10220079
#	Creating user name:	WinNT
#	Creation time:	15. 06. 2019 21:26

#	Modifying user name:	WinNT
#	Modification time:	15. 06. 2019 21:26

#	Program:	/corina/corina34_cracker 3.40 0067  02.08.2006

@<TRIPOS>MOLECULE
ASD10220079
  39   41    0    0    0
SMALL
NO_CHARGES


@<TRIPOS>ATOM
   1 C1             0.0033     1.5125     0.4020 C.2     
   2 C2             0.0489     0.2212     0.9744 C.2     
   3 C3            -1.0783    -0.4316     1.3345 C.2     
   4 C4            -2.4060     0.1544     1.1551 C.2     
   5 C5            -2.5350     1.4180     0.6006 C.2     
   6 C6            -1.3328     2.1672     0.2000 C.2     
   7 O7            -3.6409    -0.3040     1.4348 O.3     
   8 C8            -4.5795     0.5825     1.0978 C.2     
   9 C9            -3.9733     1.7008     0.5629 C.2     
  10 C10           -4.6314     2.9201     0.0611 C.2     
  11 O11           -3.9613     3.8750    -0.2837 O.2     
  12 C12           -6.1032     2.9828    -0.0231 C.ar    
  13 C13           -6.7600     4.2106     0.1000 C.ar    
  14 C14           -8.1385     4.2664     0.0208 C.ar    
  15 C15           -8.8734     3.1007    -0.1815 C.ar    
  16 C16           -8.2216     1.8759    -0.3045 C.ar    
  17 C17           -6.8430     1.8151    -0.2318 C.ar    
  18 Br18          -0.9341    -2.1575     2.0938 Br      
  19 O19            1.0270     2.0846     0.0837 O.2     
  20 O20           -1.4194     3.2745    -0.2874 O.2     
  21 O21          -10.2288     3.1583    -0.2585 O.3     
  22 C22          -10.7971     3.3547    -1.5549 C.3     
  23 O23           -8.7781     5.4605     0.1409 O.3     
  24 C24           -7.9624     6.6156     0.3474 C.3     
  25 O25           -8.9423     0.7396    -0.5020 O.3     
  26 C26           -8.2092    -0.4814    -0.6194 C.3     
  27 H27            1.0062    -0.2549     1.1272 H       
  28 H28           -5.6435     0.4465     1.2235 H       
  29 H29           -6.1906     5.1148     0.2573 H       
  30 H30           -6.3380     0.8652    -0.3273 H       
  31 H31          -10.4399     4.2975    -1.9692 H       
  32 H32          -10.5011     2.5349    -2.2094 H       
  33 H33          -11.8838     3.3816    -1.4749 H       
  34 H34           -7.3897     6.4962     1.2671 H       
  35 H35           -7.2790     6.7327    -0.4936 H       
  36 H36           -8.5964     7.4987     0.4261 H       
  37 H37           -7.5275    -0.4158    -1.4674 H       
  38 H38           -7.6382    -0.6516     0.2934 H       
  39 H39           -8.9026    -1.3081    -0.7737 H       
@<TRIPOS>BOND
   1    1    2 1
   2    1   19 2
   3    1    6 1
   4    2    3 2
   5    2   27 1
   6    3    4 1
   7    3   18 1
   8    4    5 2
   9    4    7 1
  10    5    6 1
  11    5    9 1
  12    6   20 2
  13    7    8 1
  14    8    9 2
  15    8   28 1
  16    9   10 1
  17   10   11 2
  18   10   12 1
  19   12   13 ar
  20   12   17 ar
  21   13   14 ar
  22   13   29 1
  23   14   15 ar
  24   14   23 1
  25   15   16 ar
  26   15   21 1
  27   16   17 ar
  28   16   25 1
  29   17   30 1
  30   21   22 1
  31   22   31 1
  32   22   32 1
  33   22   33 1
  34   23   24 1
  35   24   34 1
  36   24   35 1
  37   24   36 1
  38   25   26 1
  39   26   37 1
  40   26   38 1
  41   26   39 1

#	End of record

