#	Name: ASD10160138
#	Creating user name:	WinNT
#	Creation time:	15. 06. 2019 21:25

#	Modifying user name:	WinNT
#	Modification time:	15. 06. 2019 21:25

#	Program:	/corina/corina34_cracker 3.40 0067  02.08.2006

@<TRIPOS>MOLECULE
ASD10160138
  52   54    0    0    0
SMALL
NO_CHARGES


@<TRIPOS>ATOM
   1 C1            -2.2278    -2.6081     4.8627 C.2     
   2 C2            -1.6266    -3.0100     3.5778 C.ar    
   3 C3            -0.3021    -3.4608     3.5328 C.ar    
   4 C4             0.2562    -3.8359     2.3274 C.ar    
   5 C5            -0.4939    -3.7659     1.1611 C.ar    
   6 C6            -1.8119    -3.3180     1.2016 C.ar    
   7 C7            -2.3796    -2.9474     2.4012 C.ar    
   8 O8            -1.5728    -2.6680     5.8855 O.2     
   9 N9            -3.5014    -2.1691     4.9028 N.am    
  10 S10           -4.1766    -1.7178     6.3459 S.o2    
  11 O11           -5.5060    -1.3452     6.0096 O.2     
  12 O12           -3.9201    -2.8153     7.2113 O.2     
  13 C13           -3.2190    -0.2651     6.8590 C.3     
  14 F14           -2.5369    -3.2521     0.0635 F       
  15 F15            0.4286    -3.5282     4.6672 F       
  16 O16            0.0593    -4.1349    -0.0222 O.3     
  17 C17            2.4213    -3.8526    -0.1457 C.ar    
  18 C18            1.3102    -4.6677    -0.0036 C.ar    
  19 C19            1.4894    -6.0392     0.1590 C.ar    
  20 C20            2.7802    -6.5384     0.1724 C.ar    
  21 C21            3.8485    -5.6589     0.0240 C.ar    
  22 N22            3.6391    -4.3611    -0.1280 N.ar    
  23 N23            5.1520    -6.1498     0.0359 N.pl3   
  24 N24            7.7962    -3.7326     1.0901 N.3     
  25 C25            6.6499    -4.6377     1.2423 C.3     
  26 C26            6.2823    -5.2309    -0.1198 C.3     
  27 C27            7.4864    -5.9920    -0.6813 C.3     
  28 C28            8.6801    -5.0386    -0.7843 C.3     
  29 C29            8.9782    -4.4510     0.5970 C.3     
  30 C30            8.0900    -3.0387     2.3511 C.3     
  31 Cl31           3.0630    -8.2395     0.3725 Cl      
  32 H32            1.2780    -4.1838     2.2914 H       
  33 H33           -3.4034    -2.6048     2.4320 H       
  34 H34           -4.0226    -2.1176     4.0863 H       
  35 H35           -3.3114     0.5161     6.1045 H       
  36 H36           -3.5996     0.1030     7.8117 H       
  37 H37           -2.1704    -0.5416     6.9692 H       
  38 H38            2.2892    -2.7888    -0.2767 H       
  39 H39            0.6410    -6.6977     0.2724 H       
  40 H40            5.3114    -7.1001     0.1473 H       
  41 H41            6.9109    -5.4420     1.9301 H       
  42 H42            5.7992    -4.0830     1.6383 H       
  43 H43            6.0071    -4.4282    -0.8040 H       
  44 H44            7.7369    -6.8188    -0.0166 H       
  45 H45            7.2433    -6.3796    -1.6706 H       
  46 H46            9.5523    -5.5850    -1.1433 H       
  47 H47            8.4434    -4.2329    -1.4792 H       
  48 H48            9.8186    -3.7608     0.5244 H       
  49 H49            9.2283    -5.2561     1.2879 H       
  50 H50            8.3235    -3.7717     3.1233 H       
  51 H51            8.9431    -2.3750     2.2104 H       
  52 H52            7.2215    -2.4546     2.6554 H       
@<TRIPOS>BOND
   1    1    2 1
   2    1    8 2
   3    1    9 am
   4    2    3 ar
   5    2    7 ar
   6    3    4 ar
   7    3   15 1
   8    4    5 ar
   9    4   32 1
  10    5    6 ar
  11    5   16 1
  12    6    7 ar
  13    6   14 1
  14    7   33 1
  15    9   10 am
  16    9   34 1
  17   10   11 2
  18   10   12 2
  19   10   13 1
  20   13   35 1
  21   13   36 1
  22   13   37 1
  23   16   18 1
  24   17   18 ar
  25   17   22 ar
  26   17   38 1
  27   18   19 ar
  28   19   20 ar
  29   19   39 1
  30   20   21 ar
  31   20   31 1
  32   21   22 ar
  33   21   23 1
  34   23   26 1
  35   23   40 1
  36   24   25 1
  37   24   29 1
  38   24   30 1
  39   25   26 1
  40   25   41 1
  41   25   42 1
  42   26   27 1
  43   26   43 1
  44   27   28 1
  45   27   44 1
  46   27   45 1
  47   28   29 1
  48   28   46 1
  49   28   47 1
  50   29   48 1
  51   29   49 1
  52   30   50 1
  53   30   51 1
  54   30   52 1

#	End of record

