#	Name: ASD10340015
#	Creating user name:	WinNT
#	Creation time:	15. 06. 2019 21:26

#	Modifying user name:	WinNT
#	Modification time:	15. 06. 2019 21:26

#	Program:	/corina/corina34_cracker 3.40 0067  02.08.2006

@<TRIPOS>MOLECULE
ASD10340015
  61   65    0    0    0
SMALL
NO_CHARGES


@<TRIPOS>ATOM
   1 C1            -0.0169     1.3957     0.0097 C.ar    
   2 C2             0.0021    -0.0041     0.0020 C.ar    
   3 C3             1.2200    -0.6315    -0.0129 C.ar    
   4 C4             2.3872     0.1228    -0.0200 C.ar    
   5 N5             2.3620     1.4367    -0.0123 N.ar    
   6 C6             1.2087     2.1059     0.0018 C.ar    
   7 N7             1.1716     3.4460     0.0098 N.ar    
   8 C8             0.0167     4.0847     0.0247 C.ar    
   9 N9            -1.1553     3.4562     0.0330 N.ar    
  10 C10           -1.2267     2.1327     0.0311 C.ar    
  11 N11           -2.4455     1.4906     0.0448 N.pl3   
  12 C12           -3.6847     2.2716     0.0669 C.3     
  13 C13           -4.8671     1.3374     0.0784 C.ar    
  14 C14           -5.5850     1.1455     1.2442 C.ar    
  15 C15           -6.6697     0.2893     1.2554 C.ar    
  16 C16           -7.0379    -0.3766     0.0996 C.ar    
  17 C17           -6.3201    -0.1851    -1.0671 C.ar    
  18 C18           -5.2375     0.6763    -1.0790 C.ar    
  19 N19            0.0258     5.4664     0.0324 N.3     
  20 C20            1.4005     5.9839     0.0219 C.3     
  21 C21            1.3685     7.5061    -0.1517 C.3     
  22 N22            0.4971     8.0766     0.8868 N.am    
  23 C23           -0.8521     7.5139     1.0494 C.3     
  24 C24           -0.7326     5.9914     1.1758 C.3     
  25 C25            0.9235     9.0884     1.6685 C.2     
  26 C26            0.0140     9.6579     2.7266 C.3     
  27 N27            0.4790    10.9996     3.1009 N.3     
  28 C28           -0.4062    11.6081     4.1022 C.3     
  29 C29           -0.4011    10.7571     5.3741 C.3     
  30 C30           -0.8778     9.3415     5.0371 C.3     
  31 C31            0.0317     8.7486     3.9574 C.3     
  32 Cl32          -4.3399     0.9224    -2.5445 Cl      
  33 Cl33          -8.4002    -1.4525     0.1140 Cl      
  34 O34            2.0391     9.5405     1.5203 O.2     
  35 H35           -1.0018     9.7212     2.3366 H       
  36 H36           -0.9162    -0.5726     0.0081 H       
  37 H37            1.2728    -1.7102    -0.0189 H       
  38 H38            3.3406    -0.3845    -0.0318 H       
  39 H39           -2.4831     0.5213     0.0399 H       
  40 H40           -3.7055     2.8950     0.9608 H       
  41 H41           -3.7308     2.9050    -0.8190 H       
  42 H42           -5.2978     1.6648     2.1466 H       
  43 H43           -7.2299     0.1396     2.1665 H       
  44 H44           -6.6069    -0.7048    -1.9693 H       
  45 H45            1.8899     5.7355     0.9637 H       
  46 H46            1.9518     5.5351    -0.8044 H       
  47 H47            2.3761     7.9081    -0.0456 H       
  48 H48            0.9742     7.7540    -1.1372 H       
  49 H49           -1.3125     7.9210     1.9496 H       
  50 H50           -1.4598     7.7626     0.1794 H       
  51 H51           -1.7283     5.5481     1.1863 H       
  52 H52           -0.2135     5.7429     2.1015 H       
  53 H53            1.4326    10.9731     3.4297 H       
  54 H54           -0.0536    12.6127     4.3360 H       
  55 H55           -1.4200    11.6624     3.7056 H       
  56 H56            0.6100    10.7138     5.7789 H       
  57 H57           -1.0702    11.2006     6.1114 H       
  58 H58           -0.8346     8.7200     5.9315 H       
  59 H59           -1.9030     9.3805     4.6687 H       
  60 H60           -0.3283     7.7571     3.6826 H       
  61 H61            1.0496     8.6737     4.3400 H       
@<TRIPOS>BOND
   1    1    2 ar
   2    1    6 ar
   3    1   10 ar
   4    2    3 ar
   5    2   36 1
   6    3    4 ar
   7    3   37 1
   8    4    5 ar
   9    4   38 1
  10    5    6 ar
  11    6    7 ar
  12    7    8 ar
  13    8    9 ar
  14    8   19 1
  15    9   10 ar
  16   10   11 1
  17   11   12 1
  18   11   39 1
  19   12   13 1
  20   12   40 1
  21   12   41 1
  22   13   14 ar
  23   13   18 ar
  24   14   15 ar
  25   14   42 1
  26   15   16 ar
  27   15   43 1
  28   16   17 ar
  29   16   33 1
  30   17   18 ar
  31   17   44 1
  32   18   32 1
  33   19   20 1
  34   19   24 1
  35   20   21 1
  36   20   45 1
  37   20   46 1
  38   21   22 1
  39   21   47 1
  40   21   48 1
  41   22   23 1
  42   22   25 am
  43   23   24 1
  44   23   49 1
  45   23   50 1
  46   24   51 1
  47   24   52 1
  48   25   26 1
  49   25   34 2
  50   26   27 1
  51   26   31 1
  52   26   35 1
  53   27   28 1
  54   27   53 1
  55   28   29 1
  56   28   54 1
  57   28   55 1
  58   29   30 1
  59   29   56 1
  60   29   57 1
  61   30   31 1
  62   30   58 1
  63   30   59 1
  64   31   60 1
  65   31   61 1

#	End of record

