#	Name: ASD11000322
#	Creating user name:	WinNT
#	Creation time:	15. 06. 2019 21:29

#	Modifying user name:	WinNT
#	Modification time:	15. 06. 2019 21:29

#	Program:	/corina/corina34_cracker 3.40 0067  02.08.2006

@<TRIPOS>MOLECULE
ASD11000322
  71   75    0    0    0
SMALL
NO_CHARGES


@<TRIPOS>ATOM
   1 N1            -0.0979     1.5472    -0.0325 N.am    
   2 C2            -0.0934     0.2068    -0.1391 C.2     
   3 C3             1.1097    -0.5309    -0.1549 C.2     
   4 C4             2.3029     0.1065    -0.0611 C.2     
   5 C5             2.3089     1.5659     0.0554 C.ar    
   6 C6             3.5082     2.2791     0.1545 C.ar    
   7 C7             3.4796     3.6407     0.2609 C.ar    
   8 C8             2.2707     4.3233     0.2716 C.ar    
   9 C9             1.0771     3.6414     0.1752 C.ar    
  10 C10            1.0813     2.2545     0.0660 C.ar    
  11 O11           -1.1550    -0.3860    -0.2238 O.2     
  12 C12           -1.3740     2.2667    -0.0270 C.3     
  13 O13           -1.5639     2.9094    -1.2891 O.3     
  14 C14           -2.0362     2.0389    -2.3193 C.3     
  15 C15           -2.2024     2.8296    -3.6186 C.3     
  16 Si16          -2.8182     1.6948    -4.9616 Si      
  17 C17           -4.4606     0.9726    -4.4598 C.3     
  18 C18           -3.0206     2.6576    -6.5437 C.3     
  19 C19           -1.5893     0.3195    -5.2245 C.3     
  20 C20            4.7718     4.4087     0.3681 C.3     
  21 C21            5.0715     5.4425    -0.7192 C.3     
  22 C22            4.6815     5.9023     0.6870 C.3     
  23 C23            9.0633     5.9311    -1.8738 C.ar    
  24 N24            8.1699     5.5561    -2.7776 N.ar    
  25 C25            6.9001     5.3924    -2.4456 C.ar    
  26 C26            6.5093     5.6182    -1.1350 C.ar    
  27 C27            7.4697     6.0094    -0.2152 C.ar    
  28 N28            8.7227     6.1549    -0.6130 N.ar    
  29 N29           10.3857     6.0873    -2.2547 N.pl3   
  30 C30           11.3205     6.5983    -1.3457 C.ar    
  31 C31           12.6348     6.1512    -1.3759 C.ar    
  32 C32           13.5562     6.6559    -0.4795 C.ar    
  33 C33           13.1690     7.6092     0.4508 C.ar    
  34 C34           11.8562     8.0559     0.4819 C.ar    
  35 C35           10.9350     7.5564    -0.4175 C.ar    
  36 O36           14.0769     8.1057     1.3332 O.3     
  37 C37           13.6093     9.0845     2.2634 C.3     
  38 F38           13.1177    10.1932     1.5659 F       
  39 F39           12.5875     8.5346     3.0448 F       
  40 H40            1.0799    -1.6070    -0.2417 H       
  41 H41            3.2283    -0.4502    -0.0717 H       
  42 H42            4.4527     1.7555     0.1472 H       
  43 H43            2.2656     5.3999     0.3567 H       
  44 H44            0.1419     4.1815     0.1847 H       
  45 H45           -2.1873     1.5626     0.1483 H       
  46 H46           -1.3651     3.0160     0.7646 H       
  47 H47           -1.3172     1.2343    -2.4731 H       
  48 H48           -2.9971     1.6164    -2.0257 H       
  49 H49           -2.9214     3.6343    -3.4648 H       
  50 H50           -1.2415     3.2522    -3.9122 H       
  51 H51           -5.1796     1.7773    -4.3060 H       
  52 H52           -4.8209     0.3087    -5.2456 H       
  53 H53           -4.3422     0.4093    -3.5342 H       
  54 H54           -2.0596     3.0801    -6.8373 H       
  55 H55           -3.3808     1.9936    -7.3295 H       
  56 H56           -3.7396     3.4622    -6.3899 H       
  57 H57           -1.4709    -0.2438    -4.2988 H       
  58 H58           -1.9496    -0.3444    -6.0103 H       
  59 H59           -0.6284     0.7421    -5.5181 H       
  60 H60            5.6145     3.8553     0.7825 H       
  61 H61            4.3340     5.5671    -1.5121 H       
  62 H62            3.6874     6.3295     0.8191 H       
  63 H63            5.4648     6.3320     1.3113 H       
  64 H64            6.1764     5.0870    -3.1868 H       
  65 H65            7.1980     6.1936     0.8137 H       
  66 H66           10.6644     5.8429    -3.1510 H       
  67 H67           12.9364     5.4088    -2.0999 H       
  68 H68           14.5784     6.3080    -0.5026 H       
  69 H69           11.5554     8.7979     1.2068 H       
  70 H70            9.9140     7.9079    -0.3964 H       
  71 H71           14.4317     9.3958     2.9074 H       
@<TRIPOS>BOND
   1    1    2 am
   2    1   10 1
   3    1   12 1
   4    2    3 1
   5    2   11 2
   6    3    4 2
   7    3   40 1
   8    4    5 1
   9    4   41 1
  10    5    6 ar
  11    5   10 ar
  12    6    7 ar
  13    6   42 1
  14    7    8 ar
  15    7   20 1
  16    8    9 ar
  17    8   43 1
  18    9   10 ar
  19    9   44 1
  20   12   13 1
  21   12   45 1
  22   12   46 1
  23   13   14 1
  24   14   15 1
  25   14   47 1
  26   14   48 1
  27   15   16 1
  28   15   49 1
  29   15   50 1
  30   16   17 1
  31   16   18 1
  32   16   19 1
  33   17   51 1
  34   17   52 1
  35   17   53 1
  36   18   54 1
  37   18   55 1
  38   18   56 1
  39   19   57 1
  40   19   58 1
  41   19   59 1
  42   20   21 1
  43   20   22 1
  44   20   60 1
  45   21   22 1
  46   21   26 1
  47   21   61 1
  48   22   62 1
  49   22   63 1
  50   23   24 ar
  51   23   28 ar
  52   23   29 1
  53   24   25 ar
  54   25   26 ar
  55   25   64 1
  56   26   27 ar
  57   27   28 ar
  58   27   65 1
  59   29   30 1
  60   29   66 1
  61   30   31 ar
  62   30   35 ar
  63   31   32 ar
  64   31   67 1
  65   32   33 ar
  66   32   68 1
  67   33   34 ar
  68   33   36 1
  69   34   35 ar
  70   34   69 1
  71   35   70 1
  72   36   37 1
  73   37   38 1
  74   37   39 1
  75   37   71 1

#	End of record

