#	Name: ASD10160258
#	Creating user name:	WinNT
#	Creation time:	15. 06. 2019 21:25

#	Modifying user name:	WinNT
#	Modification time:	15. 06. 2019 21:25

#	Program:	/corina/corina34_cracker 3.40 0067  02.08.2006

@<TRIPOS>MOLECULE
ASD10160258
  39   41    0    0    0
SMALL
NO_CHARGES


@<TRIPOS>ATOM
   1 C1            -0.1570     1.4664     0.0376 C.2     
   2 C2            -0.1004    -0.0069     0.0223 C.ar    
   3 C3             1.1265    -0.6608    -0.1435 C.ar    
   4 C4             1.1737    -2.0402    -0.1572 C.ar    
   5 C5             0.0068    -2.7780    -0.0068 C.ar    
   6 C6            -1.2144    -2.1311     0.1581 C.ar    
   7 C7            -1.2708    -0.7552     0.1789 C.ar    
   8 O8             0.8629     2.1155    -0.0938 O.2     
   9 N9            -1.3398     2.0938     0.1917 N.am    
  10 S10           -1.4034     3.7485     0.2090 S.o2    
  11 O11           -2.7784     4.0443     0.4117 O.2     
  12 O12           -0.4238     4.1268     1.1663 O.2     
  13 C13           -0.8860     4.2388    -1.4591 C.3     
  14 O14            0.0574    -4.1341    -0.0213 O.3     
  15 C15            0.2124    -8.3329    -1.0403 C.2     
  16 N16           -0.0918    -8.1322    -2.2895 N.2     
  17 C17           -0.2648    -6.8036    -2.5097 C.ar    
  18 C18           -0.0448    -6.1538    -1.2851 C.ar    
  19 N19            0.2554    -7.1484    -0.3740 N.pl3   
  20 C20           -0.5935    -6.0494    -3.6406 C.ar    
  21 C21           -0.6984    -4.6806    -3.5450 C.ar    
  22 C22           -0.4809    -4.0391    -2.3345 C.ar    
  23 C23           -0.1545    -4.7680    -1.2049 C.ar    
  24 C24            0.5628    -6.9614     1.0461 C.3     
  25 F25            2.2617     0.0568    -0.2902 F       
  26 Cl26          -2.6686    -3.0606     0.3454 Cl      
  27 H27            2.1192    -2.5463    -0.2852 H       
  28 H28           -2.2187    -0.2549     0.3114 H       
  29 H29           -2.1539     1.5761     0.2925 H       
  30 H30           -1.5713     3.8128    -2.1920 H       
  31 H31           -0.8986     5.3258    -1.5387 H       
  32 H32            0.1228     3.8722    -1.6490 H       
  33 H33            0.3990    -9.2997    -0.5965 H       
  34 H34           -0.7643    -6.5403    -4.5873 H       
  35 H35           -0.9520    -4.1008    -4.4201 H       
  36 H36           -0.5666    -2.9642    -2.2737 H       
  37 H37            1.6368    -6.8224     1.1701 H       
  38 H38            0.0373    -6.0823     1.4189 H       
  39 H39            0.2432    -7.8404     1.6059 H       
@<TRIPOS>BOND
   1    1    2 1
   2    1    8 2
   3    1    9 am
   4    2    3 ar
   5    2    7 ar
   6    3    4 ar
   7    3   25 1
   8    4    5 ar
   9    4   27 1
  10    5    6 ar
  11    5   14 1
  12    6    7 ar
  13    6   26 1
  14    7   28 1
  15    9   10 am
  16    9   29 1
  17   10   11 2
  18   10   12 2
  19   10   13 1
  20   13   30 1
  21   13   31 1
  22   13   32 1
  23   14   23 1
  24   15   16 2
  25   15   19 1
  26   15   33 1
  27   16   17 1
  28   17   18 ar
  29   17   20 ar
  30   18   19 1
  31   18   23 ar
  32   19   24 1
  33   20   21 ar
  34   20   34 1
  35   21   22 ar
  36   21   35 1
  37   22   23 ar
  38   22   36 1
  39   24   37 1
  40   24   38 1
  41   24   39 1

#	End of record

