#	Name: ASD10160307
#	Creating user name:	WinNT
#	Creation time:	15. 06. 2019 21:25

#	Modifying user name:	WinNT
#	Modification time:	15. 06. 2019 21:25

#	Program:	/corina/corina34_cracker 3.40 0067  02.08.2006

@<TRIPOS>MOLECULE
ASD10160307
  27   28    0    0    0
SMALL
NO_CHARGES


@<TRIPOS>ATOM
   1 C1            -0.0167     1.3812     0.0096 C.ar    
   2 C2             0.0021    -0.0041     0.0020 C.ar    
   3 C3             1.2262    -0.6663    -0.0132 C.ar    
   4 C4             2.3855     0.0912    -0.0202 C.ar    
   5 C5             2.2884     1.4774    -0.0118 C.ar    
   6 N6             1.1077     2.0719     0.0026 N.ar    
   7 O7            -1.1613    -0.7082     0.0098 O.3     
   8 O8             3.4188     2.2296    -0.0181 O.3     
   9 C9             4.2965     5.8213     0.6415 C.3     
  10 C10            4.4426     4.2987     0.7055 C.3     
  11 C11            3.2535     3.6490    -0.0089 C.3     
  12 C12            3.1922     4.1671    -1.4491 C.3     
  13 C13            3.0944     5.6947    -1.4299 C.3     
  14 O14            4.2142     6.2336    -0.7243 O.3     
  15 Cl15           3.9402    -0.6810    -0.0386 Cl      
  16 H16           -0.9628     1.9020     0.0169 H       
  17 H17            1.2709    -1.7453    -0.0191 H       
  18 H18           -1.5066    -0.9072    -0.8713 H       
  19 H19            3.3902     6.1220     1.1672 H       
  20 H20            5.1616     6.2895     1.1110 H       
  21 H21            5.3693     4.0007     0.2151 H       
  22 H22            4.4612     3.9781     1.7471 H       
  23 H23            2.3309     3.9053     0.5118 H       
  24 H24            4.0937     3.8664    -1.9831 H       
  25 H25            2.3166     3.7523    -1.9485 H       
  26 H26            3.0936     6.0718    -2.4526 H       
  27 H27            2.1724     5.9938    -0.9313 H       
@<TRIPOS>BOND
   1    1    2 ar
   2    1    6 ar
   3    1   16 1
   4    2    3 ar
   5    2    7 1
   6    3    4 ar
   7    3   17 1
   8    4    5 ar
   9    4   15 1
  10    5    6 ar
  11    5    8 1
  12    7   18 1
  13    8   11 1
  14    9   10 1
  15    9   14 1
  16    9   19 1
  17    9   20 1
  18   10   11 1
  19   10   21 1
  20   10   22 1
  21   11   12 1
  22   11   23 1
  23   12   13 1
  24   12   24 1
  25   12   25 1
  26   13   14 1
  27   13   26 1
  28   13   27 1

#	End of record

