#	Name: ASD10220172
#	Creating user name:	WinNT
#	Creation time:	15. 06. 2019 21:26

#	Modifying user name:	WinNT
#	Modification time:	15. 06. 2019 21:26

#	Program:	/corina/corina34_cracker 3.40 0067  02.08.2006

@<TRIPOS>MOLECULE
ASD10220172
  31   33    0    0    0
SMALL
NO_CHARGES


@<TRIPOS>ATOM
   1 C1            -0.0299     1.4254     0.1758 C.ar    
   2 C2            -0.0213     0.0435     0.2948 C.ar    
   3 C3             1.1711    -0.6507     0.3429 C.ar    
   4 C4             2.3773     0.0361     0.2714 C.ar    
   5 C5             2.3644     1.4333     0.1506 C.ar    
   6 C6             1.1574     2.1227     0.1035 C.ar    
   7 O7             3.6667    -0.3610     0.2924 O.3     
   8 C8             4.4995     0.6813     0.1935 C.2     
   9 C9             3.7841     1.8371     0.1009 C.2     
  10 C10            4.3150     3.2021    -0.0235 C.2     
  11 O11            3.5563     4.1356    -0.2075 O.2     
  12 C12            5.7685     3.4407     0.0748 C.ar    
  13 C13            6.3504     4.5129    -0.6073 C.ar    
  14 C14            7.7064     4.7322    -0.5126 C.ar    
  15 C15            8.4965     3.8889     0.2601 C.ar    
  16 C16            7.9217     2.8214     0.9401 C.ar    
  17 C17            6.5657     2.5983     0.8549 C.ar    
  18 Br18           1.1633    -2.5346     0.5067 Br      
  19 Br19          -1.6580    -0.8985     0.3928 Br      
  20 O20            9.8327     4.1082     0.3504 O.3     
  21 C21           10.5852     3.2036     1.1613 C.3     
  22 H22           -0.9695     1.9564     0.1351 H       
  23 H23            1.1502     3.1986     0.0101 H       
  24 H24            5.5775     0.6163     0.1883 H       
  25 H25            5.7373     5.1683    -1.2081 H       
  26 H26            8.1568     5.5603    -1.0397 H       
  27 H27            8.5390     2.1685     1.5394 H       
  28 H28            6.1198     1.7689     1.3838 H       
  29 H29           10.2129     3.2378     2.1852 H       
  30 H30           10.4803     2.1917     0.7702 H       
  31 H31           11.6364     3.4915     1.1472 H       
@<TRIPOS>BOND
   1    1    2 ar
   2    1    6 ar
   3    1   22 1
   4    2    3 ar
   5    2   19 1
   6    3    4 ar
   7    3   18 1
   8    4    5 ar
   9    4    7 1
  10    5    6 ar
  11    5    9 1
  12    6   23 1
  13    7    8 1
  14    8    9 2
  15    8   24 1
  16    9   10 1
  17   10   11 2
  18   10   12 1
  19   12   13 ar
  20   12   17 ar
  21   13   14 ar
  22   13   25 1
  23   14   15 ar
  24   14   26 1
  25   15   16 ar
  26   15   20 1
  27   16   17 ar
  28   16   27 1
  29   17   28 1
  30   20   21 1
  31   21   29 1
  32   21   30 1
  33   21   31 1

#	End of record

