#	Name: ASD11000066
#	Creating user name:	WinNT
#	Creation time:	15. 06. 2019 21:28

#	Modifying user name:	WinNT
#	Modification time:	15. 06. 2019 21:28

#	Program:	/corina/corina34_cracker 3.40 0067  02.08.2006

@<TRIPOS>MOLECULE
ASD11000066
  55   57    0    0    0
SMALL
NO_CHARGES


@<TRIPOS>ATOM
   1 C1            -0.0167     1.3794     0.0096 C.ar    
   2 C2             0.0021    -0.0041     0.0020 C.ar    
   3 C3            -1.1813    -0.7131     0.0095 C.ar    
   4 C4            -2.3995    -0.0315     0.0248 C.ar    
   5 C5            -2.4113     1.3644     0.0324 C.ar    
   6 C6            -1.2206     2.0611     0.0305 C.ar    
   7 C7            -3.6712    -0.7845     0.0324 C.2     
   8 O8            -3.6579    -2.0000     0.0254 O.2     
   9 N9            -4.8457    -0.1235     0.0472 N.am    
  10 C10           -6.0370    -0.8290     0.0543 C.2     
  11 C11           -7.2802    -0.2529     0.0692 C.2     
  12 C12           -8.3543    -1.2323     0.0737 C.2     
  13 C13           -7.9062    -2.4929     0.0623 C.2     
  14 S14           -6.1524    -2.5287     0.0383 S.3     
  15 C15           -7.5026     1.1926     0.0800 C.2     
  16 O16           -7.5939     1.8523     1.2532 O.3     
  17 O17           -7.6052     1.8001    -0.9690 O.2     
  18 C18            1.2800     2.1472     0.0014 C.3     
  19 C19            2.0744     1.7932    -1.2574 C.3     
  20 C20            0.9840     3.6483     0.0123 C.3     
  21 C21            2.0982     1.7798     1.2409 C.3     
  22 C22           -9.7925    -0.8728     0.0900 C.ar    
  23 C23          -10.6675    -1.4501    -0.8294 C.ar    
  24 C24          -10.2741     0.0390     1.0284 C.ar    
  25 C25          -11.6127     0.3714     1.0408 C.ar    
  26 C26          -12.4801    -0.2012     0.1207 C.ar    
  27 C27          -12.0048    -1.1134    -0.8115 C.ar    
  28 O28          -13.7987     0.1277     0.1362 O.3     
  29 C29          -16.0742    -0.0082    -0.6666 C.3     
  30 C30          -14.6351    -0.4987    -0.8386 C.3     
  31 H31            0.9453    -0.5301    -0.0102 H       
  32 H32           -1.1652    -1.7929     0.0032 H       
  33 H33           -3.3503     1.8978     0.0439 H       
  34 H34           -1.2282     3.1411     0.0364 H       
  35 H35           -4.8563     0.8464     0.0528 H       
  36 H36           -8.5380    -3.3688     0.0636 H       
  37 H37           -7.7412     2.8070     1.2097 H       
  38 H38            1.4915     2.0550    -2.1405 H       
  39 H39            3.0122     2.3485    -1.2634 H       
  40 H40            2.2853     0.7238    -1.2652 H       
  41 H41            0.4181     3.9005     0.9090 H       
  42 H42            1.9219     4.2036     0.0063 H       
  43 H43            0.4011     3.9101    -0.8708 H       
  44 H44            2.3091     0.7104     1.2331 H       
  45 H45            3.0361     2.3351     1.2349 H       
  46 H46            1.5323     2.0320     2.1377 H       
  47 H47          -10.2983    -2.1599    -1.5549 H       
  48 H48           -9.5999     0.4844     1.7450 H       
  49 H49          -11.9864     1.0776     1.7674 H       
  50 H50          -12.6823    -1.5568    -1.5262 H       
  51 H51          -16.4277    -0.2623     0.3326 H       
  52 H52          -16.1078     1.0731    -0.7999 H       
  53 H53          -16.7121    -0.4860    -1.4102 H       
  54 H54          -14.2816    -0.2446    -1.8378 H       
  55 H55          -14.6014    -1.5800    -0.7053 H       
@<TRIPOS>BOND
   1    1    2 ar
   2    1   18 1
   3    1    6 ar
   4    2    3 ar
   5    2   31 1
   6    3    4 ar
   7    3   32 1
   8    4    5 ar
   9    4    7 1
  10    5    6 ar
  11    5   33 1
  12    6   34 1
  13    7    8 2
  14    7    9 am
  15    9   10 1
  16    9   35 1
  17   10   11 2
  18   10   14 1
  19   11   12 1
  20   11   15 1
  21   12   13 2
  22   12   22 1
  23   13   14 1
  24   13   36 1
  25   15   16 1
  26   15   17 2
  27   16   37 1
  28   18   19 1
  29   18   20 1
  30   18   21 1
  31   19   38 1
  32   19   39 1
  33   19   40 1
  34   20   41 1
  35   20   42 1
  36   20   43 1
  37   21   44 1
  38   21   45 1
  39   21   46 1
  40   22   23 ar
  41   22   24 ar
  42   23   27 ar
  43   23   47 1
  44   24   25 ar
  45   24   48 1
  46   25   26 ar
  47   25   49 1
  48   26   27 ar
  49   26   28 1
  50   27   50 1
  51   28   30 1
  52   29   30 1
  53   29   51 1
  54   29   52 1
  55   29   53 1
  56   30   54 1
  57   30   55 1

#	End of record

