#	Name: ASD13110004
#	Creating user name:	WinNT
#	Creation time:	15. 06. 2019 21:30

#	Modifying user name:	WinNT
#	Modification time:	15. 06. 2019 21:30

#	Program:	/corina/corina34_cracker 3.40 0067  02.08.2006

@<TRIPOS>MOLECULE
ASD13110004
  59   61    0    0    0
SMALL
NO_CHARGES


@<TRIPOS>ATOM
   1 C1            -0.1102     1.5039    -0.5699 C.3     
   2 C2            -0.0515     0.0102    -0.3789 C.2     
   3 O3             1.0191    -0.5596    -0.3798 O.2     
   4 Cl4            0.9363     1.6310    -3.3912 Cl      
   5 C5             1.8445     2.1373    -2.0010 C.ar    
   6 C6             1.2865     2.0441    -0.7387 C.ar    
   7 N7            -1.1888    -0.6924    -0.2072 N.am    
   8 C8            -1.1740    -2.1614    -0.1079 C.3     
   9 C9            -1.6530    -2.5421     1.2921 C.3     
  10 C10           -2.9048    -1.7871     1.6543 C.ar    
  11 C11           -3.2890    -0.6279     1.0178 C.ar    
  12 C12           -2.4906    -0.0242    -0.1053 C.3     
  13 C13            2.0109     2.4472     0.3687 C.ar    
  14 C14            3.1286     2.6288    -2.1549 C.ar    
  15 C15            3.8520     3.0315    -1.0481 C.ar    
  16 C16            3.2931     2.9435     0.2130 C.ar    
  17 C17           -3.6912    -2.2981     2.6794 C.ar    
  18 C18           -4.8462    -1.6511     3.0671 C.ar    
  19 C19           -5.2264    -0.4835     2.4324 C.ar    
  20 C20           -4.4476     0.0262     1.4129 C.ar    
  21 C21           -1.8691    -4.5355     5.1964 C.3     
  22 C22           -0.8775    -4.2084     6.3148 C.3     
  23 C23           -1.2073    -5.4757     4.1870 C.3     
  24 O24           -3.0225    -5.1696     5.7529 O.3     
  25 C25            0.2482    -2.6808    -0.3276 C.3     
  26 C26           -3.2561    -0.1977    -1.4187 C.3     
  27 O27            1.0689    -2.3053     0.7803 O.3     
  28 Cl28           1.3113     2.3311     1.9532 Cl      
  29 C29           -2.2875    -3.2435     4.4918 C.3     
  30 C30           -3.2791    -3.5707     3.3734 C.3     
  31 H31           -0.6985     1.7338    -1.4583 H       
  32 H32           -0.5747     1.9638     0.3024 H       
  33 H33           -1.8428    -2.5882    -0.8553 H       
  34 H34           -1.8583    -3.6121     1.3221 H       
  35 H35           -0.8712    -2.3075     2.0146 H       
  36 H36           -2.3392     1.0378     0.0880 H       
  37 H37            3.5660     2.6975    -3.1399 H       
  38 H38            4.8544     3.4151    -1.1687 H       
  39 H39            3.8588     3.2583     1.0775 H       
  40 H40           -5.4520    -2.0559     3.8643 H       
  41 H41           -6.1278     0.0291     2.7342 H       
  42 H42           -4.7446     0.9382     0.9164 H       
  43 H43            0.0023    -3.7247     5.8903 H       
  44 H44           -1.3490    -3.5386     7.0339 H       
  45 H45           -0.5794    -5.1288     6.8168 H       
  46 H46           -0.9093    -6.3962     4.6890 H       
  47 H47           -1.9138    -5.7088     3.3903 H       
  48 H48           -0.3276    -4.9921     3.7625 H       
  49 H49           -3.4931    -4.6298     6.4026 H       
  50 H50            0.2290    -3.7673    -0.4137 H       
  51 H51            0.6547    -2.2509    -1.2430 H       
  52 H52           -3.4066    -1.2595    -1.6140 H       
  53 H53           -4.2236     0.2986    -1.3436 H       
  54 H54           -2.6834     0.2441    -2.2341 H       
  55 H55            1.9864    -2.6021     0.7086 H       
  56 H56           -2.7590    -2.5737     5.2109 H       
  57 H57           -1.4077    -2.7599     4.0673 H       
  58 H58           -4.1589    -4.0543     3.7979 H       
  59 H59           -2.8076    -4.2405     2.6543 H       
@<TRIPOS>BOND
   1    1    2 1
   2    1    6 1
   3    1   31 1
   4    1   32 1
   5    2    3 2
   6    2    7 am
   7    4    5 1
   8    5   14 ar
   9    5    6 ar
  10    6   13 ar
  11    7    8 1
  12    7   12 1
  13    8    9 1
  14    8   25 1
  15    8   33 1
  16    9   10 1
  17    9   34 1
  18    9   35 1
  19   10   11 ar
  20   10   17 ar
  21   11   12 1
  22   11   20 ar
  23   12   26 1
  24   12   36 1
  25   13   16 ar
  26   13   28 1
  27   14   15 ar
  28   14   37 1
  29   15   16 ar
  30   15   38 1
  31   16   39 1
  32   17   18 ar
  33   17   30 1
  34   18   19 ar
  35   18   40 1
  36   19   20 ar
  37   19   41 1
  38   20   42 1
  39   21   22 1
  40   21   23 1
  41   21   24 1
  42   21   29 1
  43   22   43 1
  44   22   44 1
  45   22   45 1
  46   23   46 1
  47   23   47 1
  48   23   48 1
  49   24   49 1
  50   25   27 1
  51   25   50 1
  52   25   51 1
  53   26   52 1
  54   26   53 1
  55   26   54 1
  56   27   55 1
  57   29   30 1
  58   29   56 1
  59   29   57 1
  60   30   58 1
  61   30   59 1

#	End of record

