#	Name: ASD10160212
#	Creating user name:	WinNT
#	Creation time:	15. 06. 2019 21:25

#	Modifying user name:	WinNT
#	Modification time:	15. 06. 2019 21:25

#	Program:	/corina/corina34_cracker 3.40 0067  02.08.2006

@<TRIPOS>MOLECULE
ASD10160212
  33   34    0    0    0
SMALL
NO_CHARGES


@<TRIPOS>ATOM
   1 C1            -0.1298     1.4675     0.0320 C.2     
   2 C2            -0.0804    -0.0062     0.0182 C.ar    
   3 C3             1.1442    -0.6661    -0.1379 C.ar    
   4 C4             1.1853    -2.0458    -0.1503 C.ar    
   5 C5             0.0145    -2.7784    -0.0086 C.ar    
   6 C6            -1.2058    -2.1257     0.1464 C.ar    
   7 C7            -1.2558    -0.7486     0.1666 C.ar    
   8 O8             0.8942     2.1114    -0.0923 O.2     
   9 N9            -1.3107     2.1008     0.1768 N.am    
  10 S10           -1.3662     3.7558     0.1923 S.o2    
  11 O11           -2.7413     4.0585     0.3846 O.2     
  12 O12           -0.3919     4.1301     1.1566 O.2     
  13 C13           -0.8341     4.2422    -1.4722 C.3     
  14 F14           -2.3420    -2.8437     0.2833 F       
  15 F15            2.2838     0.0461    -0.2767 F       
  16 O16            0.0593    -4.1350    -0.0218 O.3     
  17 C17           -0.0420    -6.1613    -1.2939 C.ar    
  18 C18           -0.1514    -4.7679    -1.2034 C.ar    
  19 C19           -0.4802    -4.0432    -2.3452 C.ar    
  20 C20           -0.6863    -4.7330    -3.5278 C.ar    
  21 C21           -0.5608    -6.1133    -3.5428 C.ar    
  22 N22           -0.2497    -6.7784    -2.4519 N.ar    
  23 C23            0.3012    -6.9250    -0.1322 C.1     
  24 N24            0.5734    -7.5308     0.7894 N.1     
  25 H25            2.1295    -2.5562    -0.2706 H       
  26 H26           -2.2022    -0.2436     0.2918 H       
  27 H27           -2.1280     1.5872     0.2720 H       
  28 H28           -1.5160     3.8190    -2.2098 H       
  29 H29           -0.8408     5.3292    -1.5527 H       
  30 H30            0.1743     3.8706    -1.6544 H       
  31 H31           -0.5728    -2.9678    -2.3094 H       
  32 H32           -0.9431    -4.1999    -4.4313 H       
  33 H33           -0.7216    -6.6513    -4.4653 H       
@<TRIPOS>BOND
   1    1    2 1
   2    1    8 2
   3    1    9 am
   4    2    3 ar
   5    2    7 ar
   6    3    4 ar
   7    3   15 1
   8    4    5 ar
   9    4   25 1
  10    5    6 ar
  11    5   16 1
  12    6    7 ar
  13    6   14 1
  14    7   26 1
  15    9   10 am
  16    9   27 1
  17   10   11 2
  18   10   12 2
  19   10   13 1
  20   13   28 1
  21   13   29 1
  22   13   30 1
  23   16   18 1
  24   17   18 ar
  25   17   22 ar
  26   17   23 1
  27   18   19 ar
  28   19   20 ar
  29   19   31 1
  30   20   21 ar
  31   20   32 1
  32   21   22 ar
  33   21   33 1
  34   23   24 3

#	End of record

