#	Name: ASD10160260
#	Creating user name:	WinNT
#	Creation time:	15. 06. 2019 21:25

#	Modifying user name:	WinNT
#	Modification time:	15. 06. 2019 21:25

#	Program:	/corina/corina34_cracker 3.40 0067  02.08.2006

@<TRIPOS>MOLECULE
ASD10160260
  36   37    0    0    0
SMALL
NO_CHARGES


@<TRIPOS>ATOM
   1 C1             0.3712     1.1012     1.9609 C.2     
   2 C2             0.2886    -0.2769     1.4389 C.ar    
   3 C3             1.3726    -0.8326     0.7535 C.ar    
   4 C4             1.2916    -2.1194     0.2683 C.ar    
   5 C5             0.1325    -2.8650     0.4600 C.ar    
   6 C6            -0.9468    -2.3152     1.1410 C.ar    
   7 C7            -0.8712    -1.0312     1.6336 C.ar    
   8 O8             1.3831     1.7545     1.7950 O.2     
   9 N9            -0.6772     1.6373     2.6167 N.am    
  10 S10           -0.5845     3.1835     3.2024 S.o2    
  11 O11           -1.8367     3.3920     3.8410 O.2     
  12 O12            0.6282     3.2057     3.9428 O.2     
  13 C13           -0.4449     4.2211     1.7210 C.3     
  14 O14            0.0558    -4.1322    -0.0197 O.3     
  15 C15           -1.3965    -5.5715     1.2035 C.ar    
  16 C16           -1.1307    -4.7866     0.0928 C.ar    
  17 C17           -2.0940    -4.6761    -0.9062 C.ar    
  18 C18           -3.2873    -5.3592    -0.7496 C.ar    
  19 C19           -3.4831    -6.1268     0.3907 C.ar    
  20 N20           -2.5457    -6.2090     1.3198 N.ar    
  21 O21           -4.6503    -6.8007     0.5537 O.3     
  22 C22           -4.7921    -7.5732     1.7476 C.3     
  23 Cl23           2.6367    -2.8111    -0.5837 Cl      
  24 H24            2.2722    -0.2539     0.6043 H       
  25 H25           -1.8447    -2.8970     1.2878 H       
  26 H26           -1.7090    -0.6065     2.1666 H       
  27 H27           -1.4859     1.1175     2.7456 H       
  28 H28           -1.3232     4.0762     1.0919 H       
  29 H29           -0.3780     5.2683     2.0159 H       
  30 H30            0.4502     3.9422     1.1651 H       
  31 H31           -0.6526    -5.6660     1.9808 H       
  32 H32           -1.9144    -4.0711    -1.7827 H       
  33 H33           -4.0568    -5.2957    -1.5047 H       
  34 H34           -4.0090    -8.3304     1.7856 H       
  35 H35           -4.7078    -6.9193     2.6156 H       
  36 H36           -5.7678    -8.0591     1.7521 H       
@<TRIPOS>BOND
   1    1    2 1
   2    1    8 2
   3    1    9 am
   4    2    3 ar
   5    2    7 ar
   6    3    4 ar
   7    3   24 1
   8    4    5 ar
   9    4   23 1
  10    5    6 ar
  11    5   14 1
  12    6    7 ar
  13    6   25 1
  14    7   26 1
  15    9   10 am
  16    9   27 1
  17   10   11 2
  18   10   12 2
  19   10   13 1
  20   13   28 1
  21   13   29 1
  22   13   30 1
  23   14   16 1
  24   15   16 ar
  25   15   20 ar
  26   15   31 1
  27   16   17 ar
  28   17   18 ar
  29   17   32 1
  30   18   19 ar
  31   18   33 1
  32   19   20 ar
  33   19   21 1
  34   21   22 1
  35   22   34 1
  36   22   35 1
  37   22   36 1

#	End of record

