#	Name: ASD12180003
#	Creating user name:	WinNT
#	Creation time:	15. 06. 2019 21:30

#	Modifying user name:	WinNT
#	Modification time:	15. 06. 2019 21:30

#	Program:	/corina/corina34_cracker 3.40 0067  02.08.2006

@<TRIPOS>MOLECULE
ASD12180003
  39   41    0    0    0
SMALL
NO_CHARGES


@<TRIPOS>ATOM
   1 C1            -0.0167     1.3779     0.0096 C.ar    
   2 C2             0.0021    -0.0041     0.0020 C.ar    
   3 C3             1.2060    -0.6821    -0.0122 C.ar    
   4 C4             2.3955     0.0228    -0.0167 C.ar    
   5 C5             2.3850     1.4112    -0.0079 C.ar    
   6 C6             1.1740     2.0967     0.0021 C.ar    
   7 N7             1.1168     3.4884    -0.0011 N.pl3   
   8 S8             3.9130     2.2854    -0.0044 S.3     
   9 C9             3.4574     3.9029     0.5203 C.ar    
  10 C10            2.1310     4.3199     0.4680 C.ar    
  11 C11            1.8020     5.6029     0.8927 C.ar    
  12 C12            4.4372     4.7664     0.9917 C.ar    
  13 C13            4.0993     6.0403     1.4099 C.ar    
  14 C14            2.7829     6.4560     1.3617 C.ar    
  15 C15           -0.0922     4.1207    -0.5346 C.3     
  16 C16           -1.1047     4.3195     0.5951 C.3     
  17 C17           -2.3674     4.9798     0.0379 C.3     
  18 S18           -3.5679     5.2155     1.3773 S.3     
  19 S19           -2.7062     6.6871     2.5151 S.o2    
  20 H20            2.5197     7.4507     1.6900 H       
  21 O21           -3.4837     6.7110     3.7043 O.2     
  22 O22           -1.3279     6.3430     2.5477 O.2     
  23 C23           -2.9605     8.2067     1.5577 C.3     
  24 H24           -0.9608     1.9023     0.0169 H       
  25 H25           -0.9266    -0.5554     0.0076 H       
  26 H26            1.2179    -1.7620    -0.0195 H       
  27 H27            3.3359    -0.5083    -0.0268 H       
  28 H28            0.7746     5.9339     0.8562 H       
  29 H29            5.4665     4.4419     1.0322 H       
  30 H30            4.8640     6.7096     1.7754 H       
  31 H31            0.1641     5.0878    -0.9671 H       
  32 H32           -0.5268     3.4823    -1.3039 H       
  33 H33           -1.3611     3.3524     1.0276 H       
  34 H34           -0.6701     4.9578     1.3643 H       
  35 H35           -2.1111     5.9469    -0.3946 H       
  36 H36           -2.8020     4.3415    -0.7314 H       
  37 H37           -4.0285     8.3735     1.4177 H       
  38 H38           -2.5282     9.0511     2.0947 H       
  39 H39           -2.4775     8.1088     0.5855 H       
@<TRIPOS>BOND
   1    1    2 ar
   2    1    6 ar
   3    1   24 1
   4    2    3 ar
   5    2   25 1
   6    3    4 ar
   7    3   26 1
   8    4    5 ar
   9    4   27 1
  10    5    6 ar
  11    5    8 1
  12    6    7 1
  13    7   10 1
  14    7   15 1
  15    8    9 1
  16    9   12 ar
  17    9   10 ar
  18   10   11 ar
  19   11   14 ar
  20   11   28 1
  21   12   13 ar
  22   12   29 1
  23   13   14 ar
  24   13   30 1
  25   14   20 1
  26   15   16 1
  27   15   31 1
  28   15   32 1
  29   16   17 1
  30   16   33 1
  31   16   34 1
  32   17   18 1
  33   17   35 1
  34   17   36 1
  35   18   19 1
  36   19   21 2
  37   19   22 2
  38   19   23 1
  39   23   37 1
  40   23   38 1
  41   23   39 1

#	End of record

