#	Name: ASD11000132
#	Creating user name:	WinNT
#	Creation time:	15. 06. 2019 21:28

#	Modifying user name:	WinNT
#	Modification time:	15. 06. 2019 21:28

#	Program:	/corina/corina34_cracker 3.40 0067  02.08.2006

@<TRIPOS>MOLECULE
ASD11000132
  42   45    0    0    0
SMALL
NO_CHARGES


@<TRIPOS>ATOM
   1 N1            -0.0172     1.3214    -0.0112 N.ar    
   2 C2             0.0016    -0.0034    -0.0060 C.ar    
   3 N3             1.1402    -0.6810    -0.0155 N.ar    
   4 C4             2.3025    -0.0498    -0.0306 C.ar    
   5 C5             2.3192     1.3362    -0.0364 C.ar    
   6 C6             1.1098     2.0136    -0.0262 C.ar    
   7 C7             3.6238     2.0904    -0.0536 C.3     
   8 O8             4.0217     2.3232    -1.4062 O.3     
   9 C9             5.1866     2.9970    -1.5996 C.ar    
  10 C10            5.9303     3.4245    -0.5025 C.ar    
  11 C11            7.1131     4.1081    -0.6794 C.ar    
  12 C12            7.5747     4.3771    -1.9634 C.ar    
  13 C13            6.8262     3.9468    -3.0753 C.ar    
  14 C14            5.6295     3.2490    -2.8828 C.ar    
  15 N15            8.7568     5.0614    -2.1616 N.am    
  16 C16            9.2046     5.3235    -3.4018 C.2     
  17 C17            8.4914     4.9142    -4.5488 C.2     
  18 C18            7.3233     4.2376    -4.4214 C.2     
  19 O19           10.2528     5.9303    -3.5391 O.2     
  20 N20           -1.1975    -0.6966     0.0102 N.pl3   
  21 C21           -1.2010    -2.0913    -0.1029 C.ar    
  22 C22           -2.1491    -2.8416     0.5798 C.ar    
  23 C23           -0.2597    -2.7263    -0.9025 C.ar    
  24 C24           -0.2652    -4.1047    -1.0126 C.ar    
  25 C25           -1.2105    -4.8517    -0.3251 C.ar    
  26 C26           -2.1517    -4.2187     0.4676 C.ar    
  27 F27           -1.2154    -6.1983    -0.4336 F       
  28 F28            0.6498    -4.7239    -1.7901 F       
  29 H29            3.2273    -0.6076    -0.0379 H       
  30 H30            1.0881     3.0933    -0.0307 H       
  31 H31            3.4985     3.0448     0.4577 H       
  32 H32            4.3893     1.5038     0.4545 H       
  33 H33            5.5760     3.2184     0.4967 H       
  34 H34            7.6816     4.4352     0.1786 H       
  35 H35            5.0516     2.9164    -3.7323 H       
  36 H36            9.2718     5.3579    -1.3949 H       
  37 H37            8.8777     5.1405    -5.5317 H       
  38 H38            6.7716     3.9201    -5.2939 H       
  39 H39           -2.0348    -0.2151     0.1000 H       
  40 H40           -2.8842    -2.3488     1.1988 H       
  41 H41            0.4755    -2.1441    -1.4382 H       
  42 H42           -2.8866    -4.8021     1.0024 H       
@<TRIPOS>BOND
   1    1    2 ar
   2    1    6 ar
   3    2    3 ar
   4    2   20 1
   5    3    4 ar
   6    4    5 ar
   7    4   29 1
   8    5    6 ar
   9    5    7 1
  10    6   30 1
  11    7    8 1
  12    7   31 1
  13    7   32 1
  14    8    9 1
  15    9   10 ar
  16    9   14 ar
  17   10   11 ar
  18   10   33 1
  19   11   12 ar
  20   11   34 1
  21   12   13 ar
  22   12   15 1
  23   13   14 ar
  24   13   18 1
  25   14   35 1
  26   15   16 am
  27   15   36 1
  28   16   17 1
  29   16   19 2
  30   17   18 2
  31   17   37 1
  32   18   38 1
  33   20   21 1
  34   20   39 1
  35   21   22 ar
  36   21   23 ar
  37   22   26 ar
  38   22   40 1
  39   23   24 ar
  40   23   41 1
  41   24   25 ar
  42   24   28 1
  43   25   26 ar
  44   25   27 1
  45   26   42 1

#	End of record

