#	Name: ASD10160099
#	Creating user name:	WinNT
#	Creation time:	15. 06. 2019 21:25

#	Modifying user name:	WinNT
#	Modification time:	15. 06. 2019 21:25

#	Program:	/corina/corina34_cracker 3.40 0067  02.08.2006

@<TRIPOS>MOLECULE
ASD10160099
  38   40    0    0    0
SMALL
NO_CHARGES


@<TRIPOS>ATOM
   1 C1            -0.1360     1.4672     0.0333 C.2     
   2 C2            -0.0850    -0.0063     0.0191 C.ar    
   3 C3             1.1403    -0.6648    -0.1385 C.ar    
   4 C4             1.1829    -2.0445    -0.1511 C.ar    
   5 C5             0.0130    -2.7784    -0.0079 C.ar    
   6 C6            -1.2079    -2.1270     0.1492 C.ar    
   7 C7            -1.2594    -0.7502     0.1688 C.ar    
   8 O8             0.8871     2.1123    -0.0921 O.2     
   9 N9            -1.3174     2.0991     0.1795 N.am    
  10 S10           -1.3748     3.7541     0.1954 S.o2    
  11 O11           -2.7500     4.0552     0.3893 O.2     
  12 O12           -0.3998     4.1293     1.1587 O.2     
  13 C13           -0.8451     4.2414    -1.4696 C.3     
  14 F14           -2.3430    -2.8464     0.2881 F       
  15 F15            2.2789     0.0487    -0.2784 F       
  16 O16            0.0593    -4.1349    -0.0213 O.3     
  17 N17            0.2745    -6.9033    -0.2147 N.ar    
  18 C18            0.3804    -8.2080    -0.2860 C.ar    
  19 C19            0.1720    -8.8957    -1.4797 C.ar    
  20 C20           -0.1518    -8.2084    -2.6146 C.ar    
  21 C21           -0.2644    -6.8075    -2.5337 C.ar    
  22 C22           -0.5946    -6.0353    -3.6600 C.ar    
  23 C23           -0.6963    -4.6809    -3.5479 C.ar    
  24 C24           -0.4773    -4.0454    -2.3290 C.ar    
  25 C25           -0.1521    -4.7685    -1.2042 C.ar    
  26 C26           -0.0393    -6.1720    -1.2879 C.ar    
  27 Cl27          -0.8719    -6.8047    -5.1913 Cl      
  28 H28            2.1275    -2.5537    -0.2730 H       
  29 H29           -2.2062    -0.2462     0.2954 H       
  30 H30           -2.1341     1.5846     0.2755 H       
  31 H31           -1.5274     3.8176    -2.2065 H       
  32 H32           -0.8531     5.3284    -1.5499 H       
  33 H33            0.1635     3.8709    -1.6530 H       
  34 H34            0.6362    -8.7643     0.6036 H       
  35 H35            0.2667    -9.9712    -1.5075 H       
  36 H36           -0.3164    -8.7253    -3.5485 H       
  37 H37           -0.9501    -4.0923    -4.4171 H       
  38 H38           -0.5634    -2.9707    -2.2652 H       
@<TRIPOS>BOND
   1    1    2 1
   2    1    8 2
   3    1    9 am
   4    2    3 ar
   5    2    7 ar
   6    3    4 ar
   7    3   15 1
   8    4    5 ar
   9    4   28 1
  10    5    6 ar
  11    5   16 1
  12    6    7 ar
  13    6   14 1
  14    7   29 1
  15    9   10 am
  16    9   30 1
  17   10   11 2
  18   10   12 2
  19   10   13 1
  20   13   31 1
  21   13   32 1
  22   13   33 1
  23   16   25 1
  24   17   18 ar
  25   17   26 ar
  26   18   19 ar
  27   18   34 1
  28   19   20 ar
  29   19   35 1
  30   20   21 ar
  31   20   36 1
  32   21   22 ar
  33   21   26 ar
  34   22   23 ar
  35   22   27 1
  36   23   24 ar
  37   23   37 1
  38   24   25 ar
  39   24   38 1
  40   25   26 ar

#	End of record

