#	Name: ASD10610078
#	Creating user name:	WinNT
#	Creation time:	15. 06. 2019 21:27

#	Modifying user name:	WinNT
#	Modification time:	15. 06. 2019 21:27

#	Program:	/corina/corina34_cracker 3.40 0067  02.08.2006

@<TRIPOS>MOLECULE
ASD10610078
  58   63    0    0    0
SMALL
NO_CHARGES


@<TRIPOS>ATOM
   1 O1             1.6683    -2.5892    -3.0583 O.3     
   2 C2             0.9461    -2.2687    -1.9646 C.2     
   3 N3             1.5701    -1.2843    -1.3600 N.2     
   4 N4             2.6319    -0.9864    -2.0230 N.2     
   5 C5             2.7245    -1.7656    -3.0700 C.2     
   6 C6            -0.3110    -2.9052    -1.5296 C.2     
   7 O7            -0.7902    -3.8128    -2.1815 O.2     
   8 N8            -0.9287    -2.4808    -0.4094 N.am    
   9 C9            -2.2328    -3.0350    -0.0373 C.3     
  10 C10           -2.3165    -4.5435     0.2041 C.3     
  11 C11           -2.3913    -3.5743     1.3856 C.3     
  12 C12           -3.4273    -2.3633    -0.6644 C.2     
  13 N13           -3.4230    -1.0305    -0.8644 N.am    
  14 O14           -4.3924    -3.0221    -0.9890 O.2     
  15 C15           -5.0618     1.9940    -1.8846 C.ar    
  16 C16           -4.6058     1.0859    -0.9355 C.ar    
  17 C17           -4.6263    -0.3609    -1.3644 C.3     
  18 C18           -4.6673    -0.4693    -2.9012 C.3     
  19 S19           -5.5202     1.0919    -3.3425 S.3     
  20 C20           -4.1821     1.5845     0.2986 C.ar    
  21 C21           -4.2167     2.9312     0.5736 C.ar    
  22 C22           -4.6789     3.8349    -0.3824 C.ar    
  23 C23           -5.0991     3.3537    -1.6195 C.ar    
  24 C24           -4.7192     5.2872    -0.0870 C.ar    
  25 C25           -5.3146     5.7499     1.0968 C.ar    
  26 C26           -5.3465     7.1176     1.3635 C.ar    
  27 C27           -4.7931     8.0098     0.4633 C.ar    
  28 C28           -4.2061     7.5517    -0.7042 C.ar    
  29 C29           -4.1619     6.1980    -0.9795 C.ar    
  30 N30           -6.4948     5.0803     3.2023 N.2     
  31 N31           -6.8745     3.9740     3.7433 N.pl3   
  32 N32           -6.5463     2.9913     2.9794 N.2     
  33 N33           -5.9494     3.4544     1.9340 N.2     
  34 C34           -5.9069     4.7890     2.0584 C.2     
  35 C35           -7.5701     3.8535     5.0271 C.3     
  36 F36           -5.9180     7.5715     2.5004 F       
  37 Cl37          -3.5156     8.6834    -1.8249 Cl      
  38 C38            3.8219    -1.7411    -4.1027 C.3     
  39 H39           -0.5098    -1.8085     0.1504 H       
  40 H40           -3.2357    -5.0500    -0.0902 H       
  41 H41           -1.4013    -5.1236     0.0861 H       
  42 H42           -1.5252    -3.5169     2.0450 H       
  43 H43           -3.3596    -3.4433     1.8686 H       
  44 H44           -2.6232    -0.5145    -0.6774 H       
  45 H45           -5.5080    -0.8473    -0.9471 H       
  46 H46           -3.6611    -0.4984    -3.3194 H       
  47 H47           -5.2471    -1.3362    -3.2180 H       
  48 H48           -3.8210     0.8993     1.0512 H       
  49 H49           -3.8841     3.2912     1.5360 H       
  50 H50           -5.4597     4.0402    -2.3712 H       
  51 H51           -4.8193     9.0692     0.6717 H       
  52 H52           -3.6982     5.8472    -1.8897 H       
  53 H53           -8.6467     3.8978     4.8626 H       
  54 H54           -7.3124     2.9019     5.4920 H       
  55 H55           -7.2686     4.6712     5.6818 H       
  56 H56            3.5502    -1.0556    -4.9053 H       
  57 H57            4.7501    -1.4077    -3.6386 H       
  58 H58            3.9590    -2.7425    -4.5109 H       
@<TRIPOS>BOND
   1    1    2 1
   2    1    5 1
   3    2    3 2
   4    2    6 1
   5    3    4 1
   6    4    5 2
   7    5   38 1
   8    6    7 2
   9    6    8 am
  10    8    9 1
  11    8   39 1
  12    9   10 1
  13    9   11 1
  14    9   12 1
  15   10   11 1
  16   10   40 1
  17   10   41 1
  18   11   42 1
  19   11   43 1
  20   12   13 am
  21   12   14 2
  22   13   17 1
  23   13   44 1
  24   15   16 ar
  25   15   19 1
  26   15   23 ar
  27   16   17 1
  28   16   20 ar
  29   17   18 1
  30   17   45 1
  31   18   19 1
  32   18   46 1
  33   18   47 1
  34   20   21 ar
  35   20   48 1
  36   21   22 ar
  37   21   49 1
  38   22   23 ar
  39   22   24 1
  40   23   50 1
  41   24   25 ar
  42   24   29 ar
  43   25   26 ar
  44   25   34 1
  45   26   27 ar
  46   26   36 1
  47   27   28 ar
  48   27   51 1
  49   28   29 ar
  50   28   37 1
  51   29   52 1
  52   30   31 1
  53   30   34 2
  54   31   32 1
  55   31   35 1
  56   32   33 2
  57   33   34 1
  58   35   53 1
  59   35   54 1
  60   35   55 1
  61   38   56 1
  62   38   57 1
  63   38   58 1

#	End of record

