#	Name: ASD13950001
#	Creating user name:	WinNT
#	Creation time:	15. 06. 2019 21:30

#	Modifying user name:	WinNT
#	Modification time:	15. 06. 2019 21:30

#	Program:	/corina/corina34_cracker 3.40 0067  02.08.2006

@<TRIPOS>MOLECULE
ASD13950001
  59   58    0    0    0
SMALL
NO_CHARGES


@<TRIPOS>ATOM
   1 O1            -0.0162     1.3463     0.0094 O.3     
   2 O2             1.0646    -0.5984    -0.0113 O.2     
   3 O3           -11.8627   -20.9037     0.0031 O.3     
   4 O4           -12.9434   -18.9590     0.0238 O.2     
   5 C5            -4.7650    -6.9950     0.0100 C.2     
   6 C6            -7.1139   -12.5624     0.0025 C.2     
   7 C7            -4.7463    -8.3733     0.0024 C.2     
   8 C8            -3.5623    -6.2786     0.0024 C.2     
   9 C9            -7.1326   -11.1841     0.0101 C.2     
  10 C10           -8.3166   -13.2788     0.0102 C.2     
  11 C11           -2.3962    -2.8076     0.0099 C.2     
  12 C12           -5.9488    -9.0895     0.0100 C.2     
  13 C13           -5.9301   -10.4679     0.0025 C.2     
  14 C14           -6.0802    -6.2594     0.0265 C.3     
  15 C15           -3.5810    -4.9009     0.0099 C.2     
  16 C16           -5.7987   -13.2980    -0.0140 C.3     
  17 C17           -2.3776    -4.1841     0.0023 C.2     
  18 C18           -9.4826   -16.7498     0.0026 C.2     
  19 C19           -8.2979   -14.6565     0.0026 C.2     
  20 C20           -9.5013   -15.3733     0.0102 C.2     
  21 C21           -3.7114    -2.0719     0.0264 C.3     
  22 C22           -1.1912    -2.0898     0.0022 C.2     
  23 C23           -8.1675   -17.4855    -0.0139 C.3     
  24 C24          -10.6877   -17.4676     0.0103 C.2     
  25 C25           -1.2097    -0.7259     0.0097 C.2     
  26 C26          -10.6692   -18.8315     0.0028 C.2     
  27 C27            0.0021    -0.0041     0.0020 C.2     
  28 C28          -11.8810   -19.5533     0.0105 C.2     
  29 C29            1.2480     2.0123     0.0009 C.3     
  30 H30           -2.6198    -6.8059    -0.0095 H       
  31 H31           -3.8038    -8.9005    -0.0094 H       
  32 H32           -8.0751   -10.6569     0.0219 H       
  33 H33           -9.2591   -12.7515     0.0220 H       
  34 H34           -6.8913    -8.5623     0.0219 H       
  35 H35           -4.5235    -4.3737     0.0218 H       
  36 H36           -4.9876   -10.9951    -0.0094 H       
  37 H37           -6.3874    -6.0875     1.0581 H       
  38 H38           -5.9677    -5.3025    -0.4833 H       
  39 H39           -6.8366    -6.8560    -0.4833 H       
  40 H40           -1.4351    -4.7113    -0.0095 H       
  41 H41           -5.4718   -13.4809     1.0096 H       
  42 H42           -5.9210   -14.2493    -0.5318 H       
  43 H43           -5.0521   -12.6959    -0.5317 H       
  44 H44           -7.3554   -15.1837    -0.0093 H       
  45 H45          -10.4438   -14.8461     0.0220 H       
  46 H46           -4.0187    -1.9001     1.0579 H       
  47 H47           -3.5989    -1.1151    -0.4834 H       
  48 H48           -4.4678    -2.6685    -0.4835 H       
  49 H49           -0.2487    -2.6170    -0.0096 H       
  50 H50           -7.8406   -17.6684     1.0098 H       
  51 H51           -8.2898   -18.4368    -0.5317 H       
  52 H52           -7.4209   -16.8834    -0.5316 H       
  53 H53          -11.6302   -16.9404     0.0221 H       
  54 H54           -2.1522    -0.1987     0.0215 H       
  55 H55           -9.7267   -19.3587    -0.0090 H       
  56 H56            1.8174     1.7222     0.8840 H       
  57 H57            1.8004     1.7318    -0.8959 H       
  58 H58            1.0906     3.0908     0.0082 H       
  59 H59          -12.7406   -21.3090     0.0093 H       
@<TRIPOS>BOND
   1    1   27 1
   2    1   29 1
   3    2   27 2
   4    3   28 1
   5    3   59 1
   6    4   28 2
   7    5    7 2
   8    5    8 1
   9    5   14 1
  10    6    9 2
  11    6   10 1
  12    6   16 1
  13    7   12 1
  14    7   31 1
  15    8   15 2
  16    8   30 1
  17    9   13 1
  18    9   32 1
  19   10   19 2
  20   10   33 1
  21   11   17 2
  22   11   21 1
  23   11   22 1
  24   12   13 2
  25   12   34 1
  26   13   36 1
  27   14   37 1
  28   14   38 1
  29   14   39 1
  30   15   17 1
  31   15   35 1
  32   16   41 1
  33   16   42 1
  34   16   43 1
  35   17   40 1
  36   18   20 2
  37   18   23 1
  38   18   24 1
  39   19   20 1
  40   19   44 1
  41   20   45 1
  42   21   46 1
  43   21   47 1
  44   21   48 1
  45   22   25 2
  46   22   49 1
  47   23   50 1
  48   23   51 1
  49   23   52 1
  50   24   26 2
  51   24   53 1
  52   25   27 1
  53   25   54 1
  54   26   28 1
  55   26   55 1
  56   29   56 1
  57   29   57 1
  58   29   58 1

#	End of record

