#	Name: ASD13630002
#	Creating user name:	WinNT
#	Creation time:	15. 06. 2019 21:30

#	Modifying user name:	WinNT
#	Modification time:	15. 06. 2019 21:30

#	Program:	/corina/corina34_cracker 3.40 0067  02.08.2006

@<TRIPOS>MOLECULE
ASD13630002
  38   40    0    0    0
SMALL
NO_CHARGES


@<TRIPOS>ATOM
   1 C1            -0.0168     1.3886     0.0097 C.ar    
   2 C2             0.0021    -0.0041     0.0020 C.ar    
   3 C3             1.2014    -0.6804    -0.0126 C.ar    
   4 C4             2.3956     0.0257    -0.0202 C.ar    
   5 C5             2.3959     1.3974    -0.0129 C.ar    
   6 S6            -1.3582     2.5310     0.0215 S.3     
   7 C7             1.1793     2.1126     0.0021 C.ar    
   8 N8             0.9847     3.4459     0.0112 N.2     
   9 C9            -0.2286     3.8782     0.0241 C.2     
  10 N10           -0.5917     5.2140     0.0322 N.am    
  11 C11            3.7040     2.1457    -0.0204 C.3     
  12 C12            1.2168    -2.1873    -0.0199 C.3     
  13 C13           -1.8947     5.5581     0.0392 C.2     
  14 C14           -2.2815     6.9813     0.0478 C.ar    
  15 O15           -2.7514     4.6953     0.0384 O.2     
  16 C16           -1.3004     7.9762     0.0428 C.ar    
  17 C17           -3.6355     7.3438     0.0550 C.ar    
  18 C18           -3.9876     8.6853     0.0626 C.ar    
  19 C19           -3.0079     9.6580     0.0630 C.ar    
  20 C20           -1.6684     9.3039     0.0504 C.ar    
  21 O21           -4.5970     6.3869     0.0542 O.3     
  22 C22           -5.9550     6.8318     0.0619 C.3     
  23 H23           -0.9267    -0.5551     0.0079 H       
  24 H24            3.3335    -0.5095    -0.0317 H       
  25 H25            0.0918     5.9023     0.0328 H       
  26 H26            4.0103     2.3316    -1.0498 H       
  27 H27            3.5820     3.0959     0.4997 H       
  28 H28            4.4657     1.5509     0.4836 H       
  29 H29            1.2107    -2.5458    -1.0492 H       
  30 H30            2.1153    -2.5439     0.4837 H       
  31 H31            0.3355    -2.5622     0.5007 H       
  32 H32           -0.2551     7.7049     0.0335 H       
  33 H33           -5.0296     8.9694     0.0679 H       
  34 H34           -3.2873    10.7013     0.0685 H       
  35 H35           -0.9093    10.0721     0.0466 H       
  36 H36           -6.1367     7.4288     0.9556 H       
  37 H37           -6.1439     7.4376    -0.8243 H       
  38 H38           -6.6202     5.9684     0.0604 H       
@<TRIPOS>BOND
   1    1    2 ar
   2    1    7 ar
   3    1    6 1
   4    2    3 ar
   5    2   23 1
   6    3    4 ar
   7    3   12 1
   8    4    5 ar
   9    4   24 1
  10    5    7 ar
  11    5   11 1
  12    6    9 1
  13    7    8 1
  14    8    9 2
  15    9   10 1
  16   10   13 am
  17   10   25 1
  18   11   26 1
  19   11   27 1
  20   11   28 1
  21   12   29 1
  22   12   30 1
  23   12   31 1
  24   13   14 1
  25   13   15 2
  26   14   17 ar
  27   14   16 ar
  28   16   20 ar
  29   16   32 1
  30   17   18 ar
  31   17   21 1
  32   18   19 ar
  33   18   33 1
  34   19   20 ar
  35   19   34 1
  36   20   35 1
  37   21   22 1
  38   22   36 1
  39   22   37 1
  40   22   38 1

#	End of record

