#	Name: ASD10410001
#	Creating user name:	WinNT
#	Creation time:	15. 06. 2019 21:26

#	Modifying user name:	WinNT
#	Modification time:	15. 06. 2019 21:26

#	Program:	/corina/corina34_cracker 3.40 0067  02.08.2006

@<TRIPOS>MOLECULE
ASD10410001
  55   58    0    0    0
SMALL
NO_CHARGES


@<TRIPOS>ATOM
   1 C1             0.5303     1.3753     0.4452 C.ar    
   2 C2             0.5583    -0.0036     0.4584 C.ar    
   3 C3             1.6250    -0.6719     1.0583 C.ar    
   4 C4             2.6592     0.0575     1.6425 C.ar    
   5 C5             2.6232     1.4375     1.6247 C.ar    
   6 C6             1.5601     2.0973     1.0269 C.ar    
   7 F7             1.5283     3.4478     1.0115 F       
   8 Cl8            3.9102     2.3478     2.3517 Cl      
   9 C9             1.6587    -2.1540     1.0752 C.ar    
  10 N10            0.5331    -2.8543     1.1950 N.ar    
  11 C11            2.8726    -2.8376     0.9596 C.ar    
  12 C12            2.8545    -4.2205     0.9800 C.ar    
  13 N13            1.6976    -4.8513     1.1073 N.ar    
  14 C14            0.5610    -4.1777     1.2099 C.ar    
  15 C15            4.1705    -2.0855     0.8157 C.3     
  16 N16           -0.6280    -4.8764     1.3416 N.pl3   
  17 C17           -0.6333    -6.2713     1.2471 C.ar    
  18 C18           -1.5122    -7.0180     2.0213 C.ar    
  19 C19           -1.5152    -8.3957     1.9252 C.ar    
  20 C20           -0.6446    -9.0319     1.0594 C.ar    
  21 C21            0.2320    -8.2915     0.2875 C.ar    
  22 C22            0.2362    -6.9131     0.3746 C.ar    
  23 C23           -0.6507   -10.5354     0.9572 C.3     
  24 N24           -1.6010   -10.9516    -0.0828 N.3     
  25 C25           -1.4649   -12.3849    -0.3774 C.3     
  26 C26           -2.5227   -12.7944    -1.4049 C.3     
  27 N27           -2.3548   -11.9909    -2.6238 N.3     
  28 C28           -2.4909   -10.5576    -2.3292 C.3     
  29 C29           -1.4332   -10.1480    -1.3017 C.3     
  30 C30           -3.3051   -12.4071    -3.6638 C.3     
  31 H31           -0.2935     1.8933    -0.0234 H       
  32 H32           -0.2451    -0.5651     0.0050 H       
  33 H33            3.4872    -0.4561     2.1086 H       
  34 H34            3.7743    -4.7797     0.8926 H       
  35 H35            4.5886    -1.8901     1.8032 H       
  36 H36            4.8738    -2.6822     0.2349 H       
  37 H37            3.9878    -1.1400     0.3050 H       
  38 H38           -1.4568    -4.3978     1.4993 H       
  39 H39           -2.1921    -6.5218     2.6979 H       
  40 H40           -2.1980    -8.9769     2.5272 H       
  41 H41            0.9109    -8.7914    -0.3874 H       
  42 H42            0.9208    -6.3355    -0.2287 H       
  43 H43            0.3483   -10.8860     0.6979 H       
  44 H44           -0.9489   -10.9634     1.9143 H       
  45 H45           -0.4713   -12.5805    -0.7807 H       
  46 H46           -1.6056   -12.9593     0.5381 H       
  47 H47           -2.4050   -13.8508    -1.6467 H       
  48 H48           -3.5166   -12.6243    -0.9912 H       
  49 H49           -2.3502    -9.9831    -3.2448 H       
  50 H50           -3.4845   -10.3620    -1.9259 H       
  51 H51           -1.5508    -9.0917    -1.0599 H       
  52 H52           -0.4392   -10.3182    -1.7154 H       
  53 H53           -4.3237   -12.2783    -3.2978 H       
  54 H54           -3.1593   -11.7964    -4.5548 H       
  55 H55           -3.1376   -13.4555    -3.9106 H       
@<TRIPOS>BOND
   1    1    2 ar
   2    1    6 ar
   3    1   31 1
   4    2    3 ar
   5    2   32 1
   6    3    4 ar
   7    3    9 1
   8    4    5 ar
   9    4   33 1
  10    5    6 ar
  11    5    8 1
  12    6    7 1
  13    9   10 ar
  14    9   11 ar
  15   10   14 ar
  16   11   12 ar
  17   11   15 1
  18   12   13 ar
  19   12   34 1
  20   13   14 ar
  21   14   16 1
  22   15   35 1
  23   15   36 1
  24   15   37 1
  25   16   17 1
  26   16   38 1
  27   17   18 ar
  28   17   22 ar
  29   18   19 ar
  30   18   39 1
  31   19   20 ar
  32   19   40 1
  33   20   21 ar
  34   20   23 1
  35   21   22 ar
  36   21   41 1
  37   22   42 1
  38   23   24 1
  39   23   43 1
  40   23   44 1
  41   24   25 1
  42   24   29 1
  43   25   26 1
  44   25   45 1
  45   25   46 1
  46   26   27 1
  47   26   47 1
  48   26   48 1
  49   27   28 1
  50   27   30 1
  51   28   29 1
  52   28   49 1
  53   28   50 1
  54   29   51 1
  55   29   52 1
  56   30   53 1
  57   30   54 1
  58   30   55 1

#	End of record

