#	Name: ASD11000074
#	Creating user name:	WinNT
#	Creation time:	15. 06. 2019 21:28

#	Modifying user name:	WinNT
#	Modification time:	15. 06. 2019 21:28

#	Program:	/corina/corina34_cracker 3.40 0067  02.08.2006

@<TRIPOS>MOLECULE
ASD11000074
  58   60    0    0    0
SMALL
NO_CHARGES


@<TRIPOS>ATOM
   1 C1            -0.0167     1.3804     0.0096 C.ar    
   2 C2             0.0021    -0.0041     0.0020 C.ar    
   3 C3             1.2191    -0.6820    -0.0132 C.ar    
   4 C4             2.4080     0.0310    -0.0208 C.ar    
   5 C5             2.3859     1.4136    -0.0127 C.ar    
   6 C6             1.1756     2.0896     0.0021 C.ar    
   7 O7             1.1571     3.4494     0.0095 O.3     
   8 N8             1.2415    -2.0841    -0.0205 N.pl3   
   9 C9             2.5217    -2.7962    -0.0366 C.3     
  10 C10            2.4011    -4.0808     0.7856 C.3     
  11 C11            3.7669    -4.7573     0.8712 C.3     
  12 C12            1.9025    -3.7451     2.1668 C.ar    
  13 C13            2.8189    -3.3887     3.1602 C.ar    
  14 C14            0.5568    -3.7843     2.4545 C.ar    
  15 C15            2.3709    -3.0542     4.4379 C.ar    
  16 C16            1.0178    -3.0904     4.7194 C.ar    
  17 C17            0.1092    -3.4592     3.7286 C.ar    
  18 N18            4.6826    -3.9822     1.7055 N.am    
  19 C19            4.2601    -3.3954     2.8413 C.2     
  20 O20           -1.2187    -3.5001     4.0100 O.3     
  21 C21           -2.0950    -3.8861     2.9493 C.3     
  22 O22            0.5732    -2.7668     5.9633 O.3     
  23 C23            1.5597    -2.3990     6.9295 C.3     
  24 C24            2.4213     4.1154     0.0015 C.3     
  25 O25           -1.1658    -0.7011     0.0099 O.3     
  26 C26           -2.3753     0.0597     0.0260 C.3     
  27 C27            6.0831    -3.8413     1.2994 C.3     
  28 O28            5.0582    -2.8759     3.5973 O.2     
  29 C29            6.2362    -2.6002     0.4179 C.3     
  30 O30            2.8678    -3.1235    -1.3838 O.3     
  31 H31           -0.9591     1.9079     0.0170 H       
  32 H32            3.3520    -0.4936    -0.0326 H       
  33 H33            3.3129     1.9677    -0.0182 H       
  34 H34            0.4094    -2.5825    -0.0149 H       
  35 H35            3.2962    -2.1610     0.3934 H       
  36 H36            1.6938    -4.7545     0.3018 H       
  37 H37            3.6475    -5.7524     1.2995 H       
  38 H38            4.1852    -4.8476    -0.1313 H       
  39 H39           -0.1509    -4.0681     1.6897 H       
  40 H40            3.0772    -2.7687     5.2035 H       
  41 H41           -3.1245    -3.8776     3.3072 H       
  42 H42           -1.9927    -3.1857     2.1204 H       
  43 H43           -1.8362    -4.8895     2.6111 H       
  44 H44            2.1054    -1.5239     6.5767 H       
  45 H45            1.0720    -2.1658     7.8760 H       
  46 H46            2.2542    -3.2268     7.0729 H       
  47 H47            2.2639     5.1940     0.0088 H       
  48 H48            2.9904     3.8254     0.8848 H       
  49 H49            2.9741     3.8350    -0.8951 H       
  50 H50           -3.2300    -0.6167     0.0308 H       
  51 H51           -2.4004     0.6833     0.9196 H       
  52 H52           -2.4181     0.6929    -0.8602 H       
  53 H53            6.7095    -3.7372     2.1854 H       
  54 H54            6.3897    -4.7248     0.7395 H       
  55 H55            7.2782    -2.4954     0.1158 H       
  56 H56            5.6098    -2.7044    -0.4681 H       
  57 H57            5.9296    -1.7167     0.9778 H       
  58 H58            2.2217    -3.6881    -1.8298 H       
@<TRIPOS>BOND
   1    1    2 ar
   2    1    6 ar
   3    1   31 1
   4    2    3 ar
   5    2   25 1
   6    3    4 ar
   7    3    8 1
   8    4    5 ar
   9    4   32 1
  10    5    6 ar
  11    5   33 1
  12    6    7 1
  13    7   24 1
  14    8    9 1
  15    8   34 1
  16    9   10 1
  17    9   30 1
  18    9   35 1
  19   10   11 1
  20   10   12 1
  21   10   36 1
  22   11   18 1
  23   11   37 1
  24   11   38 1
  25   12   13 ar
  26   12   14 ar
  27   13   15 ar
  28   13   19 1
  29   14   17 ar
  30   14   39 1
  31   15   16 ar
  32   15   40 1
  33   16   17 ar
  34   16   22 1
  35   17   20 1
  36   18   19 am
  37   18   27 1
  38   19   28 2
  39   20   21 1
  40   21   41 1
  41   21   42 1
  42   21   43 1
  43   22   23 1
  44   23   44 1
  45   23   45 1
  46   23   46 1
  47   24   47 1
  48   24   48 1
  49   24   49 1
  50   25   26 1
  51   26   50 1
  52   26   51 1
  53   26   52 1
  54   27   29 1
  55   27   53 1
  56   27   54 1
  57   29   55 1
  58   29   56 1
  59   29   57 1
  60   30   58 1

#	End of record

