#	Name: ASD10160033
#	Creating user name:	WinNT
#	Creation time:	15. 06. 2019 21:25

#	Modifying user name:	WinNT
#	Modification time:	15. 06. 2019 21:25

#	Program:	/corina/corina34_cracker 3.40 0067  02.08.2006

@<TRIPOS>MOLECULE
ASD10160033
  40   42    0    0    0
SMALL
NO_CHARGES


@<TRIPOS>ATOM
   1 C1            -2.1947     2.2908    -1.9135 C.3     
   2 C2            -1.0139     5.9008     0.6184 C.ar    
   3 C3            -0.1484     6.7716    -0.0508 C.ar    
   4 C4            -1.7863     6.3722     1.6865 C.ar    
   5 C5            -1.6903     7.6935     2.0741 C.ar    
   6 C6            -0.8294     8.5541     1.4062 C.ar    
   7 C7            -0.0593     8.0890     0.3432 C.ar    
   8 C8            -1.1171     4.4918     0.1964 C.2     
   9 N9            -0.3766     4.0414    -0.8357 N.am    
  10 O10           -1.8703     3.7360     0.7797 O.2     
  11 S11           -0.4925     2.4589    -1.3096 S.o2    
  12 O12           -0.3139     1.7197    -0.1093 O.2     
  13 O13            0.4311     2.3462    -2.3837 O.2     
  14 O14           -0.7382     9.8527     1.7906 O.3     
  15 C15           -1.4235    10.2399     2.8992 C.ar    
  16 C16           -0.8370    10.1473     4.1584 C.ar    
  17 C17           -2.7123    10.7370     2.7890 C.ar    
  18 N18           -3.3838    11.1157     3.8599 N.ar    
  19 C19           -2.8610    11.0376     5.0717 C.ar    
  20 C20           -1.5719    10.5536     5.2594 C.ar    
  21 Cl21          -0.8939    10.4540     6.8544 Cl      
  22 O22           -3.5901    11.4393     6.1444 O.3     
  23 F23            0.7766     8.9310    -0.3030 F       
  24 F24           -2.6245     5.5354     2.3365 F       
  25 C25           -2.6641     0.8935    -2.3235 C.3     
  26 C26           -3.1849     1.5270    -1.0319 C.3     
  27 C27           -4.9064    11.9320     5.8864 C.3     
  28 H28           -2.5771     3.1375    -2.4835 H       
  29 H29            0.4496     6.4121    -0.8751 H       
  30 H30           -2.2860     8.0585     2.8977 H       
  31 H31            0.2243     4.6443    -1.3010 H       
  32 H32            0.1673     9.7673     4.2738 H       
  33 H33           -3.1725    10.8156     1.8151 H       
  34 H34           -3.3556     0.8210    -3.1629 H       
  35 H35           -1.9500     0.0752    -2.2304 H       
  36 H36           -2.8134     1.1256    -0.0890 H       
  37 H37           -4.2190     1.8714    -1.0216 H       
  38 H38           -5.4980    11.1533     5.4053 H       
  39 H39           -5.3780    12.2180     6.8266 H       
  40 H40           -4.8471    12.8007     5.2307 H       
@<TRIPOS>BOND
   1    1   25 1
   2    1   11 1
   3    1   26 1
   4    1   28 1
   5    2    3 ar
   6    2    4 ar
   7    2    8 1
   8    3    7 ar
   9    3   29 1
  10    4    5 ar
  11    4   24 1
  12    5    6 ar
  13    5   30 1
  14    6    7 ar
  15    6   14 1
  16    7   23 1
  17    8    9 am
  18    8   10 2
  19    9   11 am
  20    9   31 1
  21   11   12 2
  22   11   13 2
  23   14   15 1
  24   15   16 ar
  25   15   17 ar
  26   16   20 ar
  27   16   32 1
  28   17   18 ar
  29   17   33 1
  30   18   19 ar
  31   19   20 ar
  32   19   22 1
  33   20   21 1
  34   22   27 1
  35   25   26 1
  36   25   34 1
  37   25   35 1
  38   26   36 1
  39   26   37 1
  40   27   38 1
  41   27   39 1
  42   27   40 1

#	End of record

