#	Name: ASD11820006
#	Creating user name:	WinNT
#	Creation time:	15. 06. 2019 21:29

#	Modifying user name:	WinNT
#	Modification time:	15. 06. 2019 21:29

#	Program:	/corina/corina34_cracker 3.40 0067  02.08.2006

@<TRIPOS>MOLECULE
ASD11820006
  39   42    0    0    0
SMALL
NO_CHARGES


@<TRIPOS>ATOM
   1 C1             1.5849     3.7635    -2.9530 C.ar    
   2 C2             2.2834     3.2180    -3.9931 C.ar    
   3 C3             2.9003     1.9820    -3.8568 C.ar    
   4 C4             2.8199     1.2833    -2.6722 C.ar    
   5 C5             1.4910     3.0730    -1.7433 C.ar    
   6 C6             0.8428     3.3516    -0.4595 C.2     
   7 C7             2.1144     1.8199    -1.6001 C.ar    
   8 N8             1.8559     1.3815    -0.3208 N.pl3   
   9 C9             1.0982     2.3069     0.3439 C.2     
  10 C10            0.0417     4.5785    -0.1074 C.3     
  11 C11           -0.5510     4.4136     1.2683 C.2     
  12 C12            0.0909     4.7542     2.5402 C.ar    
  13 C13           -1.7696     3.9322     1.5602 C.2     
  14 N14           -1.9585     3.9312     2.9154 N.pl3   
  15 C15           -0.8389     4.4279     3.5444 C.ar    
  16 C16            1.3325     5.2895     2.8879 C.ar    
  17 C17           -0.5061     4.6444     4.8776 C.ar    
  18 C18            0.7248     5.1736     5.1984 C.ar    
  19 C19            1.6386     5.4940     4.2039 C.ar    
  20 C20            0.9236     5.1086    -3.1092 C.3     
  21 C21            2.3318     5.6402     1.8158 C.3     
  22 H22            2.3558     3.7526    -4.9287 H       
  23 H23            3.4485     1.5637    -4.6880 H       
  24 H24            3.3027     0.3220    -2.5763 H       
  25 H25            2.1649     0.5417     0.0536 H       
  26 H26            0.7560     2.2110     1.3638 H       
  27 H27            0.6921     5.4531    -0.1204 H       
  28 H28           -0.7593     4.7106    -0.8348 H       
  29 H29           -2.4939     3.5959     0.8331 H       
  30 H30           -2.7626     3.6286     3.3658 H       
  31 H31           -1.2105     4.3988     5.6586 H       
  32 H32            0.9812     5.3409     6.2341 H       
  33 H33            2.5992     5.9081     4.4723 H       
  34 H34           -0.1213     4.9698    -3.3867 H       
  35 H35            0.9800     5.6529    -2.1665 H       
  36 H36            1.4338     5.6762    -3.8875 H       
  37 H37            2.1178     6.6376     1.4318 H       
  38 H38            3.3374     5.6206     2.2360 H       
  39 H39            2.2631     4.9159     1.0042 H       
@<TRIPOS>BOND
   1    1    2 ar
   2    1    5 ar
   3    1   20 1
   4    2    3 ar
   5    2   22 1
   6    3    4 ar
   7    3   23 1
   8    4    7 ar
   9    4   24 1
  10    5    7 ar
  11    5    6 1
  12    6    9 2
  13    6   10 1
  14    7    8 1
  15    8    9 1
  16    8   25 1
  17    9   26 1
  18   10   11 1
  19   10   27 1
  20   10   28 1
  21   11   13 2
  22   11   12 1
  23   12   15 ar
  24   12   16 ar
  25   13   14 1
  26   13   29 1
  27   14   15 1
  28   14   30 1
  29   15   17 ar
  30   16   19 ar
  31   16   21 1
  32   17   18 ar
  33   17   31 1
  34   18   19 ar
  35   18   32 1
  36   19   33 1
  37   20   34 1
  38   20   35 1
  39   20   36 1
  40   21   37 1
  41   21   38 1
  42   21   39 1

#	End of record

