#	Name: ASD13440001
#	Creating user name:	WinNT
#	Creation time:	15. 06. 2019 21:30

#	Modifying user name:	WinNT
#	Modification time:	15. 06. 2019 21:30

#	Program:	/corina/corina34_cracker 3.40 0067  02.08.2006

@<TRIPOS>MOLECULE
ASD13440001
  19   20    0    0    0
SMALL
NO_CHARGES


@<TRIPOS>ATOM
   1 C1            -0.0165     1.3620     0.0095 C.ar    
   2 C2             0.0021    -0.0041     0.0020 C.ar    
   3 C3             1.2074    -0.6929    -0.0127 C.ar    
   4 C4             2.4052    -0.0128    -0.0201 C.ar    
   5 C5             2.4100     1.3784    -0.0131 C.ar    
   6 C6             1.1861     2.0716     0.0019 C.ar    
   7 N7             3.4118     2.3230    -0.0177 N.pl3   
   8 C8             2.8675     3.5783    -0.0068 C.2     
   9 C9             1.5277     3.4961     0.0067 C.2     
  10 C10            3.6555     4.8629    -0.0071 C.3     
  11 H11           -0.9579     1.8912     0.0169 H       
  12 H12           -0.9283    -0.5525     0.0080 H       
  13 H13            1.2058    -1.7729    -0.0182 H       
  14 H14            3.3376    -0.5578    -0.0308 H       
  15 H15            4.3618     2.1276    -0.0271 H       
  16 H16            0.8334     4.3233     0.0174 H       
  17 H17            3.8367     5.1778    -1.0348 H       
  18 H18            3.0913     5.6354     0.5154 H       
  19 H19            4.6085     4.7047     0.4978 H       
@<TRIPOS>BOND
   1    1    2 ar
   2    1    6 ar
   3    1   11 1
   4    2    3 ar
   5    2   12 1
   6    3    4 ar
   7    3   13 1
   8    4    5 ar
   9    4   14 1
  10    5    7 1
  11    5    6 ar
  12    6    9 1
  13    7    8 1
  14    7   15 1
  15    8    9 2
  16    8   10 1
  17    9   16 1
  18   10   17 1
  19   10   18 1
  20   10   19 1

#	End of record

