#	Name: ASD11000106
#	Creating user name:	WinNT
#	Creation time:	15. 06. 2019 21:28

#	Modifying user name:	WinNT
#	Modification time:	15. 06. 2019 21:28

#	Program:	/corina/corina34_cracker 3.40 0067  02.08.2006

@<TRIPOS>MOLECULE
ASD11000106
  60   63    0    0    0
SMALL
NO_CHARGES


@<TRIPOS>ATOM
   1 C1            -1.4316    -0.0329    -0.5486 C.ar    
   2 C2            -0.9220    -1.2963    -0.3207 C.ar    
   3 C3             0.4488    -1.5063    -0.3465 C.ar    
   4 C4             1.3078    -0.4477    -0.6017 C.ar    
   5 C5             0.7981     0.8157    -0.8301 C.ar    
   6 C6            -0.5726     1.0258    -0.8034 C.ar    
   7 O7             0.9505    -2.7499    -0.1212 O.3     
   8 C8             2.3716    -2.8935    -0.1629 C.3     
   9 C9             2.7452    -4.3515     0.1119 C.3     
  10 N10            2.2516    -4.7403     1.4372 N.am    
  11 C11            2.1248    -5.2356    -0.9410 C.ar    
  12 C12            1.4237    -6.3780    -0.6238 C.ar    
  13 C13            2.2812    -4.8643    -2.2697 C.ar    
  14 C14            0.8885    -7.1604    -1.6402 C.ar    
  15 C15            1.0449    -6.7972    -2.9649 C.ar    
  16 C16            1.7445    -5.6371    -3.2832 C.ar    
  17 C17            2.1988    -6.1795     1.7432 C.3     
  18 C18            1.1888    -6.8244     0.7955 C.3     
  19 O19            1.9005    -5.2665    -4.5824 O.3     
  20 C20            2.6306    -4.0635    -4.8306 C.3     
  21 O21            0.5174    -7.5697    -3.9521 O.3     
  22 C22           -0.1880    -8.7453    -3.5490 C.3     
  23 C23            1.8623    -3.8173     2.3389 C.2     
  24 O24            2.0255    -2.6352     2.1076 O.2     
  25 C25            1.2367    -4.2426     3.6093 C.ar    
  26 C26            1.3697    -3.4552     4.7530 C.ar    
  27 C27            0.7805    -3.8597     5.9393 C.ar    
  28 C28            0.0604    -5.0454     5.9883 C.ar    
  29 C29           -0.0723    -5.8270     4.8553 C.ar    
  30 C30            0.5061    -5.4307     3.6670 C.ar    
  31 O31           -1.0743     2.2695    -1.0287 O.3     
  32 C32           -2.4954     2.4132    -0.9861 C.3     
  33 O33            0.9080    -3.0957     7.0561 O.3     
  34 H34           -2.4992     0.1297    -0.5329 H       
  35 H35           -1.5909    -2.1206    -0.1220 H       
  36 H36            2.3752    -0.6111    -0.6215 H       
  37 H37            1.4671     1.6402    -1.0281 H       
  38 H38            2.7373    -2.6042    -1.1481 H       
  39 H39            2.8239    -2.2535     0.5948 H       
  40 H40            3.8294    -4.4598     0.0827 H       
  41 H41            2.8262    -3.9643    -2.5137 H       
  42 H42            0.3456    -8.0606    -1.3928 H       
  43 H43            3.1823    -6.6248     1.5926 H       
  44 H44            1.8813    -6.3257     2.7756 H       
  45 H45            0.1810    -6.5403     1.0984 H       
  46 H46            1.2867    -7.9086     0.8510 H       
  47 H47            2.6810    -3.8841    -5.9046 H       
  48 H48            2.1278    -3.2267    -4.3458 H       
  49 H49            3.6399    -4.1619    -4.4310 H       
  50 H50            0.4837    -9.3992    -2.9928 H       
  51 H51           -1.0293    -8.4648    -2.9153 H       
  52 H52           -0.5563    -9.2685    -4.4314 H       
  53 H53            1.9306    -2.5331     4.7136 H       
  54 H54           -0.3978    -5.3587     6.9148 H       
  55 H55           -0.6335    -6.7486     4.8998 H       
  56 H56            0.4005    -6.0435     2.7840 H       
  57 H57           -2.9482     1.7731    -1.7433 H       
  58 H58           -2.8604     2.1243    -0.0005 H       
  59 H59           -2.7616     3.4519    -1.1820 H       
  60 H60            0.2090    -2.4362     7.1633 H       
@<TRIPOS>BOND
   1    1    2 ar
   2    1    6 ar
   3    1   34 1
   4    2    3 ar
   5    2   35 1
   6    3    4 ar
   7    3    7 1
   8    4    5 ar
   9    4   36 1
  10    5    6 ar
  11    5   37 1
  12    6   31 1
  13    7    8 1
  14    8    9 1
  15    8   38 1
  16    8   39 1
  17    9   10 1
  18    9   11 1
  19    9   40 1
  20   10   17 1
  21   10   23 am
  22   11   12 ar
  23   11   13 ar
  24   12   14 ar
  25   12   18 1
  26   13   16 ar
  27   13   41 1
  28   14   15 ar
  29   14   42 1
  30   15   16 ar
  31   15   21 1
  32   16   19 1
  33   17   18 1
  34   17   43 1
  35   17   44 1
  36   18   45 1
  37   18   46 1
  38   19   20 1
  39   20   47 1
  40   20   48 1
  41   20   49 1
  42   21   22 1
  43   22   50 1
  44   22   51 1
  45   22   52 1
  46   23   24 2
  47   23   25 1
  48   25   26 ar
  49   25   30 ar
  50   26   27 ar
  51   26   53 1
  52   27   28 ar
  53   27   33 1
  54   28   29 ar
  55   28   54 1
  56   29   30 ar
  57   29   55 1
  58   30   56 1
  59   31   32 1
  60   32   57 1
  61   32   58 1
  62   32   59 1
  63   33   60 1

#	End of record

