#	Name: ASD10610100
#	Creating user name:	WinNT
#	Creation time:	15. 06. 2019 21:28

#	Modifying user name:	WinNT
#	Modification time:	15. 06. 2019 21:28

#	Program:	/corina/corina34_cracker 3.40 0067  02.08.2006

@<TRIPOS>MOLECULE
ASD10610100
  58   61    0    0    0
SMALL
NO_CHARGES


@<TRIPOS>ATOM
   1 S1             2.9539     2.3251     2.9949 S.3     
   2 N2             3.5473     1.2880     4.0078 N.2     
   3 N3             4.8037     1.4643     4.1173 N.2     
   4 C4             5.3968     2.4108     3.4284 C.2     
   5 C5             4.5030     3.1124     2.6410 C.2     
   6 C6             4.7714     4.2377     1.7313 C.2     
   7 O7             5.8871     4.7182     1.6711 O.2     
   8 N8             3.7809     4.7358     0.9649 N.am    
   9 O9             2.4717     7.2208     0.5911 O.3     
  10 C10            2.7769     6.4570    -0.5830 C.3     
  11 C11            4.0197     5.9220     0.1390 C.3     
  12 C12            3.8750     7.2559     0.8818 C.3     
  13 C13            5.2493     5.8155    -0.7258 C.2     
  14 N14            5.5852     4.6323    -1.2770 N.am    
  15 O15            5.9367     6.7945    -0.9257 O.2     
  16 C16            6.7159     4.5512    -2.2049 C.3     
  17 C17            6.2528     4.9455    -3.6088 C.3     
  18 C18            7.2461     3.1407    -2.2285 C.ar    
  19 C19            8.6116     2.9236    -2.1398 C.ar    
  20 C20            9.0933     1.6239    -2.1616 C.ar    
  21 C21            8.1729     0.5783    -2.2731 C.ar    
  22 C22            6.8154     0.8808    -2.3575 C.ar    
  23 N23            6.4030     2.1316    -2.3278 N.ar    
  24 F24            9.4639     3.9664    -2.0338 F       
  25 C25            8.6338    -0.8314    -2.3016 C.ar    
  26 C26            8.2918    -1.6600    -3.3741 C.ar    
  27 C27            8.7266    -2.9763    -3.3932 C.ar    
  28 C28            9.4961    -3.4668    -2.3539 C.ar    
  29 C29            9.8358    -2.6483    -1.2902 C.ar    
  30 C30            9.4140    -1.3332    -1.2626 C.ar    
  31 O31            7.5353    -1.1771    -4.3945 O.3     
  32 C32            8.2316    -0.6662    -5.5329 C.3     
  33 C33            7.2234    -0.2864    -6.6193 C.3     
  34 F34            6.5640    -1.4365    -7.0661 F       
  35 F35            6.2890     0.6128    -6.0945 F       
  36 Cl36          10.8017    -3.2745     0.0092 Cl      
  37 Cl37           8.3042    -4.0100    -4.7225 Cl      
  38 C38            6.8749     2.6985     3.4885 C.3     
  39 H39            2.9099     4.3089     0.9603 H       
  40 H40            2.0381     5.6861    -0.8018 H       
  41 H41            3.0122     7.0730    -1.4509 H       
  42 H42            4.3970     8.0805     0.3963 H       
  43 H43            4.0983     7.1849     1.9463 H       
  44 H44            5.0782     3.8346    -1.0593 H       
  45 H45            7.5036     5.2300    -1.8781 H       
  46 H46            5.4652     4.2667    -3.9357 H       
  47 H47            5.8693     5.9657    -3.5918 H       
  48 H48            7.0941     4.8851    -4.2993 H       
  49 H49           10.1526     1.4246    -2.0945 H       
  50 H50            6.0939     0.0818    -2.4440 H       
  51 H51            9.8331    -4.4927    -2.3719 H       
  52 H52            9.6849    -0.6960    -0.4337 H       
  53 H53            8.8034     0.2156    -5.2436 H       
  54 H54            8.9093    -1.4288    -5.9167 H       
  55 H55            7.7470     0.1796    -7.4540 H       
  56 H56            7.3956     2.0786     2.7587 H       
  57 H57            7.0498     3.7503     3.2625 H       
  58 H58            7.2483     2.4745     4.4878 H       
@<TRIPOS>BOND
   1    1    2 1
   2    1    5 1
   3    2    3 2
   4    3    4 1
   5    4    5 2
   6    4   38 1
   7    5    6 1
   8    6    7 2
   9    6    8 am
  10    8   11 1
  11    8   39 1
  12    9   10 1
  13    9   12 1
  14   10   11 1
  15   10   40 1
  16   10   41 1
  17   11   12 1
  18   11   13 1
  19   12   42 1
  20   12   43 1
  21   13   14 am
  22   13   15 2
  23   14   16 1
  24   14   44 1
  25   16   17 1
  26   16   18 1
  27   16   45 1
  28   17   46 1
  29   17   47 1
  30   17   48 1
  31   18   19 ar
  32   18   23 ar
  33   19   20 ar
  34   19   24 1
  35   20   21 ar
  36   20   49 1
  37   21   22 ar
  38   21   25 1
  39   22   23 ar
  40   22   50 1
  41   25   26 ar
  42   25   30 ar
  43   26   27 ar
  44   26   31 1
  45   27   28 ar
  46   27   37 1
  47   28   29 ar
  48   28   51 1
  49   29   30 ar
  50   29   36 1
  51   30   52 1
  52   31   32 1
  53   32   33 1
  54   32   53 1
  55   32   54 1
  56   33   34 1
  57   33   35 1
  58   33   55 1
  59   38   56 1
  60   38   57 1
  61   38   58 1

#	End of record

