#	Name: ASD13010030
#	Creating user name:	WinNT
#	Creation time:	15. 06. 2019 21:30

#	Modifying user name:	WinNT
#	Modification time:	15. 06. 2019 21:30

#	Program:	/corina/corina34_cracker 3.40 0067  02.08.2006

@<TRIPOS>MOLECULE
ASD13010030
  58   62    0    0    0
SMALL
NO_CHARGES


@<TRIPOS>ATOM
   1 C1             0.0060     1.3660    -0.0680 C.ar    
   2 C2             0.0172     0.0035    -0.0844 C.ar    
   3 C3             1.2265    -0.7024    -0.0017 C.ar    
   4 C4             2.4312    -0.0141     0.0979 C.ar    
   5 C5             1.2019     2.0758     0.0312 C.ar    
   6 N6             1.5053     3.4128     0.0709 N.pl3   
   7 C7             2.4243     1.3786     0.1146 C.ar    
   8 C8             3.4735     2.3987     0.2060 C.2     
   9 N9             2.8907     3.5689     0.1774 N.2     
  10 C10            0.5785     4.4522     0.0135 C.ar    
  11 S11            5.2056     2.1016     0.3337 S.3     
  12 C12            5.8824     3.7268     0.4041 C.ar    
  13 C13            6.2356     4.3861    -0.7679 C.ar    
  14 C14            6.0593     4.3556     1.6313 C.ar    
  15 C15            6.5901     5.6306     1.6823 C.ar    
  16 C16            6.9450     6.2810     0.5146 C.ar    
  17 C17            6.7657     5.6610    -0.7085 C.ar    
  18 C18           -1.2643     6.5190    -0.1008 C.ar    
  19 C19           -1.4851     5.3425    -0.8237 C.ar    
  20 C20           -0.5679     4.3182    -0.7647 C.ar    
  21 C21            0.7986     5.6197     0.7388 C.ar    
  22 C22           -0.1145     6.6480     0.6844 C.ar    
  23 C23           -2.2448     7.6185    -0.1616 C.2     
  24 O24           -3.2459     7.5030    -0.8404 O.2     
  25 O25           -2.0305     8.7516     0.5357 O.3     
  26 C26            1.2207    -2.1786    -0.0198 C.2     
  27 O27            0.3583    -2.7906     0.5802 O.2     
  28 Cl28           6.0115     3.6086    -2.3038 Cl      
  29 Cl29           5.6136     3.5404     3.0978 Cl      
  30 N30            2.1714    -2.8479    -0.7016 N.am    
  31 C31            2.2578    -4.3146    -0.6335 C.3     
  32 C32            2.3073    -4.8661    -2.0624 C.3     
  33 N33            3.3980    -4.2131    -2.7984 N.3     
  34 C34            3.1643    -2.7685    -2.9267 C.3     
  35 C35            3.1461    -2.1315    -1.5381 C.3     
  36 C36            3.5901    -4.8344    -4.1156 C.3     
  37 H37           -0.9316     1.8977    -0.1365 H       
  38 H38           -0.9140    -0.5381    -0.1615 H       
  39 H39            3.3639    -0.5550     0.1621 H       
  40 H40            6.7275     6.1198     2.6353 H       
  41 H41            7.3596     7.2774     0.5577 H       
  42 H42            7.0407     6.1736    -1.6185 H       
  43 H43           -2.3721     5.2396    -1.4311 H       
  44 H44           -0.7376     3.4094    -1.3230 H       
  45 H45            1.6867     5.7185     1.3453 H       
  46 H46            0.0592     7.5554     1.2437 H       
  47 H47           -2.7014     9.4444     0.4644 H       
  48 H48            3.1620    -4.6037    -0.0979 H       
  49 H49            1.3819    -4.7095    -0.1187 H       
  50 H50            2.4822    -5.9416    -2.0313 H       
  51 H51            1.3598    -4.6657    -2.5627 H       
  52 H52            3.9608    -2.3227    -3.5224 H       
  53 H53            2.2049    -2.5973    -3.4149 H       
  54 H54            2.8573    -1.0837    -1.6211 H       
  55 H55            4.1374    -2.2067    -1.0911 H       
  56 H56            2.6727    -4.7438    -4.6973 H       
  57 H57            4.4034    -4.3318    -4.6392 H       
  58 H58            3.8367    -5.8884    -3.9878 H       
@<TRIPOS>BOND
   1    1    2 ar
   2    1    5 ar
   3    1   37 1
   4    2    3 ar
   5    2   38 1
   6    3    4 ar
   7    3   26 1
   8    4    7 ar
   9    4   39 1
  10    5    7 ar
  11    5    6 1
  12    6    9 1
  13    6   10 1
  14    7    8 1
  15    8    9 2
  16    8   11 1
  17   10   21 ar
  18   10   20 ar
  19   11   12 1
  20   12   14 ar
  21   12   13 ar
  22   13   17 ar
  23   13   28 1
  24   14   15 ar
  25   14   29 1
  26   15   16 ar
  27   15   40 1
  28   16   17 ar
  29   16   41 1
  30   17   42 1
  31   18   19 ar
  32   18   22 ar
  33   18   23 1
  34   19   20 ar
  35   19   43 1
  36   20   44 1
  37   21   22 ar
  38   21   45 1
  39   22   46 1
  40   23   24 2
  41   23   25 1
  42   25   47 1
  43   26   27 2
  44   26   30 am
  45   30   31 1
  46   30   35 1
  47   31   32 1
  48   31   48 1
  49   31   49 1
  50   32   33 1
  51   32   50 1
  52   32   51 1
  53   33   34 1
  54   33   36 1
  55   34   35 1
  56   34   52 1
  57   34   53 1
  58   35   54 1
  59   35   55 1
  60   36   56 1
  61   36   57 1
  62   36   58 1

#	End of record

