#	Name: ASD10160097
#	Creating user name:	WinNT
#	Creation time:	15. 06. 2019 21:25

#	Modifying user name:	WinNT
#	Modification time:	15. 06. 2019 21:25

#	Program:	/corina/corina34_cracker 3.40 0067  02.08.2006

@<TRIPOS>MOLECULE
ASD10160097
  36   37    0    0    0
SMALL
NO_CHARGES


@<TRIPOS>ATOM
   1 C1             0.7579     1.4155    -0.4013 C.2     
   2 C2             0.5737    -0.0455    -0.3011 C.ar    
   3 C3             1.5333    -0.9107    -0.8334 C.ar    
   4 C4             1.3579    -2.2730    -0.7379 C.ar    
   5 C5             0.2276    -2.7881    -0.1134 C.ar    
   6 C6            -0.7296    -1.9306     0.4170 C.ar    
   7 C7            -0.5580    -0.5671     0.3314 C.ar    
   8 O8             1.7455     1.8677    -0.9475 O.2     
   9 N9            -0.1715     2.2484     0.1078 N.am    
  10 S10            0.0352     3.8876    -0.0046 S.o2    
  11 O11           -1.1042     4.4300     0.6487 O.2     
  12 O12            1.3446     4.1111     0.5000 O.2     
  13 C13           -0.0282     4.2307    -1.7847 C.3     
  14 O14            0.0580    -4.1312    -0.0217 O.3     
  15 C15            0.5349    -6.1507     1.1491 C.ar    
  16 C16            0.5842    -4.7688     1.0578 C.ar    
  17 C17            1.1794    -4.0415     2.0849 C.ar    
  18 C18            1.7024    -4.7326     3.1648 C.ar    
  19 C19            1.6162    -6.1194     3.1869 C.ar    
  20 N20            1.0440    -6.7769     2.1930 N.ar    
  21 O21            2.1259    -6.8069     4.2411 O.3     
  22 C22            2.0067    -8.2305     4.2059 C.3     
  23 Cl23           2.4566    -3.8776     4.4739 Cl      
  24 H24            2.4112    -0.5113    -1.3193 H       
  25 H25            2.0991    -2.9423    -1.1491 H       
  26 H26           -1.6064    -2.3345     0.9011 H       
  27 H27           -1.2996     0.0984     0.7480 H       
  28 H28           -0.9614     1.8876     0.5401 H       
  29 H29           -0.9927     3.9140    -2.1817 H       
  30 H30            0.1008     5.2999    -1.9535 H       
  31 H31            0.7692     3.6846    -2.2887 H       
  32 H32            0.0708    -6.7215     0.3584 H       
  33 H33            1.2322    -2.9637     2.0402 H       
  34 H34            0.9532    -8.5058     4.1585 H       
  35 H35            2.5231    -8.6167     3.3271 H       
  36 H36            2.4530    -8.6547     5.1053 H       
@<TRIPOS>BOND
   1    1    2 1
   2    1    8 2
   3    1    9 am
   4    2    3 ar
   5    2    7 ar
   6    3    4 ar
   7    3   24 1
   8    4    5 ar
   9    4   25 1
  10    5    6 ar
  11    5   14 1
  12    6    7 ar
  13    6   26 1
  14    7   27 1
  15    9   10 am
  16    9   28 1
  17   10   11 2
  18   10   12 2
  19   10   13 1
  20   13   29 1
  21   13   30 1
  22   13   31 1
  23   14   16 1
  24   15   16 ar
  25   15   20 ar
  26   15   32 1
  27   16   17 ar
  28   17   18 ar
  29   17   33 1
  30   18   19 ar
  31   18   23 1
  32   19   20 ar
  33   19   21 1
  34   21   22 1
  35   22   34 1
  36   22   35 1
  37   22   36 1

#	End of record

