#	Name: ASD10800047
#	Creating user name:	WinNT
#	Creation time:	15. 06. 2019 21:28

#	Modifying user name:	WinNT
#	Modification time:	15. 06. 2019 21:28

#	Program:	/corina/corina34_cracker 3.40 0067  02.08.2006

@<TRIPOS>MOLECULE
ASD10800047
  48   51    0    0    0
SMALL
NO_CHARGES


@<TRIPOS>ATOM
   1 C1            -0.0168     1.3866     0.0097 C.ar    
   2 C2             0.0021    -0.0041     0.0020 C.ar    
   3 C3             1.2071    -0.6720    -0.0131 C.ar    
   4 C4             2.4050     0.0289    -0.0203 C.ar    
   5 C5             2.4096     1.3955    -0.0130 C.ar    
   6 C6             1.2003     2.0926     0.0018 C.ar    
   7 C7             3.7157     2.1473    -0.0205 C.3     
   8 C8             4.1077     2.5030     1.4151 C.3     
   9 N9             4.7582     1.3092    -0.6179 N.pl3   
  10 C10            5.3476     3.3593     1.3998 C.ar    
  11 C11            5.2363     4.7356     1.3347 C.ar    
  12 C12            6.5962     2.7687     1.4564 C.ar    
  13 C13            7.7336     3.5542     1.4424 C.ar    
  14 C14            7.6224     4.9303     1.3712 C.ar    
  15 C15            6.3737     5.5211     1.3206 C.ar    
  16 C16            9.0947     2.9105     1.5052 C.3     
  17 C17            6.2525     7.0212     1.2431 C.3     
  18 C18            4.9187     1.2802    -1.9839 C.2     
  19 N19            5.7982     0.5825    -2.6080 N.2     
  20 S20            3.9400     2.1917    -3.1396 S.3     
  21 C21            4.8019     1.5829    -4.6250 C.3     
  22 C22            5.8680     0.6366    -4.0512 C.3     
  23 C23            0.8440     3.5134     0.0128 C.2     
  24 C24           -0.4965     3.5818     0.0254 C.2     
  25 N25           -1.0281     2.3210     0.0188 N.pl3   
  26 H26           -0.9247    -0.5585     0.0083 H       
  27 H27            1.2197    -1.7519    -0.0190 H       
  28 H28            3.3409    -0.5099    -0.0315 H       
  29 H29            3.6055     3.0613    -0.6041 H       
  30 H30            3.2933     3.0511     1.8888 H       
  31 H31            4.3044     1.5887     1.9751 H       
  32 H32            5.3353     0.7746    -0.0504 H       
  33 H33            4.2608     5.1972     1.2946 H       
  34 H34            6.6830     1.6937     1.5121 H       
  35 H35            8.5111     5.5440     1.3606 H       
  36 H36            9.4458     2.7037     0.4942 H       
  37 H37            9.7929     3.5845     2.0015 H       
  38 H38            9.0299     1.9776     2.0652 H       
  39 H39            6.2404     7.3312     0.1981 H       
  40 H40            5.3278     7.3365     1.7263 H       
  41 H41            7.1017     7.4810     1.7486 H       
  42 H42            4.1149     1.0368    -5.2715 H       
  43 H43            5.2664     2.4078    -5.1653 H       
  44 H44            6.8558     0.9899    -4.3470 H       
  45 H45            5.7126    -0.3637    -4.4554 H       
  46 H46            1.5298     4.3477     0.0115 H       
  47 H47           -1.0706     4.4966     0.0356 H       
  48 H48           -1.9762     2.1159     0.0250 H       
@<TRIPOS>BOND
   1    1    2 ar
   2    1    6 ar
   3    1   25 1
   4    2    3 ar
   5    2   26 1
   6    3    4 ar
   7    3   27 1
   8    4    5 ar
   9    4   28 1
  10    5    6 ar
  11    5    7 1
  12    6   23 1
  13    7    8 1
  14    7    9 1
  15    7   29 1
  16    8   10 1
  17    8   30 1
  18    8   31 1
  19    9   18 1
  20    9   32 1
  21   10   11 ar
  22   10   12 ar
  23   11   15 ar
  24   11   33 1
  25   12   13 ar
  26   12   34 1
  27   13   14 ar
  28   13   16 1
  29   14   15 ar
  30   14   35 1
  31   15   17 1
  32   16   36 1
  33   16   37 1
  34   16   38 1
  35   17   39 1
  36   17   40 1
  37   17   41 1
  38   18   19 2
  39   18   20 1
  40   19   22 1
  41   20   21 1
  42   21   22 1
  43   21   42 1
  44   21   43 1
  45   22   44 1
  46   22   45 1
  47   23   24 2
  48   23   46 1
  49   24   25 1
  50   24   47 1
  51   25   48 1

#	End of record

