#	Name: ASD10160064
#	Creating user name:	WinNT
#	Creation time:	15. 06. 2019 21:25

#	Modifying user name:	WinNT
#	Modification time:	15. 06. 2019 21:25

#	Program:	/corina/corina34_cracker 3.40 0067  02.08.2006

@<TRIPOS>MOLECULE
ASD10160064
  44   45    0    0    0
SMALL
NO_CHARGES


@<TRIPOS>ATOM
   1 C1            -2.2254    -2.6003     4.8644 C.2     
   2 C2            -1.6246    -3.0036     3.5797 C.ar    
   3 C3            -0.3000    -3.4540     3.5347 C.ar    
   4 C4             0.2578    -3.8308     2.3296 C.ar    
   5 C5            -0.4931    -3.7635     1.1637 C.ar    
   6 C6            -1.8110    -3.3155     1.2041 C.ar    
   7 C7            -2.3781    -2.9427     2.4034 C.ar    
   8 O8            -1.5700    -2.6588     5.8871 O.2     
   9 N9            -3.4991    -2.1617     4.9045 N.am    
  10 S10           -4.1739    -1.7088     6.3474 S.o2    
  11 O11           -5.5035    -1.3371     6.0111 O.2     
  12 O12           -3.9166    -2.8052     7.2140 O.2     
  13 C13           -3.2164    -0.2553     6.8584 C.3     
  14 F14           -2.5367    -3.2516     0.0663 F       
  15 F15            0.4314    -3.5194     4.6688 F       
  16 O16            0.0593    -4.1350    -0.0193 O.3     
  17 C17            2.4237    -3.8526    -0.1437 C.ar    
  18 C18            1.3094    -4.6674    -0.0004 C.ar    
  19 C19            1.4904    -6.0369     0.1633 C.ar    
  20 C20            2.7852    -6.5333     0.1765 C.ar    
  21 C21            3.8455    -5.6572     0.0276 C.ar    
  22 N22            3.6383    -4.3639    -0.1256 N.ar    
  23 Cl23           3.0722    -8.2335     0.3780 Cl      
  24 C24            5.2559    -6.1879     0.0407 C.3     
  25 C25            5.4341    -7.1908    -1.1008 C.3     
  26 C26            6.2385    -5.0291    -0.1405 C.3     
  27 C27            5.5272    -6.8823     1.3768 C.3     
  28 H28            1.2798    -4.1782     2.2935 H       
  29 H29           -3.4018    -2.6000     2.4342 H       
  30 H30           -4.0206    -2.1113     4.0882 H       
  31 H31           -3.3094     0.5250     6.1030 H       
  32 H32           -3.5968     0.1139     7.8108 H       
  33 H33           -2.1677    -0.5313     6.9685 H       
  34 H34            2.2939    -2.7886    -0.2759 H       
  35 H35            0.6435    -6.6972     0.2777 H       
  36 H36            5.2409    -6.6961    -2.0527 H       
  37 H37            6.4543    -7.5746    -1.0914 H       
  38 H38            4.7342    -8.0164    -0.9718 H       
  39 H39            6.1115    -4.3146     0.6728 H       
  40 H40            7.2586    -5.4129    -0.1310 H       
  41 H41            6.0452    -4.5344    -1.0923 H       
  42 H42            4.8272    -7.7078     1.5059 H       
  43 H43            6.5473    -7.2661     1.3862 H       
  44 H44            5.4002    -6.1678     2.1900 H       
@<TRIPOS>BOND
   1    1    2 1
   2    1    8 2
   3    1    9 am
   4    2    3 ar
   5    2    7 ar
   6    3    4 ar
   7    3   15 1
   8    4    5 ar
   9    4   28 1
  10    5    6 ar
  11    5   16 1
  12    6    7 ar
  13    6   14 1
  14    7   29 1
  15    9   10 am
  16    9   30 1
  17   10   11 2
  18   10   12 2
  19   10   13 1
  20   13   31 1
  21   13   32 1
  22   13   33 1
  23   16   18 1
  24   17   18 ar
  25   17   22 ar
  26   17   34 1
  27   18   19 ar
  28   19   20 ar
  29   19   35 1
  30   20   21 ar
  31   20   23 1
  32   21   22 ar
  33   21   24 1
  34   24   25 1
  35   24   27 1
  36   24   26 1
  37   25   36 1
  38   25   37 1
  39   25   38 1
  40   26   39 1
  41   26   40 1
  42   26   41 1
  43   27   42 1
  44   27   43 1
  45   27   44 1

#	End of record

