#	Name: ASD13010049
#	Creating user name:	WinNT
#	Creation time:	15. 06. 2019 21:30

#	Modifying user name:	WinNT
#	Modification time:	15. 06. 2019 21:30

#	Program:	/corina/corina34_cracker 3.40 0067  02.08.2006

@<TRIPOS>MOLECULE
ASD13010049
  45   48    0    0    0
SMALL
NO_CHARGES


@<TRIPOS>ATOM
   1 C1            -0.0165     1.3621     0.0095 C.ar    
   2 C2             0.0021    -0.0041     0.0020 C.ar    
   3 C3             1.2047    -0.6992    -0.0132 C.ar    
   4 C4             2.3947    -0.0298    -0.0205 C.ar    
   5 C5             1.1819     2.0716     0.0019 C.ar    
   6 N6             1.4943     3.4060     0.0061 N.pl3   
   7 C7             2.4018     1.3682    -0.0131 C.ar    
   8 C8             3.4586     2.3795    -0.0173 C.2     
   9 N9             2.8852     3.5523    -0.0064 N.2     
  10 O10            4.7966     2.1412    -0.0307 O.3     
  11 C11            5.6353     3.2108    -0.0326 C.ar    
  12 C12            6.0490     3.7679    -1.2350 C.ar    
  13 C13            6.0753     3.7518     1.1677 C.ar    
  14 C14            6.9280     4.8401     1.1625 C.ar    
  15 C15            7.3421     5.3898    -0.0367 C.ar    
  16 C16            6.9018     4.8562    -1.2337 C.ar    
  17 Cl17           5.4967     3.0986    -2.7385 Cl      
  18 Cl18           5.5549     3.0630     2.6738 Cl      
  19 C19            0.5253     4.5047     0.0205 C.3     
  20 C20           -0.0795     7.3712     0.0409 C.3     
  21 C21           -0.2942     6.5182    -1.2110 C.3     
  22 C22            0.7177     5.3708    -1.2260 C.3     
  23 C23            0.7401     5.3577     1.2723 C.3     
  24 C24           -0.2719     6.5051     1.2874 C.3     
  25 C25           -1.0763     8.5014     0.0557 C.2     
  26 O26           -1.8763     8.6131    -0.8429 O.2     
  27 O27           -1.0753     9.3839     1.0670 O.3     
  28 H28           -0.9583     1.8906     0.0169 H       
  29 H29           -0.9296    -0.5502     0.0083 H       
  30 H30            1.1984    -1.7791    -0.0189 H       
  31 H31            3.3255    -0.5774    -0.0316 H       
  32 H32            7.2706     5.2614     2.0960 H       
  33 H33            8.0077     6.2404    -0.0382 H       
  34 H34            7.2243     5.2898    -2.1688 H       
  35 H35           -0.4857     4.0974     0.0274 H       
  36 H36            0.9315     7.7785     0.0340 H       
  37 H37           -1.3053     6.1109    -1.2041 H       
  38 H38           -0.1571     7.1352    -2.0990 H       
  39 H39            1.7288     5.7781    -1.2329 H       
  40 H40            0.5648     4.7631    -2.1179 H       
  41 H41            0.6030     4.7407     2.1604 H       
  42 H42            1.7511     5.7650     1.2654 H       
  43 H43           -0.1189     7.1129     2.1792 H       
  44 H44           -1.2829     6.0979     1.2943 H       
  45 H45           -1.7334    10.0916     1.0328 H       
@<TRIPOS>BOND
   1    1    2 ar
   2    1    5 ar
   3    1   28 1
   4    2    3 ar
   5    2   29 1
   6    3    4 ar
   7    3   30 1
   8    4    7 ar
   9    4   31 1
  10    5    7 ar
  11    5    6 1
  12    6    9 1
  13    6   19 1
  14    7    8 1
  15    8    9 2
  16    8   10 1
  17   10   11 1
  18   11   13 ar
  19   11   12 ar
  20   12   16 ar
  21   12   17 1
  22   13   14 ar
  23   13   18 1
  24   14   15 ar
  25   14   32 1
  26   15   16 ar
  27   15   33 1
  28   16   34 1
  29   19   23 1
  30   19   22 1
  31   19   35 1
  32   20   21 1
  33   20   24 1
  34   20   25 1
  35   20   36 1
  36   21   22 1
  37   21   37 1
  38   21   38 1
  39   22   39 1
  40   22   40 1
  41   23   24 1
  42   23   41 1
  43   23   42 1
  44   24   43 1
  45   24   44 1
  46   25   26 2
  47   25   27 1
  48   27   45 1

#	End of record

