#	Name: ASD10160019
#	Creating user name:	WinNT
#	Creation time:	15. 06. 2019 21:25

#	Modifying user name:	WinNT
#	Modification time:	15. 06. 2019 21:25

#	Program:	/corina/corina34_cracker 3.40 0067  02.08.2006

@<TRIPOS>MOLECULE
ASD10160019
  46   47    0    0    0
SMALL
NO_CHARGES


@<TRIPOS>ATOM
   1 C1             1.7972    -1.5436     3.5599 C.ar    
   2 C2             1.3604    -2.1592     2.3884 C.ar    
   3 C3             2.8419    -0.6143     3.5144 C.ar    
   4 C4             3.4421    -0.3035     2.3147 C.ar    
   5 C5             3.0151    -0.9107     1.1409 C.ar    
   6 C6             1.9675    -1.8455     1.1749 C.ar    
   7 C7             1.1533    -1.8677     4.8483 C.2     
   8 N8             1.5756    -1.2724     5.9813 N.am    
   9 O9             0.2420    -2.6716     4.8873 O.2     
  10 S10            0.8533    -1.6360     7.4265 S.o2    
  11 O11            1.5285    -0.8171     8.3715 O.2     
  12 O12           -0.5356    -1.4720     7.1751 O.2     
  13 O13            3.6089    -0.6010    -0.0371 O.3     
  14 C14            4.6882     0.2254    -0.0101 C.ar    
  15 C15            1.5252    -2.4737    -0.0336 C.1     
  16 N16            1.1743    -2.9720    -0.9922 N.1     
  17 C17            5.9706    -0.2948     0.1461 C.ar    
  18 C18            4.5264     1.5948    -0.1431 C.ar    
  19 N19            5.5689     2.4037    -0.1179 N.ar    
  20 C20            6.7997     1.9464     0.0340 C.ar    
  21 C21            7.0400     0.5838     0.1680 C.ar    
  22 Cl22           8.6599    -0.0078     0.3670 Cl      
  23 O23            7.8416     2.8168     0.0534 O.3     
  24 C24            7.5311     4.2038    -0.0952 C.3     
  25 C25            8.8222     5.0233    -0.0486 C.3     
  26 C26            1.2482    -3.3848     7.7026 C.3     
  27 C27            9.6932     4.6718    -1.2564 C.3     
  28 C28            8.4813     6.5144    -0.0824 C.3     
  29 H29            0.5543    -2.8772     2.4214 H       
  30 H30            3.1788    -0.1385     4.4236 H       
  31 H31            4.2477     0.4153     2.2863 H       
  32 H32            2.3026    -0.6311     5.9503 H       
  33 H33            6.1269    -1.3586     0.2480 H       
  34 H34            3.5354     2.0053    -0.2694 H       
  35 H35            7.0332     4.3642    -1.0515 H       
  36 H36            6.8722     4.5174     0.7145 H       
  37 H37            9.3644     4.7952     0.8690 H       
  38 H38            2.3300    -3.5107     7.7454 H       
  39 H39            0.8067    -3.7128     8.6437 H       
  40 H40            0.8450    -3.9818     6.8846 H       
  41 H41           10.6131     5.2557    -1.2232 H       
  42 H42            9.9361     3.6095    -1.2324 H       
  43 H43            9.1510     4.8999    -2.1741 H       
  44 H44            7.8608     6.7648     0.7781 H       
  45 H45            9.4012     7.0983    -0.0492 H       
  46 H46            7.9391     6.7425    -1.0000 H       
@<TRIPOS>BOND
   1    1    2 ar
   2    1    3 ar
   3    1    7 1
   4    2    6 ar
   5    2   29 1
   6    3    4 ar
   7    3   30 1
   8    4    5 ar
   9    4   31 1
  10    5    6 ar
  11    5   13 1
  12    6   15 1
  13    7    8 am
  14    7    9 2
  15    8   10 am
  16    8   32 1
  17   10   11 2
  18   10   12 2
  19   10   26 1
  20   13   14 1
  21   14   17 ar
  22   14   18 ar
  23   15   16 3
  24   17   21 ar
  25   17   33 1
  26   18   19 ar
  27   18   34 1
  28   19   20 ar
  29   20   21 ar
  30   20   23 1
  31   21   22 1
  32   23   24 1
  33   24   25 1
  34   24   35 1
  35   24   36 1
  36   25   27 1
  37   25   28 1
  38   25   37 1
  39   26   38 1
  40   26   39 1
  41   26   40 1
  42   27   41 1
  43   27   42 1
  44   27   43 1
  45   28   44 1
  46   28   45 1
  47   28   46 1

#	End of record

