#	Name: ASD10610060
#	Creating user name:	WinNT
#	Creation time:	15. 06. 2019 21:27

#	Modifying user name:	WinNT
#	Modification time:	15. 06. 2019 21:27

#	Program:	/corina/corina34_cracker 3.40 0067  02.08.2006

@<TRIPOS>MOLECULE
ASD10610060
  48   52    0    0    0
SMALL
NO_CHARGES


@<TRIPOS>ATOM
   1 C1            -0.0187     1.5258     0.0104 C.3     
   2 C2             0.0021    -0.0041     0.0020 C.3     
   3 C3             1.3165     0.7789    -0.0063 C.3     
   4 C4            -0.4420     2.2229    -1.2568 C.2     
   5 O5            -0.3149     1.6661    -2.3267 O.2     
   6 N6            -0.9617     3.4652    -1.2012 N.am    
   7 O7            -3.3413     4.9962    -3.3521 O.3     
   8 C8            -2.8256     3.7681    -2.8117 C.3     
   9 C9            -1.3732     4.1429    -2.4331 C.3     
  10 C10           -1.4822     5.6404    -2.2176 C.ar    
  11 C11           -2.6826     6.0468    -2.7896 C.ar    
  12 C12           -0.6470     6.5471    -1.6010 C.ar    
  13 C13           -0.9986     7.8814    -1.5360 C.ar    
  14 C14           -2.2019     8.3055    -2.0976 C.ar    
  15 C15           -3.0409     7.3885    -2.7231 C.ar    
  16 C16           -2.5881     9.7352    -2.0286 C.ar    
  17 C17           -2.5437    10.4197    -0.8034 C.ar    
  18 C18           -2.9088    11.7644    -0.7515 C.ar    
  19 C19           -3.3116    12.4155    -1.9031 C.ar    
  20 C20           -3.3547    11.7387    -3.1105 C.ar    
  21 C21           -2.9907    10.4070    -3.1787 C.ar    
  22 O22           -1.4506     8.1988     1.6653 O.3     
  23 N23           -1.7448     8.4641     0.5189 N.2     
  24 C24           -2.1117     9.7168     0.4276 C.2     
  25 N25           -2.0224    10.2500     1.6677 N.2     
  26 C26           -1.6032     9.2781     2.4390 C.2     
  27 C27           -1.3418     9.3611     3.9208 C.3     
  28 F28           -2.8696    12.4306     0.4232 F       
  29 Cl29          -3.8624    12.5694    -4.5478 Cl      
  30 N30           -0.4076     2.1920     1.2606 N.3     
  31 H31           -0.2728    -0.5162     0.9241 H       
  32 H32           -0.2904    -0.5063    -0.9201 H       
  33 H33            1.8888     0.7918    -0.9339 H       
  34 H34            1.9064     0.7818     0.9103 H       
  35 H35           -1.0634     3.9105    -0.3455 H       
  36 H36           -3.3896     3.4680    -1.9285 H       
  37 H37           -2.8372     2.9800    -3.5646 H       
  38 H38           -0.6869     3.9150    -3.2487 H       
  39 H39            0.2842     6.2135    -1.1674 H       
  40 H40           -0.3448     8.5922    -1.0524 H       
  41 H41           -3.9726     7.7196    -3.1575 H       
  42 H42           -3.5944    13.4570    -1.8606 H       
  43 H43           -3.0224     9.8866    -4.1245 H       
  44 H44           -1.0011     8.3917     4.2845 H       
  45 H45           -0.5748    10.1114     4.1131 H       
  46 H46           -2.2605     9.6403     4.4367 H       
  47 H47           -0.3879     3.1954     1.1569 H       
  48 H48           -1.3151     1.8782     1.5704 H       
@<TRIPOS>BOND
   1    1    2 1
   2    1    3 1
   3    1    4 1
   4    1   30 1
   5    2    3 1
   6    2   31 1
   7    2   32 1
   8    3   33 1
   9    3   34 1
  10    4    5 2
  11    4    6 am
  12    6    9 1
  13    6   35 1
  14    7    8 1
  15    7   11 1
  16    8    9 1
  17    8   36 1
  18    8   37 1
  19    9   10 1
  20    9   38 1
  21   10   11 ar
  22   10   12 ar
  23   11   15 ar
  24   12   13 ar
  25   12   39 1
  26   13   14 ar
  27   13   40 1
  28   14   15 ar
  29   14   16 1
  30   15   41 1
  31   16   17 ar
  32   16   21 ar
  33   17   18 ar
  34   17   24 1
  35   18   19 ar
  36   18   28 1
  37   19   20 ar
  38   19   42 1
  39   20   21 ar
  40   20   29 1
  41   21   43 1
  42   22   23 1
  43   22   26 1
  44   23   24 2
  45   24   25 1
  46   25   26 2
  47   26   27 1
  48   27   44 1
  49   27   45 1
  50   27   46 1
  51   30   47 1
  52   30   48 1

#	End of record

