#	Name: ASD13490053
#	Creating user name:	WinNT
#	Creation time:	15. 06. 2019 21:30

#	Modifying user name:	WinNT
#	Modification time:	15. 06. 2019 21:30

#	Program:	/corina/corina34_cracker 3.40 0067  02.08.2006

@<TRIPOS>MOLECULE
ASD13490053
  56   60    0    0    0
SMALL
NO_CHARGES


@<TRIPOS>ATOM
   1 N1             2.7047     1.1969    -2.0915 N.ar    
   2 C2             2.9683    -0.0966    -2.0523 C.ar    
   3 C3             3.6642    -0.6491    -0.9769 C.ar    
   4 C4             4.0805     0.1791     0.0598 C.ar    
   5 C5             3.7869     1.5301    -0.0144 C.ar    
   6 C6             3.0884     2.0152    -1.1174 C.ar    
   7 N7             3.9406    -2.0247    -0.9414 N.pl3   
   8 C8             5.1586    -2.6049    -0.7004 C.2     
   9 C9             4.9742    -3.9379    -0.7583 C.2     
  10 N10            3.6810    -4.1701    -1.0269 N.2     
  11 C11            3.0504    -3.0319    -1.1335 C.2     
  12 C12            2.7696     3.4594    -1.2056 C.2     
  13 N13            3.1282     4.3281    -0.2610 N.2     
  14 C14            2.7939     5.5672    -0.4469 C.2     
  15 S15            1.9249     5.7184    -1.9708 S.3     
  16 C16            2.1026     3.9874    -2.2477 C.2     
  17 N17            3.0764     6.6111     0.4203 N.pl3   
  18 C18            6.0372    -4.9868    -0.5561 C.3     
  19 C19            2.6825     7.9083     0.1003 C.2     
  20 N20            3.4545     8.8643    -0.4839 N.pl3   
  21 C21            1.4585     8.4494     0.3079 C.2     
  22 C22            1.4844     9.7729    -0.1585 C.2     
  23 N23            2.6729    10.0202    -0.6284 N.2     
  24 C24            0.2433     7.8032     0.9259 C.3     
  25 C25           -0.7410     8.9120     1.3191 C.3     
  26 C26           -0.9631     9.8499     0.1305 C.3     
  27 C27            0.2930    10.6987    -0.1016 C.3     
  28 C28            4.8542     8.7135    -0.8894 C.3     
  29 C29            4.9184     8.3412    -2.3720 C.3     
  30 O30            2.5575    -0.8967    -3.0686 O.3     
  31 C31            1.8492    -0.2716    -4.1408 C.3     
  32 H32            4.6206    -0.2227     0.9043 H       
  33 H33            4.0958     2.2001     0.7743 H       
  34 H34            6.0881    -2.0918    -0.5024 H       
  35 H35            1.9977    -2.9116    -1.3423 H       
  36 H36            1.7371     3.4433    -3.1061 H       
  37 H37            3.5485     6.4382     1.2499 H       
  38 H38            6.0870    -5.2549     0.4992 H       
  39 H39            5.7916    -5.8710    -1.1444 H       
  40 H40            7.0016    -4.5933    -0.8770 H       
  41 H41           -0.2252     7.1347     0.2036 H       
  42 H42            0.5366     7.2406     1.8122 H       
  43 H43           -1.6916     8.4660     1.6117 H       
  44 H44           -0.3338     9.4782     2.1567 H       
  45 H45           -1.1722     9.2605    -0.7622 H       
  46 H46           -1.8096    10.5044     0.3383 H       
  47 H47            0.4157    11.4057     0.7189 H       
  48 H48            0.2023    11.2397    -1.0435 H       
  49 H49            5.3826     9.6529    -0.7275 H       
  50 H50            5.3214     7.9270    -0.2968 H       
  51 H51            4.3899     7.4017    -2.5340 H       
  52 H52            4.4511     9.1277    -2.9647 H       
  53 H53            5.9597     8.2290    -2.6737 H       
  54 H54            1.5795    -1.0217    -4.8842 H       
  55 H55            0.9449     0.1980    -3.7538 H       
  56 H56            2.4830     0.4857    -4.6021 H       
@<TRIPOS>BOND
   1    1    2 ar
   2    1    6 ar
   3    2    3 ar
   4    2   30 1
   5    3    4 ar
   6    3    7 1
   7    4    5 ar
   8    4   32 1
   9    5    6 ar
  10    5   33 1
  11    6   12 1
  12    7    8 1
  13    7   11 1
  14    8    9 2
  15    8   34 1
  16    9   10 1
  17    9   18 1
  18   10   11 2
  19   11   35 1
  20   12   13 1
  21   12   16 2
  22   13   14 2
  23   14   15 1
  24   14   17 1
  25   15   16 1
  26   16   36 1
  27   17   19 1
  28   17   37 1
  29   18   38 1
  30   18   39 1
  31   18   40 1
  32   19   21 2
  33   19   20 1
  34   20   23 1
  35   20   28 1
  36   21   24 1
  37   21   22 1
  38   22   23 2
  39   22   27 1
  40   24   25 1
  41   24   41 1
  42   24   42 1
  43   25   26 1
  44   25   43 1
  45   25   44 1
  46   26   27 1
  47   26   45 1
  48   26   46 1
  49   27   47 1
  50   27   48 1
  51   28   29 1
  52   28   49 1
  53   28   50 1
  54   29   51 1
  55   29   52 1
  56   29   53 1
  57   30   31 1
  58   31   54 1
  59   31   55 1
  60   31   56 1

#	End of record

