#	Name: ASD14610001
#	Creating user name:	WinNT
#	Creation time:	15. 06. 2019 21:31

#	Modifying user name:	WinNT
#	Modification time:	15. 06. 2019 21:31

#	Program:	/corina/corina34_cracker 3.40 0067  02.08.2006

@<TRIPOS>MOLECULE
ASD14610001
  31   32    0    0    0
SMALL
NO_CHARGES


@<TRIPOS>ATOM
   1 C1             0.6798     2.0903     1.9645 C.2     
   2 C2             1.1118     1.0005     2.8720 C.2     
   3 C3             3.4685     1.0354     1.7758 C.3     
   4 C4             2.7118     1.5046     0.5368 C.3     
   5 C5             1.5435     2.3825     0.8743 C.2     
   6 C6             0.3770     0.3927     3.8503 C.2     
   7 S7             1.2875    -0.8155     4.6347 S.3     
   8 C8             2.7051    -0.4952     3.6533 C.2     
   9 C9             2.4787     0.4751     2.7833 C.2     
  10 S10           -1.2894     0.8039     4.2486 S.3     
  11 C11           -1.5907    -0.3714     5.5917 C.3     
  12 O12           -0.3622     2.6994     2.1410 O.2     
  13 C13            1.3061     3.4770     0.1237 C.2     
  14 N14            0.1477     4.1857     0.2942 N.pl3   
  15 C15           -1.1473     3.5349     0.0811 C.3     
  16 C16            0.2029     5.5952     0.6898 C.3     
  17 H17            4.1813     0.2599     1.4954 H       
  18 H18            4.0006     1.8776     2.2182 H       
  19 H19            3.3961     2.0595    -0.1050 H       
  20 H20            2.3510     0.6317    -0.0074 H       
  21 H21            3.6431    -1.0221     3.7477 H       
  22 H22           -2.6079    -0.2461     5.9628 H       
  23 H23           -1.4620    -1.3881     5.2206 H       
  24 H24           -0.8837    -0.1876     6.4007 H       
  25 H25            2.0301     3.7945    -0.6122 H       
  26 H26           -0.9882     2.5026    -0.2306 H       
  27 H27           -1.7187     3.5502     1.0092 H       
  28 H28           -1.6986     4.0675    -0.6938 H       
  29 H29            0.2402     6.2216    -0.2015 H       
  30 H30           -0.6844     5.8442     1.2719 H       
  31 H31            1.0938     5.7687     1.2933 H       
@<TRIPOS>BOND
   1    1    2 1
   2    1    5 1
   3    1   12 2
   4    2    6 2
   5    2    9 1
   6    3    4 1
   7    3    9 1
   8    3   17 1
   9    3   18 1
  10    4    5 1
  11    4   19 1
  12    4   20 1
  13    5   13 2
  14    6    7 1
  15    6   10 1
  16    7    8 1
  17    8    9 2
  18    8   21 1
  19   10   11 1
  20   11   22 1
  21   11   23 1
  22   11   24 1
  23   13   14 1
  24   13   25 1
  25   14   15 1
  26   14   16 1
  27   15   26 1
  28   15   27 1
  29   15   28 1
  30   16   29 1
  31   16   30 1
  32   16   31 1

#	End of record

