#	Name: ASD11000263
#	Creating user name:	WinNT
#	Creation time:	15. 06. 2019 21:29

#	Modifying user name:	WinNT
#	Modification time:	15. 06. 2019 21:29

#	Program:	/corina/corina34_cracker 3.40 0067  02.08.2006

@<TRIPOS>MOLECULE
ASD11000263
  60   64    0    0    0
SMALL
NO_CHARGES


@<TRIPOS>ATOM
   1 C1            -0.0162     1.3201     0.0177 C.ar    
   2 N2             0.0010    -0.0048     0.0230 N.ar    
   3 C3             1.1465    -0.6660     0.0169 C.ar    
   4 C4             2.3370     0.0439     0.0047 C.ar    
   5 C5             2.2826     1.4290    -0.0006 C.ar    
   6 N6             1.1036     2.0284     0.0061 N.ar    
   7 N7            -1.2337     1.9804     0.0186 N.pl3   
   8 C8            -1.2735     3.3756     0.1321 C.ar    
   9 C9            -2.2517     4.0994    -0.5369 C.ar    
  10 C10           -2.2906     5.4752    -0.4241 C.ar    
  11 C11           -1.3529     6.1341     0.3572 C.ar    
  12 C12           -0.3751     5.4119     1.0254 C.ar    
  13 C13           -0.3384     4.0356     0.9183 C.ar    
  14 O14           -1.3918     7.4889     0.4678 O.3     
  15 C15           -0.3956     8.1018     1.2888 C.3     
  16 F16            0.8741     7.8022     0.7834 F       
  17 F17           -0.5814     9.4884     1.2909 F       
  18 F18           -0.5042     7.6147     2.5957 F       
  19 C19            3.6617    -0.6745    -0.0022 C.3     
  20 O20            4.0703    -0.9076    -1.3515 O.3     
  21 N21            8.8037    -3.4822    -2.3533 N.pl3   
  22 N22            8.7682    -3.4758    -3.7515 N.2     
  23 C23            7.6817    -2.8910    -4.1687 C.2     
  24 C24            6.9232    -2.4693    -2.9955 C.ar    
  25 C25            5.7039    -1.8060    -2.8139 C.ar    
  26 C26            5.2539    -1.5511    -1.5358 C.ar    
  27 C27            6.0059    -1.9489    -0.4314 C.ar    
  28 C28            7.1971    -2.5957    -0.5940 C.ar    
  29 C29            7.6751    -2.8664    -1.8737 C.ar    
  30 C30            7.2796    -2.6863    -5.6066 C.3     
  31 F31            8.2010    -3.3246    -6.4438 F       
  32 F32            6.0064    -3.2270    -5.8163 F       
  33 F33            7.2581    -1.3174    -5.8945 F       
  34 C34            9.8712    -4.0594    -1.5327 C.3     
  35 C35            9.7562    -5.5859    -1.5452 C.3     
  36 C36           10.9105    -6.1838    -0.7349 C.3     
  37 C37           12.2384    -5.6960    -1.3223 C.3     
  38 C38           12.2576    -4.1652    -1.3183 C.3     
  39 O39           11.1411    -3.6743    -2.0630 O.3     
  40 H40            1.1542    -1.7460     0.0216 H       
  41 H41            3.1919     2.0116    -0.0097 H       
  42 H42           -2.0588     1.4764    -0.0594 H       
  43 H43           -2.9817     3.5865    -1.1456 H       
  44 H44           -3.0511     6.0382    -0.9447 H       
  45 H45            0.3549     5.9258     1.6333 H       
  46 H46            0.4200     3.4731     1.4424 H       
  47 H47            4.4093    -0.0631     0.5033 H       
  48 H48            3.5608    -1.6278     0.5167 H       
  49 H49            5.1205    -1.4958    -3.6682 H       
  50 H50            5.6420    -1.7427     0.5643 H       
  51 H51            7.7694    -2.8975     0.2708 H       
  52 H52            9.7794    -3.6963    -0.5090 H       
  53 H53            8.8066    -5.8833    -1.1004 H       
  54 H54            9.8072    -5.9466    -2.5725 H       
  55 H55           10.8314    -5.8629     0.3038 H       
  56 H56           10.8668    -7.2717    -0.7862 H       
  57 H57           13.0640    -6.0722    -0.7181 H       
  58 H58           12.3395    -6.0589    -2.3451 H       
  59 H59           12.1972    -3.8036    -0.2919 H       
  60 H60           13.1824    -3.8121    -1.7745 H       
@<TRIPOS>BOND
   1    1    2 ar
   2    1    6 ar
   3    1    7 1
   4    2    3 ar
   5    3    4 ar
   6    3   40 1
   7    4    5 ar
   8    4   19 1
   9    5    6 ar
  10    5   41 1
  11    7    8 1
  12    7   42 1
  13    8    9 ar
  14    8   13 ar
  15    9   10 ar
  16    9   43 1
  17   10   11 ar
  18   10   44 1
  19   11   12 ar
  20   11   14 1
  21   12   13 ar
  22   12   45 1
  23   13   46 1
  24   14   15 1
  25   15   16 1
  26   15   17 1
  27   15   18 1
  28   19   20 1
  29   19   47 1
  30   19   48 1
  31   20   26 1
  32   21   22 1
  33   21   29 1
  34   21   34 1
  35   22   23 2
  36   23   24 1
  37   23   30 1
  38   24   25 ar
  39   24   29 ar
  40   25   26 ar
  41   25   49 1
  42   26   27 ar
  43   27   28 ar
  44   27   50 1
  45   28   29 ar
  46   28   51 1
  47   30   31 1
  48   30   32 1
  49   30   33 1
  50   34   35 1
  51   34   39 1
  52   34   52 1
  53   35   36 1
  54   35   53 1
  55   35   54 1
  56   36   37 1
  57   36   55 1
  58   36   56 1
  59   37   38 1
  60   37   57 1
  61   37   58 1
  62   38   39 1
  63   38   59 1
  64   38   60 1

#	End of record

