#	Name: ASD11000284
#	Creating user name:	WinNT
#	Creation time:	15. 06. 2019 21:29

#	Modifying user name:	WinNT
#	Modification time:	15. 06. 2019 21:29

#	Program:	/corina/corina34_cracker 3.40 0067  02.08.2006

@<TRIPOS>MOLECULE
ASD11000284
  35   35    0    0    0
SMALL
NO_CHARGES


@<TRIPOS>ATOM
   1 C1            -0.0162     1.3201     0.0176 C.ar    
   2 N2             0.0011    -0.0048     0.0229 N.ar    
   3 C3             1.1516    -0.6663     0.0166 C.ar    
   4 C4             2.3464     0.0526     0.0042 C.ar    
   5 C5             2.2854     1.4334    -0.0010 C.ar    
   6 N6             1.1026     2.0294     0.0059 N.ar    
   7 N7            -1.2340     1.9796     0.0186 N.pl3   
   8 O8             1.1651    -2.0214     0.0225 O.3     
   9 C9            -0.1015    -2.6827     0.0356 C.3     
  10 C10           -1.2745     3.3749     0.1321 C.ar    
  11 C11           -2.2531     4.0981    -0.5369 C.ar    
  12 C12           -2.2924     5.4739    -0.4246 C.ar    
  13 C13           -1.3547     6.1334     0.3564 C.ar    
  14 C14           -0.3768     5.4117     1.0250 C.ar    
  15 C15           -0.3397     4.0354     0.9182 C.ar    
  16 O16           -1.3937     7.4883     0.4662 O.3     
  17 C17           -0.3975     8.1017     1.2868 C.3     
  18 F18           -0.5060     7.6153     2.5940 F       
  19 F19            0.8721     7.8020     0.7815 F       
  20 C20            3.6743    -0.6599    -0.0028 C.3     
  21 Cl21           4.1908    -0.9516    -1.7054 Cl      
  22 H22            3.1923     2.0199    -0.0101 H       
  23 H23           -2.0588     1.4752    -0.0593 H       
  24 H24           -0.6543    -2.3914     0.9288 H       
  25 H25           -0.6686    -2.3993    -0.8511 H       
  26 H26            0.0520    -3.7618     0.0392 H       
  27 H27           -2.9830     3.5848    -1.1453 H       
  28 H28           -3.0532     6.0366    -0.9451 H       
  29 H29            0.3529     5.9259     1.6328 H       
  30 H30            0.4190     3.4732     1.4424 H       
  31 H31           -0.5424     9.1820     1.2879 H       
  32 H32            4.4192    -0.0453     0.5026 H       
  33 H33            3.5776    -1.6137     0.5160 H       
  34 Cl34           9.4192    14.1820     7.5940 Cl      
  35 H35            9.4192    15.5520     7.5940 H       
@<TRIPOS>BOND
   1    1    2 ar
   2    1    6 ar
   3    1    7 1
   4    2    3 ar
   5    3    4 ar
   6    3    8 1
   7    4    5 ar
   8    4   20 1
   9    5    6 ar
  10    5   22 1
  11    7   10 1
  12    7   23 1
  13    8    9 1
  14    9   24 1
  15    9   25 1
  16    9   26 1
  17   10   11 ar
  18   10   15 ar
  19   11   12 ar
  20   11   27 1
  21   12   13 ar
  22   12   28 1
  23   13   14 ar
  24   13   16 1
  25   14   15 ar
  26   14   29 1
  27   15   30 1
  28   16   17 1
  29   17   18 1
  30   17   19 1
  31   17   31 1
  32   20   21 1
  33   20   32 1
  34   20   33 1
  35   34   35 1

#	End of record

