#	Name: ASD14170017
#	Creating user name:	WinNT
#	Creation time:	15. 06. 2019 21:31

#	Modifying user name:	WinNT
#	Modification time:	15. 06. 2019 21:31

#	Program:	/corina/corina34_cracker 3.40 0067  02.08.2006

@<TRIPOS>MOLECULE
ASD14170017
  52   54    0    0    0
SMALL
NO_CHARGES


@<TRIPOS>ATOM
   1 C1             0.3614     1.8776     0.0244 C.2     
   2 C2             0.3905     0.4922    -0.2268 C.2     
   3 C3             1.5572    -0.0013     0.3287 C.2     
   4 N4             2.2057     1.0424     0.8917 N.pl3   
   5 N5             1.4404     2.1963     0.6876 N.2     
   6 N6             1.9836    -1.3258     0.3114 N.am    
   7 C7            -0.7250     2.8300    -0.4043 C.3     
   8 F8            -1.7001     2.9059     0.5961 F       
   9 F9            -0.1756     4.0989    -0.6172 F       
  10 F10           -1.3080     2.3694    -1.5897 F       
  11 C11            3.1678    -1.6452    -0.2474 C.2     
  12 N12            3.6053    -2.9196    -0.2170 N.am    
  13 O13            3.8414    -0.7837    -0.7789 O.2     
  14 C14            4.8798    -3.2343    -0.7050 C.ar    
  15 C15            6.6569    -2.8522    -2.2691 C.ar    
  16 C16            7.3985    -3.8560    -1.6693 C.ar    
  17 C17            6.8794    -4.5530    -0.5913 C.ar    
  18 C18            5.6227    -4.2443    -0.1085 C.ar    
  19 C19            5.3998    -2.5404    -1.7894 C.ar    
  20 F20            8.6278    -4.1598    -2.1402 F       
  21 C21            3.4890     0.9770     1.5953 C.3     
  22 C22           -0.6389    -0.2920    -0.9513 C.ar    
  23 C23           -1.8327    -0.7889    -2.9740 C.ar    
  24 C24           -2.5612    -1.7553    -2.3036 C.ar    
  25 C25           -2.3365    -1.9896    -0.9591 C.ar    
  26 C26           -1.3794    -1.2631    -0.2799 C.ar    
  27 C27           -0.8734    -0.0565    -2.3051 C.ar    
  28 C28           -2.0834    -0.5395    -4.4389 C.3     
  29 N29           -3.1192     0.4856    -4.5896 N.am    
  30 S30           -3.3416     1.2292    -6.0524 S.o2    
  31 C31           -3.9053    -0.0976    -7.1536 C.3     
  32 O32           -4.3890     2.1602    -5.8166 O.2     
  33 O33           -2.0419     1.6672    -6.4241 O.2     
  34 H34            1.4287    -2.0191     0.7015 H       
  35 H35            3.0375    -3.6189     0.1428 H       
  36 H36            7.0635    -2.3097    -3.1098 H       
  37 H37            7.4592    -5.3358    -0.1250 H       
  38 H38            5.2183    -4.7879     0.7325 H       
  39 H39            4.8215    -1.7577    -2.2577 H       
  40 H40            4.3025     1.0886     0.8784 H       
  41 H41            3.5410     1.7790     2.3316 H       
  42 H42            3.5784     0.0146     2.0993 H       
  43 H43           -3.3113    -2.3259    -2.8310 H       
  44 H44           -2.9083    -2.7450    -0.4407 H       
  45 H45           -1.2045    -1.4471     0.7699 H       
  46 H46           -0.3056     0.6979    -2.8294 H       
  47 H47           -1.1628    -0.1980    -4.9121 H       
  48 H48           -2.4148    -1.4633    -4.9133 H       
  49 H49           -3.6747     0.7287    -3.8325 H       
  50 H50           -4.8324    -0.5211    -6.7672 H       
  51 H51           -4.0785     0.3069    -8.1508 H       
  52 H52           -3.1438    -0.8758    -7.2043 H       
@<TRIPOS>BOND
   1    1    2 1
   2    1    5 2
   3    1    7 1
   4    2    3 2
   5    2   22 1
   6    3    4 1
   7    3    6 1
   8    4    5 1
   9    4   21 1
  10    6   11 am
  11    6   34 1
  12    7    8 1
  13    7    9 1
  14    7   10 1
  15   11   12 am
  16   11   13 2
  17   12   14 1
  18   12   35 1
  19   14   19 ar
  20   14   18 ar
  21   15   16 ar
  22   15   19 ar
  23   15   36 1
  24   16   17 ar
  25   16   20 1
  26   17   18 ar
  27   17   37 1
  28   18   38 1
  29   19   39 1
  30   21   40 1
  31   21   41 1
  32   21   42 1
  33   22   27 ar
  34   22   26 ar
  35   23   24 ar
  36   23   27 ar
  37   23   28 1
  38   24   25 ar
  39   24   43 1
  40   25   26 ar
  41   25   44 1
  42   26   45 1
  43   27   46 1
  44   28   29 1
  45   28   47 1
  46   28   48 1
  47   29   30 am
  48   29   49 1
  49   30   31 1
  50   30   32 2
  51   30   33 2
  52   31   50 1
  53   31   51 1
  54   31   52 1

#	End of record

