#	Name: ASD11000183
#	Creating user name:	WinNT
#	Creation time:	15. 06. 2019 21:28

#	Modifying user name:	WinNT
#	Modification time:	15. 06. 2019 21:28

#	Program:	/corina/corina34_cracker 3.40 0067  02.08.2006

@<TRIPOS>MOLECULE
ASD11000183
  43   46    0    0    0
SMALL
NO_CHARGES


@<TRIPOS>ATOM
   1 N1            -0.0172     1.3215    -0.0112 N.ar    
   2 C2             0.0016    -0.0034    -0.0060 C.ar    
   3 N3             1.1403    -0.6810    -0.0155 N.ar    
   4 C4             2.3025    -0.0498    -0.0305 C.ar    
   5 C5             2.3192     1.3363    -0.0364 C.ar    
   6 C6             1.1098     2.0136    -0.0261 C.ar    
   7 C7             3.6238     2.0904    -0.0530 C.3     
   8 O8             4.0222     2.3233    -1.4054 O.3     
   9 C9             5.1873     2.9971    -1.5985 C.ar    
  10 C10            5.6278     3.2608    -2.8857 C.ar    
  11 N11           -1.1973    -0.6965     0.0102 N.pl3   
  12 C12           -1.2008    -2.0923    -0.1029 C.ar    
  13 C13           -2.1492    -2.8423     0.5800 C.ar    
  14 C14           -0.2595    -2.7268    -0.9027 C.ar    
  15 C15           -0.2639    -4.1032    -1.0141 C.ar    
  16 C16           -1.2086    -4.8520    -0.3278 C.ar    
  17 C17           -2.1523    -4.2186     0.4675 C.ar    
  18 O18           -1.2126    -6.2073    -0.4384 O.3     
  19 C19           -2.2134    -6.9153     0.2959 C.3     
  20 F20           -3.4815    -6.5001    -0.1247 F       
  21 F21           -2.0737    -8.2888     0.0698 F       
  22 C22            5.9292     3.4238    -0.5055 C.ar    
  23 C23            7.1131     4.1096    -0.6962 C.ar    
  24 C24            7.5603     4.3711    -1.9813 C.ar    
  25 C25            6.8149     3.9479    -3.0818 C.ar    
  26 N26            8.6855     5.0240    -2.4896 N.am    
  27 C27            8.6051     4.9805    -3.8343 C.2     
  28 O28            7.4840     4.3365    -4.1949 O.3     
  29 O29            9.4201     5.4551    -4.6020 O.2     
  30 F30           -2.0650    -6.6500     1.6615 F       
  31 H31            3.2273    -0.6075    -0.0378 H       
  32 H32            1.0881     3.0934    -0.0307 H       
  33 H33            3.4983     3.0449     0.4583 H       
  34 H34            4.3891     1.5038     0.4553 H       
  35 H35            5.0470     2.9311    -3.7345 H       
  36 H36           -2.0347    -0.2151     0.0999 H       
  37 H37           -2.8840    -2.3493     1.1993 H       
  38 H38            0.4756    -2.1439    -1.4377 H       
  39 H39            0.4681    -4.5968    -1.6361 H       
  40 H40           -2.8875    -4.8023     1.0016 H       
  41 H41            5.5799     3.2196     0.4958 H       
  42 H42            7.6890     4.4417     0.1550 H       
  43 H43            9.3945     5.4341    -1.9701 H       
@<TRIPOS>BOND
   1    1    2 ar
   2    1    6 ar
   3    2    3 ar
   4    2   11 1
   5    3    4 ar
   6    4    5 ar
   7    4   31 1
   8    5    6 ar
   9    5    7 1
  10    6   32 1
  11    7    8 1
  12    7   33 1
  13    7   34 1
  14    8    9 1
  15    9   22 ar
  16    9   10 ar
  17   10   25 ar
  18   10   35 1
  19   11   12 1
  20   11   36 1
  21   12   13 ar
  22   12   14 ar
  23   13   17 ar
  24   13   37 1
  25   14   15 ar
  26   14   38 1
  27   15   16 ar
  28   15   39 1
  29   16   17 ar
  30   16   18 1
  31   17   40 1
  32   18   19 1
  33   19   20 1
  34   19   21 1
  35   19   30 1
  36   22   23 ar
  37   22   41 1
  38   23   24 ar
  39   23   42 1
  40   24   25 ar
  41   24   26 1
  42   25   28 1
  43   26   27 am
  44   26   43 1
  45   27   28 1
  46   27   29 2

#	End of record

