#	Name: ASD10220039
#	Creating user name:	WinNT
#	Creation time:	15. 06. 2019 21:26

#	Modifying user name:	WinNT
#	Modification time:	15. 06. 2019 21:26

#	Program:	/corina/corina34_cracker 3.40 0067  02.08.2006

@<TRIPOS>MOLECULE
ASD10220039
  30   33    0    0    0
SMALL
NO_CHARGES


@<TRIPOS>ATOM
   1 C1            -0.0066     1.4603    -0.1676 C.2     
   2 C2             0.0230     0.0531    -0.3116 C.2     
   3 C3            -1.1147    -0.6744    -0.3664 C.2     
   4 C4            -2.4365    -0.0554    -0.2808 C.2     
   5 C5            -2.5499     1.3186    -0.1383 C.2     
   6 C6            -1.3372     2.1491    -0.0678 C.2     
   7 O7            -3.6807    -0.5695    -0.3117 O.3     
   8 C8            -4.6055     0.3859    -0.1978 C.2     
   9 C9            -3.9876     1.6031    -0.0841 C.2     
  10 O10           -1.4102     3.3535     0.0568 O.2     
  11 O11            1.0258     2.0991    -0.1205 O.2     
  12 C12           -4.6316     2.9203     0.0625 C.2     
  13 O13           -3.9533     3.9100     0.2631 O.2     
  14 C14           -6.0992     3.0389    -0.0339 C.ar    
  15 C15           -6.7676     4.0516     0.6603 C.ar    
  16 C16           -8.1376     4.1606     0.5691 C.ar    
  17 C17           -8.8596     3.2667    -0.2113 C.ar    
  18 C18           -8.1983     2.2532    -0.9071 C.ar    
  19 C19           -6.8244     2.1423    -0.8243 C.ar    
  20 Br20           1.6914    -0.8292    -0.4306 Br      
  21 Br21          -0.9931    -2.5515    -0.5605 Br      
  22 O22          -10.1962     3.1640    -0.4605 O.3     
  23 C23          -10.3073     2.3384    -1.6346 C.3     
  24 O24           -9.1243     1.5189    -1.5908 O.3     
  25 H25           -5.6734     0.2248    -0.1960 H       
  26 H26           -6.2098     4.7484     1.2684 H       
  27 H27           -8.6522     4.9434     1.1064 H       
  28 H28           -6.3116     1.3588    -1.3624 H       
  29 H29          -11.2035     1.7200    -1.5844 H       
  30 H30          -10.3146     2.9524    -2.5351 H       
@<TRIPOS>BOND
   1    1    2 1
   2    1   11 2
   3    1    6 1
   4    2    3 2
   5    2   20 1
   6    3    4 1
   7    3   21 1
   8    4    5 2
   9    4    7 1
  10    5    6 1
  11    5    9 1
  12    6   10 2
  13    7    8 1
  14    8    9 2
  15    8   25 1
  16    9   12 1
  17   12   13 2
  18   12   14 1
  19   14   15 ar
  20   14   19 ar
  21   15   16 ar
  22   15   26 1
  23   16   17 ar
  24   16   27 1
  25   17   18 ar
  26   17   22 1
  27   18   19 ar
  28   18   24 1
  29   19   28 1
  30   22   23 1
  31   23   24 1
  32   23   29 1
  33   23   30 1

#	End of record

