#	Name: ASD11000086
#	Creating user name:	WinNT
#	Creation time:	15. 06. 2019 21:28

#	Modifying user name:	WinNT
#	Modification time:	15. 06. 2019 21:28

#	Program:	/corina/corina34_cracker 3.40 0067  02.08.2006

@<TRIPOS>MOLECULE
ASD11000086
  35   36    0    0    0
SMALL
NO_CHARGES


@<TRIPOS>ATOM
   1 C1            -0.0167     1.3794     0.0096 C.ar    
   2 C2             0.0021    -0.0041     0.0020 C.ar    
   3 C3            -1.1813    -0.7131     0.0091 C.ar    
   4 C4            -2.3995    -0.0315     0.0243 C.ar    
   5 C5            -2.4113     1.3644     0.0324 C.ar    
   6 C6            -1.2206     2.0611     0.0305 C.ar    
   7 C7            -3.6712    -0.7845     0.0315 C.2     
   8 O8            -3.6579    -2.0000     0.0240 O.2     
   9 N9            -4.8457    -0.1235     0.0462 N.am    
  10 C10           -6.0373    -0.8291     0.0529 C.2     
  11 C11           -7.2839    -0.2556     0.0678 C.2     
  12 C12           -8.3502    -1.2335     0.0717 C.2     
  13 C13           -7.9112    -2.4837     0.0601 C.2     
  14 S14           -6.1574    -2.5292     0.0364 S.3     
  15 C15           -7.5105     1.1909     0.0791 C.2     
  16 O16           -8.7690     1.6762     0.0935 O.3     
  17 O17           -6.5640     1.9549     0.0754 O.2     
  18 C18            1.2800     2.1472     0.0014 C.3     
  19 C19            1.3395     3.0344    -1.2437 C.3     
  20 C20            1.3633     3.0210     1.2546 C.3     
  21 H21            0.9453    -0.5301    -0.0098 H       
  22 H22           -1.1653    -1.7929     0.0024 H       
  23 H23           -3.3503     1.8977     0.0443 H       
  24 H24           -1.2282     3.1410     0.0371 H       
  25 H25           -4.8563     0.8464     0.0522 H       
  26 H26           -9.3978    -0.9711     0.0832 H       
  27 H27           -8.5471    -3.3567     0.0607 H       
  28 H28           -8.8685     2.6381     0.1005 H       
  29 H29            2.1162     1.4481    -0.0104 H       
  30 H30            0.5033     3.7335    -1.2320 H       
  31 H31            2.2774     3.5898    -1.2497 H       
  32 H32            1.2801     2.4119    -2.1366 H       
  33 H33            1.3210     2.3890     2.1416 H       
  34 H34            2.3012     3.5763     1.2486 H       
  35 H35            0.5272     3.7201     1.2663 H       
@<TRIPOS>BOND
   1    1    2 ar
   2    1   18 1
   3    1    6 ar
   4    2    3 ar
   5    2   21 1
   6    3    4 ar
   7    3   22 1
   8    4    5 ar
   9    4    7 1
  10    5    6 ar
  11    5   23 1
  12    6   24 1
  13    7    8 2
  14    7    9 am
  15    9   10 1
  16    9   25 1
  17   10   11 2
  18   10   14 1
  19   11   12 1
  20   11   15 1
  21   12   13 2
  22   12   26 1
  23   13   14 1
  24   13   27 1
  25   15   16 1
  26   15   17 2
  27   16   28 1
  28   18   19 1
  29   18   20 1
  30   18   29 1
  31   19   30 1
  32   19   31 1
  33   19   32 1
  34   20   33 1
  35   20   34 1
  36   20   35 1

#	End of record

