#	Name: ASD11000297
#	Creating user name:	WinNT
#	Creation time:	15. 06. 2019 21:29

#	Modifying user name:	WinNT
#	Modification time:	15. 06. 2019 21:29

#	Program:	/corina/corina34_cracker 3.40 0067  02.08.2006

@<TRIPOS>MOLECULE
ASD11000297
  28   29    0    0    0
SMALL
NO_CHARGES


@<TRIPOS>ATOM
   1 C1            -0.0141     1.3942     0.0563 C.ar    
   2 C2             0.0031    -0.0006     0.0289 C.ar    
   3 N3             1.1321     2.0747     0.0528 N.ar    
   4 N4             1.1544    -0.6456    -0.0005 N.ar    
   5 C5             2.2959     0.0334    -0.0040 C.ar    
   6 C6             2.2783     1.4318     0.0235 C.ar    
   7 C7            -1.3019     2.1166     0.0831 C.2     
   8 O8            -2.3465     1.4964     0.0812 O.2     
   9 O9            -1.3183     3.4636     0.1096 O.3     
  10 N10            3.5034    -0.6430    -0.0348 N.pl3   
  11 C11            3.5262    -2.0375     0.0630 C.ar    
  12 C12            4.4850    -2.7678    -0.6275 C.ar    
  13 C13            4.5050    -4.1460    -0.5290 C.ar    
  14 C14            3.5696    -4.7986     0.2572 C.ar    
  15 C15            2.6140    -4.0728     0.9456 C.ar    
  16 C16            2.5936    -2.6945     0.8552 C.ar    
  17 Cl17           3.5963    -6.5301     0.3785 Cl      
  18 Cl18           5.7027    -5.0601    -1.3913 Cl      
  19 C19           -2.6199     4.1066     0.1349 C.3     
  20 H20           -0.9253    -0.5524     0.0321 H       
  21 H21            3.2068     1.9835     0.0207 H       
  22 H22            4.3336    -0.1495    -0.1243 H       
  23 H23            5.2139    -2.2590    -1.2411 H       
  24 H24            1.8857    -4.5841     1.5576 H       
  25 H25            1.8500    -2.1285     1.3966 H       
  26 H26           -2.4903     5.1887     0.1548 H       
  27 H27           -3.1821     3.8243    -0.7553 H       
  28 H28           -3.1646     3.7895     1.0243 H       
@<TRIPOS>BOND
   1    1    2 ar
   2    1    3 ar
   3    1    7 1
   4    2    4 ar
   5    2   20 1
   6    3    6 ar
   7    4    5 ar
   8    5    6 ar
   9    5   10 1
  10    6   21 1
  11    7    8 2
  12    7    9 1
  13    9   19 1
  14   10   11 1
  15   10   22 1
  16   11   12 ar
  17   11   16 ar
  18   12   13 ar
  19   12   23 1
  20   13   14 ar
  21   13   18 1
  22   14   15 ar
  23   14   17 1
  24   15   16 ar
  25   15   24 1
  26   16   25 1
  27   19   26 1
  28   19   27 1
  29   19   28 1

#	End of record

