#	Name: ASD10420150
#	Creating user name:	WinNT
#	Creation time:	15. 06. 2019 21:27

#	Modifying user name:	WinNT
#	Modification time:	15. 06. 2019 21:27

#	Program:	/corina/corina34_cracker 3.40 0067  02.08.2006

@<TRIPOS>MOLECULE
ASD10420150
  39   40    0    0    0
SMALL
NO_CHARGES


@<TRIPOS>ATOM
   1 C1            -0.0176     1.4478     0.0100 C.3     
   2 C2             4.0445    -9.2303    -8.3669 C.ar    
   3 C3             3.3966    -8.8889    -7.1978 C.ar    
   4 C4             3.6922    -7.0137    -9.2226 C.ar    
   5 C5             0.8325    -7.7140    -5.5439 C.2     
   6 C6             2.8246    -6.4540    -4.8759 C.2     
   7 C7             1.3848    -2.5205    -2.3995 C.3     
   8 C8             0.6575    -2.1036    -1.1196 C.3     
   9 C9             0.5984    -0.5997    -1.0427 C.2     
  10 C10            2.0411    -4.5805    -3.5233 C.2     
  11 C11            4.1929    -8.2953    -9.3790 C.ar    
  12 C12            3.0416    -6.6620    -8.0548 C.ar    
  13 C13            0.1364    -7.4174    -4.4267 C.2     
  14 C14            0.6950    -6.6129    -3.4112 C.2     
  15 C15            2.1924    -7.2298    -5.7780 C.2     
  16 C16            2.1002    -6.0844    -3.6003 C.3     
  17 C17            2.8905    -7.6012    -7.0340 C.ar    
  18 N18            1.4423    -3.9825    -2.4743 N.am    
  19 O19            1.0877     0.0699    -1.9214 O.2     
  20 O20            2.5322    -3.9084    -4.4053 O.2     
  21 O21            0.0623    -6.3502    -2.4083 O.2     
  22 O22            0.0021    -0.0041     0.0020 O.3     
  23 F23            4.8286    -8.6350   -10.5217 F       
  24 F24            2.5534    -5.4116    -7.9020 F       
  25 I25           -1.8070    -8.1650    -4.1958 I       
  26 H26            1.0050     1.8251     0.0023 H       
  27 H27           -0.5448     1.8089    -0.8731 H       
  28 H28           -0.5278     1.7993     0.9068 H       
  29 H29            4.4407   -10.2272    -8.4920 H       
  30 H30            3.2816    -9.6192    -6.4104 H       
  31 H31            3.8102    -6.2882   -10.0139 H       
  32 H32            0.3680    -8.3371    -6.2938 H       
  33 H33            3.8293    -6.1031    -5.0598 H       
  34 H34            0.8476    -2.1333    -3.2653 H       
  35 H35            2.3973    -2.1171    -2.3900 H       
  36 H36           -0.3550    -2.5070    -1.1292 H       
  37 H37            1.1948    -2.4908    -0.2539 H       
  38 H38            2.7027    -6.4338    -2.7618 H       
  39 H39            1.0495    -4.5200    -1.7689 H       
@<TRIPOS>BOND
   1    1   22 1
   2    1   26 1
   3    1   27 1
   4    1   28 1
   5    2    3 ar
   6    2   11 ar
   7    2   29 1
   8    3   17 ar
   9    3   30 1
  10    4   11 ar
  11    4   12 ar
  12    4   31 1
  13    5   13 2
  14    5   15 1
  15    5   32 1
  16    6   15 2
  17    6   16 1
  18    6   33 1
  19    7    8 1
  20    7   18 1
  21    7   34 1
  22    7   35 1
  23    8    9 1
  24    8   36 1
  25    8   37 1
  26    9   19 2
  27    9   22 1
  28   10   16 1
  29   10   18 am
  30   10   20 2
  31   11   23 1
  32   12   17 ar
  33   12   24 1
  34   13   14 1
  35   13   25 1
  36   14   16 1
  37   14   21 2
  38   15   17 1
  39   16   38 1
  40   18   39 1

#	End of record

