#	Name: ASD15280027
#	Creating user name:	WinNT
#	Creation time:	15. 06. 2019 21:31

#	Modifying user name:	WinNT
#	Modification time:	15. 06. 2019 21:31

#	Program:	/corina/corina34_cracker 3.40 0067  02.08.2006

@<TRIPOS>MOLECULE
ASD15280027
  54   57    0    0    0
SMALL
NO_CHARGES


@<TRIPOS>ATOM
   1 C1             1.4095    -0.3571     1.0326 C.3     
   2 O2             1.1433    -1.7527     0.8792 O.3     
   3 C3            -0.1607    -2.1266     0.7951 C.ar    
   4 C4            -1.1616    -1.1668     0.8536 C.ar    
   5 C5            -2.4860    -1.5432     0.7690 C.ar    
   6 C6            -2.8186    -2.8887     0.6242 C.ar    
   7 C7            -1.8114    -3.8501     0.5653 C.ar    
   8 C8            -0.4886    -3.4669     0.6452 C.ar    
   9 C9            -4.2424    -3.2971     0.5333 C.2     
  10 C10           -5.2572    -2.4149     0.5788 C.2     
  11 S11           -6.7873    -3.2707     0.4420 S.3     
  12 C12           -5.9541    -4.8146     0.3277 C.2     
  13 C13           -4.6383    -4.6253     0.3880 C.2     
  14 C14           -6.6296    -6.1533     0.1770 C.3     
  15 H15           -5.9175    -6.8780    -0.2176 H       
  16 C16           -7.1363    -6.6254     1.5396 C.3     
  17 C17           -7.7275    -8.0313     1.4390 C.3     
  18 H18           -6.9874    -8.7077     1.0113 H       
  19 N19           -8.9196    -7.9964     0.5744 N.am    
  20 C20          -10.2186    -8.4848     1.0438 C.3     
  21 S21           -8.7266    -7.3764    -0.9616 S.o2    
  22 O22           -7.9533    -8.3189    -1.6916 O.2     
  23 O23          -10.0029    -6.9141    -1.3821 O.2     
  24 N24           -7.7683    -6.0282    -0.7490 N.am    
  25 C25           -8.1153    -8.5137     2.8130 C.2     
  26 O26           -9.1555    -8.1429     3.3147 O.2     
  27 N27           -7.3063    -9.3570     3.4844 N.am    
  28 C28           -7.6038    -9.7085     4.8068 C.ar    
  29 C29           -7.3646   -11.0013     5.2529 C.ar    
  30 C30           -7.6581   -11.3466     6.5580 C.ar    
  31 C31           -8.1904   -10.4047     7.4213 C.ar    
  32 F32           -8.4763   -10.7444     8.6973 F       
  33 C33           -8.4302    -9.1133     6.9785 C.ar    
  34 Cl34          -9.0974    -7.9338     8.0635 Cl      
  35 C35           -8.1330    -8.7630     5.6752 C.ar    
  36 H36            2.4862    -0.1964     1.0868 H       
  37 H37            1.0035     0.1862     0.1793 H       
  38 H38            0.9418     0.0034     1.9488 H       
  39 H39           -0.9032    -0.1241     0.9658 H       
  40 H40           -3.2644    -0.7959     0.8152 H       
  41 H41           -2.0661    -4.8936     0.4531 H       
  42 H42            0.2925    -4.2111     0.5953 H       
  43 H43           -5.1487    -1.3455     0.6838 H       
  44 H44           -3.9310    -5.4396     0.3326 H       
  45 H45           -6.3074    -6.6344     2.2474 H       
  46 H46           -7.9037    -5.9379     1.8952 H       
  47 H47          -10.7291    -7.6917     1.5902 H       
  48 H48          -10.8244    -8.7850     0.1888 H       
  49 H49          -10.0688    -9.3410     1.7015 H       
  50 H50           -7.9530    -5.1974    -1.2145 H       
  51 H51           -6.5180    -9.7205     3.0515 H       
  52 H52           -6.9495   -11.7369     4.5798 H       
  53 H53           -7.4723   -12.3524     6.9048 H       
  54 H54           -8.3155    -7.7556     5.3312 H       
@<TRIPOS>BOND
   1    1    2 1
   2    1   36 1
   3    1   37 1
   4    1   38 1
   5    2    3 1
   6    3    8 ar
   7    3    4 ar
   8    4    5 ar
   9    4   39 1
  10    5    6 ar
  11    5   40 1
  12    6    7 ar
  13    6    9 1
  14    7    8 ar
  15    7   41 1
  16    8   42 1
  17    9   13 1
  18    9   10 2
  19   10   11 1
  20   10   43 1
  21   11   12 1
  22   12   13 2
  23   12   14 1
  24   13   44 1
  25   14   15 1
  26   14   24 1
  27   14   16 1
  28   16   17 1
  29   16   45 1
  30   16   46 1
  31   17   18 1
  32   17   19 1
  33   17   25 1
  34   19   20 1
  35   19   21 am
  36   20   47 1
  37   20   48 1
  38   20   49 1
  39   21   22 2
  40   21   23 2
  41   21   24 am
  42   24   50 1
  43   25   26 2
  44   25   27 am
  45   27   28 1
  46   27   51 1
  47   28   35 ar
  48   28   29 ar
  49   29   30 ar
  50   29   52 1
  51   30   31 ar
  52   30   53 1
  53   31   32 1
  54   31   33 ar
  55   33   34 1
  56   33   35 ar
  57   35   54 1

#	End of record

