#	Name: ASD11940012
#	Creating user name:	WinNT
#	Creation time:	15. 06. 2019 21:29

#	Modifying user name:	WinNT
#	Modification time:	15. 06. 2019 21:29

#	Program:	/corina/corina34_cracker 3.40 0067  02.08.2006

@<TRIPOS>MOLECULE
ASD11940012
  31   33    0    0    0
SMALL
NO_CHARGES


@<TRIPOS>ATOM
   1 C1            -0.0153     1.3205     0.0485 C.ar    
   2 N2             0.0026    -0.0043     0.0398 N.ar    
   3 C3             1.1492    -0.6697     0.0114 C.ar    
   4 C4             2.3395     0.0348    -0.0093 C.ar    
   5 C5             2.2876     1.4292     0.0007 C.ar    
   6 N6             1.1022     2.0310     0.0295 N.ar    
   7 N7            -1.2326     1.9785     0.0725 N.pl3   
   8 Cl8            1.1564    -2.4057     0.0008 Cl      
   9 N9             3.4544     2.1760    -0.0187 N.pl3   
  10 C10            4.7549     1.5022    -0.0477 C.3     
  11 C11            3.3878     3.6394    -0.0102 C.3     
  12 C12            3.9398     4.3647     1.2187 C.3     
  13 C13            4.7078     4.4073    -0.1039 C.3     
  14 C14            5.1728     1.2781    -1.4782 C.2     
  15 S15            4.7864    -0.1455    -2.4362 S.3     
  16 C16            5.8873     2.1315    -2.2133 C.2     
  17 C17            6.1507     1.7099    -3.5052 C.2     
  18 C18            5.6482     0.5150    -3.8199 C.2     
  19 H19            3.2872    -0.4825    -0.0322 H       
  20 H20           -2.0586     1.4701     0.0827 H       
  21 H21           -1.2598     2.9481     0.0792 H       
  22 H22            5.4970     2.1228     0.4546 H       
  23 H23            4.6783     0.5423     0.4630 H       
  24 H24            2.5168     4.0732    -0.5016 H       
  25 H25            3.4323     5.2758     1.5356 H       
  26 H26            4.3526     3.7529     2.0209 H       
  27 H27            5.6258     3.8237    -0.1719 H       
  28 H28            4.7055     5.3465    -0.6571 H       
  29 H29            6.2339     3.0797    -1.8296 H       
  30 H30            6.7182     2.3043    -4.2059 H       
  31 H31            5.7521     0.0289    -4.7787 H       
@<TRIPOS>BOND
   1    1    2 ar
   2    1    6 ar
   3    1    7 1
   4    2    3 ar
   5    3    4 ar
   6    3    8 1
   7    4    5 ar
   8    4   19 1
   9    5    6 ar
  10    5    9 1
  11    7   20 1
  12    7   21 1
  13    9   10 1
  14    9   11 1
  15   10   14 1
  16   10   22 1
  17   10   23 1
  18   11   12 1
  19   11   13 1
  20   11   24 1
  21   12   13 1
  22   12   25 1
  23   12   26 1
  24   13   27 1
  25   13   28 1
  26   14   16 2
  27   14   15 1
  28   15   18 1
  29   16   17 1
  30   16   29 1
  31   17   18 2
  32   17   30 1
  33   18   31 1

#	End of record

