#	Name: ASD17400002
#	Creating user name:	WinNT
#	Creation time:	15. 06. 2019 21:31

#	Modifying user name:	WinNT
#	Modification time:	15. 06. 2019 21:31

#	Program:	/corina/corina34_cracker 3.40 0067  02.08.2006

@<TRIPOS>MOLECULE
ASD17400002
  24   23    0    0    0
SMALL
NO_CHARGES


@<TRIPOS>ATOM
   1 C1            -0.0187     1.5258     0.0104 C.3     
   2 C2             0.0021    -0.0041     0.0020 C.3     
   3 C3             0.7182    -0.4975    -1.2568 C.3     
   4 C4             0.7421    -0.5109     1.2415 C.3     
   5 C5             2.1149     0.1084     1.2952 C.2     
   6 O6             2.9834    -0.0968     0.2926 O.3     
   7 O7             2.4338     0.7896     2.2408 O.2     
   8 O8             0.0101    -0.1492     2.4144 O.3     
   9 C9             0.8719    -2.0337     1.1708 C.3     
  10 C10            1.6008    -2.5330     2.3917 C.2     
  11 O11            1.9777    -1.7510     3.2322 O.2     
  12 O12            1.8313    -3.8463     2.5455 O.3     
  13 H13            1.0039     1.9031     0.0027 H       
  14 H14           -0.5459     1.8868    -0.8726 H       
  15 H15           -0.5289     1.8773     0.9072 H       
  16 H16           -1.0205    -0.3814     0.0098 H       
  17 H17            1.7408    -0.1202    -1.2645 H       
  18 H18            0.7330    -1.5874    -1.2628 H       
  19 H19            0.1910    -0.1364    -2.1398 H       
  20 H20            3.8519     0.3210     0.3717 H       
  21 H21           -0.8849    -0.5137     2.4474 H       
  22 H22           -0.1210    -2.4817     1.1320 H       
  23 H23            1.4302    -2.3096     0.2763 H       
  24 H24            2.3024    -4.1187     3.3448 H       
@<TRIPOS>BOND
   1    1    2 1
   2    1   13 1
   3    1   14 1
   4    1   15 1
   5    2    4 1
   6    2   16 1
   7    2    3 1
   8    3   17 1
   9    3   18 1
  10    3   19 1
  11    4    5 1
  12    4    9 1
  13    4    8 1
  14    5    6 1
  15    5    7 2
  16    6   20 1
  17    8   21 1
  18    9   22 1
  19    9   23 1
  20    9   10 1
  21   10   11 2
  22   10   12 1
  23   12   24 1

#	End of record

