#	Name: ASD10410095
#	Creating user name:	WinNT
#	Creation time:	15. 06. 2019 21:26

#	Modifying user name:	WinNT
#	Modification time:	15. 06. 2019 21:26

#	Program:	/corina/corina34_cracker 3.40 0067  02.08.2006

@<TRIPOS>MOLECULE
ASD10410095
  49   52    0    0    0
SMALL
NO_CHARGES


@<TRIPOS>ATOM
   1 C1            -0.0183     1.3925    -0.0812 C.ar    
   2 C2            -0.0057     0.0095     0.0247 C.ar    
   3 C3             1.2007    -0.6691     0.1155 C.ar    
   4 C4             2.3904     0.0319     0.1009 C.ar    
   5 C5             2.3788     1.4166    -0.0051 C.ar    
   6 C6             1.1705     2.0951    -0.0963 C.ar    
   7 O7            -1.1769    -0.6815     0.0400 O.3     
   8 N8             3.5843     2.1280    -0.0195 N.pl3   
   9 C9             3.6714     3.3387    -0.7067 C.2     
  10 N10            4.7095     4.1402    -0.7084 N.2     
  11 N11            2.7114     3.8668    -1.4750 N.2     
  12 C12            3.1225     5.0138    -1.9718 C.2     
  13 N13            4.3790     5.2371    -1.5203 N.pl3   
  14 C14            5.1864     6.3403    -1.8052 C.ar    
  15 N15            2.4004     5.8424    -2.8095 N.pl3   
  16 C16            6.1937     6.7140    -0.9211 C.ar    
  17 C17           -1.0898    -2.1035     0.1513 C.3     
  18 C18           -2.4977    -2.7023     0.1520 C.3     
  19 N19           -3.1367    -2.4526    -1.1469 N.3     
  20 C20           -4.3935    -3.2133    -1.2725 C.3     
  21 C21           -5.5167    -2.1957    -1.5631 C.3     
  22 C22           -4.7466    -0.9828    -2.1485 C.3     
  23 C23           -3.4367    -1.0155    -1.3223 C.3     
  24 N24            4.9984     7.0310    -2.9218 N.ar    
  25 C25            5.7643     8.0745    -3.1884 C.ar    
  26 C26            6.7612     8.4466    -2.3051 C.ar    
  27 N27            6.9550     7.7573    -1.1936 N.ar    
  28 H28           -0.9579     1.9196    -0.1563 H       
  29 H29            1.2095    -1.7459     0.1979 H       
  30 H30            3.3296    -0.4965     0.1723 H       
  31 H31            1.1605     3.1718    -0.1792 H       
  32 H32            4.3590     1.7790     0.4484 H       
  33 H33            1.5030     5.5942    -3.0815 H       
  34 H34            2.7910     6.6721    -3.1255 H       
  35 H35            6.3523     6.1514    -0.0129 H       
  36 H36           -0.5267    -2.5002    -0.6935 H       
  37 H37           -0.5833    -2.3649     1.0804 H       
  38 H38           -2.4356    -3.7766     0.3258 H       
  39 H39           -3.0888    -2.2399     0.9426 H       
  40 H40           -4.3158    -3.9246    -2.0947 H       
  41 H41           -4.6024    -3.7405    -0.3417 H       
  42 H42           -6.2193    -2.5955    -2.2943 H       
  43 H43           -6.0322    -1.9177    -0.6438 H       
  44 H44           -4.5426    -1.1251    -3.2097 H       
  45 H45           -5.2925    -0.0548    -1.9784 H       
  46 H46           -3.5868    -0.5383    -0.3539 H       
  47 H47           -2.6315    -0.5236    -1.8680 H       
  48 H48            5.6116     8.6373    -4.0975 H       
  49 H49            7.3857     9.2996    -2.5259 H       
@<TRIPOS>BOND
   1    1    2 ar
   2    1    6 ar
   3    1   28 1
   4    2    3 ar
   5    2    7 1
   6    3    4 ar
   7    3   29 1
   8    4    5 ar
   9    4   30 1
  10    5    6 ar
  11    5    8 1
  12    6   31 1
  13    7   17 1
  14    8    9 1
  15    8   32 1
  16    9   10 2
  17    9   11 1
  18   10   13 1
  19   11   12 2
  20   12   13 1
  21   12   15 1
  22   13   14 1
  23   14   16 ar
  24   14   24 ar
  25   15   33 1
  26   15   34 1
  27   16   27 ar
  28   16   35 1
  29   17   18 1
  30   17   36 1
  31   17   37 1
  32   18   19 1
  33   18   38 1
  34   18   39 1
  35   19   20 1
  36   19   23 1
  37   20   21 1
  38   20   40 1
  39   20   41 1
  40   21   22 1
  41   21   42 1
  42   21   43 1
  43   22   23 1
  44   22   44 1
  45   22   45 1
  46   23   46 1
  47   23   47 1
  48   24   25 ar
  49   25   26 ar
  50   25   48 1
  51   26   27 ar
  52   26   49 1

#	End of record

