#	Name: ASD13520001
#	Creating user name:	WinNT
#	Creation time:	15. 06. 2019 21:30

#	Modifying user name:	WinNT
#	Modification time:	15. 06. 2019 21:30

#	Program:	/corina/corina34_cracker 3.40 0067  02.08.2006

@<TRIPOS>MOLECULE
ASD13520001
  33   35    0    0    0
SMALL
NO_CHARGES


@<TRIPOS>ATOM
   1 C1            -0.0173     1.3921     0.0196 C.ar    
   2 C2             0.2471     0.4200     0.9876 C.ar    
   3 C3             1.4503    -0.2573     0.9700 C.ar    
   4 C4             2.3922     0.0254    -0.0028 C.ar    
   5 C5             2.1364     0.9875    -0.9641 C.ar    
   6 C6             0.9385     1.6712    -0.9592 C.ar    
   7 C7            -1.3046     2.1169     0.0279 C.2     
   8 N8            -1.4748     3.4736     0.1279 N.pl3   
   9 C9            -2.8311     3.6886     0.0931 C.2     
  10 N10           -3.4040     2.4995    -0.0220 N.2     
  11 N11           -2.5039     1.5820    -0.0651 N.2     
  12 C12           -0.6164     4.5291     0.2438 C.2     
  13 C13           -1.1324     5.7930     0.3237 C.2     
  14 C14           -2.5167     5.9688     0.2848 C.2     
  15 N15           -3.3192     4.9323     0.1764 N.2     
  16 C16           -0.2168     6.9829     0.4529 C.3     
  17 C17            0.0484     7.5751    -0.9327 C.3     
  18 C18           -3.0966     7.3570     0.3726 C.3     
  19 Cl19          -0.9337     0.0650     2.2097 Cl      
  20 O20            0.7199     4.3283     0.2793 O.3     
  21 H21            1.6565    -1.0091     1.7175 H       
  22 H22            3.3318    -0.5070    -0.0119 H       
  23 H23            2.8768     1.2035    -1.7202 H       
  24 H24            0.7405     2.4212    -1.7106 H       
  25 H25           -0.6864     7.7357     1.0860 H       
  26 H26            0.7262     6.6688     0.9003 H       
  27 H27            0.5181     6.8223    -1.5658 H       
  28 H28           -0.8946     7.8892    -1.3801 H       
  29 H29            0.7107     8.4358    -0.8393 H       
  30 H30           -3.1973     7.7728    -0.6299 H       
  31 H31           -4.0767     7.3120     0.8475 H       
  32 H32           -2.4351     7.9903     0.9639 H       
  33 H33            0.9774     3.3963     0.2903 H       
@<TRIPOS>BOND
   1    1    2 ar
   2    1    6 ar
   3    1    7 1
   4    2    3 ar
   5    2   19 1
   6    3    4 ar
   7    3   21 1
   8    4    5 ar
   9    4   22 1
  10    5    6 ar
  11    5   23 1
  12    6   24 1
  13    7    8 1
  14    7   11 2
  15    8   12 1
  16    8    9 1
  17    9   10 2
  18    9   15 1
  19   10   11 1
  20   12   13 2
  21   12   20 1
  22   13   14 1
  23   13   16 1
  24   14   15 2
  25   14   18 1
  26   16   17 1
  27   16   25 1
  28   16   26 1
  29   17   27 1
  30   17   28 1
  31   17   29 1
  32   18   30 1
  33   18   31 1
  34   18   32 1
  35   20   33 1

#	End of record

