#	Name: ASD13010010
#	Creating user name:	WinNT
#	Creation time:	15. 06. 2019 21:30

#	Modifying user name:	WinNT
#	Modification time:	15. 06. 2019 21:30

#	Program:	/corina/corina34_cracker 3.40 0067  02.08.2006

@<TRIPOS>MOLECULE
ASD13010010
  41   44    0    0    0
SMALL
NO_CHARGES


@<TRIPOS>ATOM
   1 C1            -0.0166     1.3726     0.0096 C.ar    
   2 C2             0.0021    -0.0041     0.0020 C.ar    
   3 C3             1.2064    -0.6960    -0.0127 C.ar    
   4 C4             2.3946    -0.0239    -0.0205 C.ar    
   5 C5             1.1822     2.0792     0.0019 C.ar    
   6 N6             1.4986     3.4161     0.0061 N.pl3   
   7 C7             2.4014     1.3746    -0.0135 C.ar    
   8 C8             3.4577     2.3829    -0.0187 C.2     
   9 N9             2.8903     3.5553    -0.0064 N.2     
  10 C10            0.5795     4.4660     0.0205 C.ar    
  11 S11            5.1914     2.0694    -0.0367 S.o2    
  12 C12            5.6887     1.9845    -1.7249 C.ar    
  13 C13            5.6654     0.7735    -2.3931 C.ar    
  14 C14            6.0972     3.1299    -2.3843 C.ar    
  15 C15            6.4876     3.0626    -3.7100 C.ar    
  16 C16            6.4690     1.8513    -4.3756 C.ar    
  17 C17            6.0560     0.7075    -3.7187 C.ar    
  18 Cl18           5.1467    -0.6633    -1.5682 Cl      
  19 C19           -1.2459     6.5509     0.0495 C.ar    
  20 C20           -1.5387     5.3728    -0.6440 C.ar    
  21 C21           -0.6299     4.3390    -0.6557 C.ar    
  22 C22            0.8723     5.6352     0.7158 C.ar    
  23 C23           -0.0321     6.6728     0.7325 C.ar    
  24 C24           -2.2168     7.6609     0.0639 C.2     
  25 O25           -3.2727     7.5522    -0.5274 O.2     
  26 O26           -1.9329     8.7957     0.7329 O.3     
  27 Cl27           6.1194     4.6515    -1.5489 Cl      
  28 O28            5.8139     3.2252     0.5073 O.2     
  29 O29            5.3690     0.7657     0.5000 O.2     
  30 H30           -0.9579     1.9019     0.0169 H       
  31 H31           -0.9289    -0.5514     0.0080 H       
  32 H32            1.2028    -1.7760    -0.0178 H       
  33 H33            3.3261    -0.5702    -0.0316 H       
  34 H34            6.8065     3.9568    -4.2250 H       
  35 H35            6.7732     1.7994    -5.4106 H       
  36 H36            6.0379    -0.2380    -4.2405 H       
  37 H37           -2.4754     5.2753    -1.1727 H       
  38 H38           -0.8558     3.4284    -1.1906 H       
  39 H39            1.8102     5.7286     1.2432 H       
  40 H40            0.1973     7.5814     1.2693 H       
  41 H41           -2.6002     9.4953     0.7136 H       
@<TRIPOS>BOND
   1    1    2 ar
   2    1    5 ar
   3    1   30 1
   4    2    3 ar
   5    2   31 1
   6    3    4 ar
   7    3   32 1
   8    4    7 ar
   9    4   33 1
  10    5    7 ar
  11    5    6 1
  12    6    9 1
  13    6   10 1
  14    7    8 1
  15    8    9 2
  16    8   11 1
  17   10   22 ar
  18   10   21 ar
  19   11   12 1
  20   11   28 2
  21   11   29 2
  22   12   14 ar
  23   12   13 ar
  24   13   17 ar
  25   13   18 1
  26   14   15 ar
  27   14   27 1
  28   15   16 ar
  29   15   34 1
  30   16   17 ar
  31   16   35 1
  32   17   36 1
  33   19   20 ar
  34   19   23 ar
  35   19   24 1
  36   20   21 ar
  37   20   37 1
  38   21   38 1
  39   22   23 ar
  40   22   39 1
  41   23   40 1
  42   24   25 2
  43   24   26 1
  44   26   41 1

#	End of record

