#	Name: ASD11000261
#	Creating user name:	WinNT
#	Creation time:	15. 06. 2019 21:29

#	Modifying user name:	WinNT
#	Modification time:	15. 06. 2019 21:29

#	Program:	/corina/corina34_cracker 3.40 0067  02.08.2006

@<TRIPOS>MOLECULE
ASD11000261
  52   55    0    0    0
SMALL
NO_CHARGES


@<TRIPOS>ATOM
   1 N1            -0.0169     1.3942     0.0097 N.pl3   
   2 N2             0.0021    -0.0041     0.0020 N.2     
   3 C3             1.2305    -0.4354    -0.0120 C.2     
   4 C4             2.1104     0.7302    -0.0142 C.ar    
   5 C5             3.4960     0.8972    -0.0272 C.ar    
   6 C6             4.0285     2.1788    -0.0261 C.ar    
   7 C7             3.1806     3.2947    -0.0115 C.ar    
   8 C8             1.8277     3.1397     0.0013 C.ar    
   9 C9             1.2684     1.8612    -0.0001 C.ar    
  10 C10            1.6660    -1.8781    -0.0235 C.3     
  11 F11            0.5418    -2.7037    -0.1323 F       
  12 F12            2.5150    -2.1003    -1.1130 F       
  13 F13            2.3454    -2.1696     1.1642 F       
  14 O14            6.3077     3.6190    -0.0416 O.3     
  15 B15            5.5856     2.3793    -0.0406 Du      
  16 O16            6.5981     1.3629    -0.0554 O.3     
  17 C17            7.6267     1.8592     0.8269 C.3     
  18 C18            7.4298     3.3888     0.8362 C.3     
  19 C19            8.6791     4.0904     0.2996 C.3     
  20 C20            7.1091     3.8764     2.2505 C.3     
  21 C21            7.4421     1.2893     2.2347 C.3     
  22 C22            9.0121     1.5033     0.2838 C.3     
  23 C23           -1.2224     2.2266     0.0201 C.3     
  24 C24           -1.8619     2.2164    -1.3708 C.3     
  25 C25           -3.1534     3.0394    -1.3364 C.3     
  26 C26           -4.0840     2.4641    -0.2644 C.3     
  27 C27           -3.3587     2.4647     1.0837 C.3     
  28 O28           -2.1515     1.7079     0.9740 O.3     
  29 H29            4.1483     0.0364    -0.0377 H       
  30 H30            3.6046     4.2880    -0.0100 H       
  31 H31            1.1860     4.0083     0.0124 H       
  32 H32            8.5028     5.1652     0.2583 H       
  33 H33            9.5224     3.8856     0.9592 H       
  34 H34            8.9023     3.7201    -0.7010 H       
  35 H35            6.2271     3.3555     2.6232 H       
  36 H36            7.9557     3.6721     2.9060 H       
  37 H37            6.9160     4.9490     2.2300 H       
  38 H38            7.5268     0.2031     2.2010 H       
  39 H39            8.2104     1.6934     2.8939 H       
  40 H40            6.4575     1.5654     2.6122 H       
  41 H41            9.1327     1.9300    -0.7119 H       
  42 H42            9.7771     1.9069     0.9471 H       
  43 H43            9.1135     0.4194     0.2293 H       
  44 H44           -0.9561     3.2485     0.2903 H       
  45 H45           -1.1712     2.6525    -2.0925 H       
  46 H46           -2.0913     1.1905    -1.6587 H       
  47 H47           -2.9186     4.0765    -1.0970 H       
  48 H48           -3.6430     2.9902    -2.3090 H       
  49 H49           -4.9825     3.0772    -0.1949 H       
  50 H50           -4.3583     1.4431    -0.5300 H       
  51 H51           -3.1206     3.4897     1.3679 H       
  52 H52           -4.0008     2.0168     1.8422 H       
@<TRIPOS>BOND
   1    1    2 1
   2    1    9 1
   3    1   23 1
   4    2    3 2
   5    3    4 1
   6    3   10 1
   7    4    5 ar
   8    4    9 ar
   9    5    6 ar
  10    5   29 1
  11    6    7 ar
  12    6   15 1
  13    7    8 ar
  14    7   30 1
  15    8    9 ar
  16    8   31 1
  17   10   11 1
  18   10   12 1
  19   10   13 1
  20   14   15 1
  21   14   18 1
  22   15   16 1
  23   16   17 1
  24   17   18 1
  25   17   21 1
  26   17   22 1
  27   18   19 1
  28   18   20 1
  29   19   32 1
  30   19   33 1
  31   19   34 1
  32   20   35 1
  33   20   36 1
  34   20   37 1
  35   21   38 1
  36   21   39 1
  37   21   40 1
  38   22   41 1
  39   22   42 1
  40   22   43 1
  41   23   24 1
  42   23   28 1
  43   23   44 1
  44   24   25 1
  45   24   45 1
  46   24   46 1
  47   25   26 1
  48   25   47 1
  49   25   48 1
  50   26   27 1
  51   26   49 1
  52   26   50 1
  53   27   28 1
  54   27   51 1
  55   27   52 1

#	End of record

