#	Name: ASD10160448
#	Creating user name:	WinNT
#	Creation time:	15. 06. 2019 21:26

#	Modifying user name:	WinNT
#	Modification time:	15. 06. 2019 21:26

#	Program:	/corina/corina34_cracker 3.40 0067  02.08.2006

@<TRIPOS>MOLECULE
ASD10160448
  40   41    0    0    0
SMALL
NO_CHARGES


@<TRIPOS>ATOM
   1 C1             4.7281    -7.0865    -0.9408 C.2     
   2 C2             3.4990    -6.3110    -0.7010 C.ar    
   3 C3             2.8427    -5.6823    -1.7703 C.ar    
   4 C4             1.6884    -4.9556    -1.5363 C.ar    
   5 C5             1.1837    -4.8498    -0.2480 C.ar    
   6 C6             1.8335    -5.4727     0.8133 C.ar    
   7 C7             2.9783    -6.2031     0.5922 C.ar    
   8 O8             5.1761    -7.1829    -2.0674 O.2     
   9 N9             5.3593    -7.6846     0.0889 N.am    
  10 O10            3.3382    -5.7862    -3.0289 O.3     
  11 C11            2.6170    -5.1199    -4.0671 C.3     
  12 O12            0.0522    -4.1356    -0.0222 O.3     
  13 C13           -2.3295    -4.0794    -0.0052 C.ar    
  14 C14           -1.1403    -4.7815    -0.1193 C.ar    
  15 C15           -1.1816    -6.1562    -0.3352 C.ar    
  16 C16           -2.4184    -6.7720    -0.4280 C.ar    
  17 C17           -3.5688    -6.0025    -0.3034 C.ar    
  18 N18           -3.4909    -4.6987    -0.0988 N.ar    
  19 O19           -4.7866    -6.5963    -0.3932 O.3     
  20 C20           -5.9316    -5.7522    -0.2569 C.3     
  21 C21           -6.3445    -5.2266    -1.6332 C.3     
  22 C22           -7.0855    -6.5522     0.3507 C.3     
  23 Cl23          -2.5304    -8.4834    -0.6970 Cl      
  24 H24            1.1804    -4.4703    -2.3565 H       
  25 H25            1.4352    -5.3863     1.8135 H       
  26 H26            3.4770    -6.6891     1.4178 H       
  27 H27            5.0041    -7.6043     0.9880 H       
  28 H28            6.1687    -8.1952    -0.0691 H       
  29 H29            3.1192    -5.2830    -5.0207 H       
  30 H30            1.6032    -5.5170    -4.1178 H       
  31 H31            2.5785    -4.0515    -3.8548 H       
  32 H32           -2.3055    -3.0135     0.1667 H       
  33 H33           -0.2706    -6.7287    -0.4284 H       
  34 H34           -5.6887    -4.9128     0.3947 H       
  35 H35           -7.2178    -4.5828    -1.5293 H       
  36 H36           -5.5224    -4.6567    -2.0661 H       
  37 H37           -6.5874    -6.0660    -2.2848 H       
  38 H38           -6.7914    -6.9267     1.3312 H       
  39 H39           -7.9589    -5.9084     0.4547 H       
  40 H40           -7.3284    -7.3916    -0.3009 H       
@<TRIPOS>BOND
   1    1    2 1
   2    1    8 2
   3    1    9 am
   4    2    3 ar
   5    2    7 ar
   6    3    4 ar
   7    3   10 1
   8    4    5 ar
   9    4   24 1
  10    5    6 ar
  11    5   12 1
  12    6    7 ar
  13    6   25 1
  14    7   26 1
  15    9   27 1
  16    9   28 1
  17   10   11 1
  18   11   29 1
  19   11   30 1
  20   11   31 1
  21   12   14 1
  22   13   14 ar
  23   13   18 ar
  24   13   32 1
  25   14   15 ar
  26   15   16 ar
  27   15   33 1
  28   16   17 ar
  29   16   23 1
  30   17   18 ar
  31   17   19 1
  32   19   20 1
  33   20   21 1
  34   20   22 1
  35   20   34 1
  36   21   35 1
  37   21   36 1
  38   21   37 1
  39   22   38 1
  40   22   39 1
  41   22   40 1

#	End of record

