#	Name: ASD10420163
#	Creating user name:	WinNT
#	Creation time:	15. 06. 2019 21:27

#	Modifying user name:	WinNT
#	Modification time:	15. 06. 2019 21:27

#	Program:	/corina/corina34_cracker 3.40 0067  02.08.2006

@<TRIPOS>MOLECULE
ASD10420163
  85   88    0    0    0
SMALL
NO_CHARGES


@<TRIPOS>ATOM
   1 C1             2.6562    -0.7099     0.4616 C.ar    
   2 C2            -3.4546    22.6980   -11.8387 C.ar    
   3 C3             1.6973    -0.7880    -0.5360 C.ar    
   4 C4            -2.4937    23.6957   -11.7904 C.ar    
   5 C5             3.8294    -0.0150     0.2507 C.ar    
   6 C6            -3.0827    21.3743   -11.9540 C.ar    
   7 C7             1.9047    -0.1726    -1.7511 C.ar    
   8 C8            -1.1550    23.3770   -11.8561 C.ar    
   9 C9             6.4543     3.3993    -1.1860 C.ar    
  10 C10            4.0965     3.3902    -0.7112 C.ar    
  11 C11           -0.4682    17.6938   -11.1338 C.ar    
  12 C12           -1.0347    19.5757    -9.7474 C.ar    
  13 C13            4.7933    13.7390    -3.1405 C.3     
  14 C14            4.7256    12.2546    -3.5049 C.3     
  15 C15            4.5418    14.5705    -4.3719 C.2     
  16 C16            4.9809    11.4104    -2.2547 C.3     
  17 C17            3.5905    15.4711    -4.3711 C.2     
  18 C18            4.9132     9.9259    -2.6191 C.3     
  19 O19            4.3258     1.8475    -3.4579 O.2     
  20 O20            1.0058    20.5307   -12.1523 O.2     
  21 O21            2.4047     1.0783    -4.2635 O.3     
  22 O22            1.6016    22.6634   -11.9859 O.3     
  23 C23            3.3390    16.3026    -5.6025 C.3     
  24 C24            5.1686     9.0817    -1.3689 C.3     
  25 C25            1.8729    16.1674    -6.0186 C.3     
  26 C26            5.1009     7.5973    -1.7333 C.3     
  27 C27            1.6176    17.0116    -7.2688 C.3     
  28 C28            3.3159     1.1961    -3.2774 C.2     
  29 C29            0.6681    21.6930   -12.0429 C.2     
  30 C30            5.2625     2.7046    -1.0258 C.ar    
  31 C31           -0.9537    18.9883   -11.0033 C.ar    
  32 C32            6.4794     4.7726    -1.0322 C.ar    
  33 C33            4.1227     4.7635    -0.5576 C.ar    
  34 C34           -0.0659    16.9907   -10.0140 C.ar    
  35 C35           -0.6330    18.8713    -8.6282 C.ar    
  36 C36            4.0570     0.6133    -0.9674 C.ar    
  37 C37           -1.7377    21.0324   -12.0217 C.ar    
  38 C38            3.0876     0.5353    -1.9810 C.ar    
  39 C39           -0.7613    22.0411   -11.9726 C.ar    
  40 C40            5.3140     5.4572    -0.7173 C.ar    
  41 C41           -0.1475    17.5779    -8.7593 C.ar    
  42 N42            5.2365     1.3140    -1.1819 N.pl3   
  43 N43           -1.3608    19.7009   -12.1369 N.pl3   
  44 O44            5.3393     6.8088    -0.5656 O.3     
  45 O45            0.2482    16.8853    -7.6573 O.3     
  46 Cl46           7.9690     5.6412    -1.2324 Cl      
  47 Cl47           2.6653     5.6207    -0.1643 Cl      
  48 Cl48           0.5411    15.3724   -10.1770 Cl      
  49 Cl49          -0.7353    19.6050    -7.0582 Cl      
  50 H50            2.4819    -1.1925     1.4120 H       
  51 H51           -4.5012    22.9582   -11.7822 H       
  52 H52            0.7826    -1.3346    -0.3602 H       
  53 H53           -2.7960    24.7285   -11.7000 H       
  54 H54            4.5714     0.0409     1.0335 H       
  55 H55           -3.8378    20.6031   -11.9913 H       
  56 H56            1.1543    -0.2374    -2.5250 H       
  57 H57           -0.4107    24.1586   -11.8187 H       
  58 H58            7.3622     2.8661    -1.4264 H       
  59 H59            3.1694     2.8504    -0.5869 H       
  60 H60           -0.4091    17.2350   -12.1097 H       
  61 H61           -1.4119    20.5825    -9.6454 H       
  62 H62            4.0359    13.9637    -2.3895 H       
  63 H63            5.7808    13.9704    -2.7412 H       
  64 H64            3.7381    12.0231    -3.9042 H       
  65 H65            5.4830    12.0299    -4.2559 H       
  66 H66            5.1459    14.4240    -5.2550 H       
  67 H67            5.9684    11.6418    -1.8554 H       
  68 H68            4.2236    11.6350    -1.5037 H       
  69 H69            2.9863    15.6176    -3.4879 H       
  70 H70            3.9258     9.6945    -3.0183 H       
  71 H71            5.6706     9.7013    -3.3701 H       
  72 H72            2.5984     1.5298    -5.0964 H       
  73 H73            2.5266    22.3863   -12.0359 H       
  74 H74            3.5605    17.3478    -5.3866 H       
  75 H75            3.9801    15.9552    -6.4127 H       
  76 H76            6.1560     9.3132    -0.9696 H       
  77 H77            4.4112     9.3064    -0.6178 H       
  78 H78            1.6514    15.1222    -6.2344 H       
  79 H79            1.2318    16.5148    -5.2084 H       
  80 H80            4.1134     7.3659    -2.1325 H       
  81 H81            5.8582     7.3726    -2.4843 H       
  82 H82            1.8391    18.0568    -7.0529 H       
  83 H83            2.2587    16.6641    -8.0789 H       
  84 H84            6.0423     0.8398    -1.4399 H       
  85 H85           -1.3796    19.2647   -13.0031 H       
@<TRIPOS>BOND
   1    1    3 ar
   2    1    5 ar
   3    1   50 1
   4    2    4 ar
   5    2    6 ar
   6    2   51 1
   7    3    7 ar
   8    3   52 1
   9    4    8 ar
  10    4   53 1
  11    5   36 ar
  12    5   54 1
  13    6   37 ar
  14    6   55 1
  15    7   38 ar
  16    7   56 1
  17    8   39 ar
  18    8   57 1
  19    9   30 ar
  20    9   32 ar
  21    9   58 1
  22   10   30 ar
  23   10   33 ar
  24   10   59 1
  25   11   31 ar
  26   11   34 ar
  27   11   60 1
  28   12   31 ar
  29   12   35 ar
  30   12   61 1
  31   13   14 1
  32   13   15 1
  33   13   62 1
  34   13   63 1
  35   14   16 1
  36   14   64 1
  37   14   65 1
  38   15   17 2
  39   15   66 1
  40   16   18 1
  41   16   67 1
  42   16   68 1
  43   17   23 1
  44   17   69 1
  45   18   24 1
  46   18   70 1
  47   18   71 1
  48   19   28 2
  49   20   29 2
  50   21   28 1
  51   21   72 1
  52   22   29 1
  53   22   73 1
  54   23   25 1
  55   23   74 1
  56   23   75 1
  57   24   26 1
  58   24   76 1
  59   24   77 1
  60   25   27 1
  61   25   78 1
  62   25   79 1
  63   26   44 1
  64   26   80 1
  65   26   81 1
  66   27   45 1
  67   27   82 1
  68   27   83 1
  69   28   38 1
  70   29   39 1
  71   30   42 1
  72   31   43 1
  73   32   40 ar
  74   32   46 1
  75   33   40 ar
  76   33   47 1
  77   34   41 ar
  78   34   48 1
  79   35   41 ar
  80   35   49 1
  81   36   38 ar
  82   36   42 1
  83   37   39 ar
  84   37   43 1
  85   40   44 1
  86   41   45 1
  87   42   84 1
  88   43   85 1

#	End of record

