#	Name: ASD11030041
#	Creating user name:	WinNT
#	Creation time:	15. 06. 2019 21:29

#	Modifying user name:	WinNT
#	Modification time:	15. 06. 2019 21:29

#	Program:	/corina/corina34_cracker 3.40 0067  02.08.2006

@<TRIPOS>MOLECULE
ASD11030041
  76   81    0    0    0
SMALL
NO_CHARGES


@<TRIPOS>ATOM
   1 C1             3.0755     4.7272    -6.4148 C.ar    
   2 C2             2.0348     3.8515    -6.1393 C.ar    
   3 C3             2.0273     3.1613    -4.9405 C.ar    
   4 N4             2.9928     3.3244    -4.0599 N.ar    
   5 C5             4.0070     4.1526    -4.2843 C.ar    
   6 C6             4.0775     4.8802    -5.4725 C.ar    
   7 C7             5.0690     4.3043    -3.2672 C.2     
   8 C8             5.4575     3.3455    -2.3890 C.2     
   9 C9             6.4950     3.8845    -1.5904 C.ar    
  10 C10            6.7057     5.2062    -2.0330 C.ar    
  11 N11            5.8223     5.4373    -3.0665 N.pl3   
  12 C12            7.2660     3.3672    -0.5395 C.ar    
  13 C13            8.2165     4.1407     0.0527 C.ar    
  14 C14            8.4333     5.4568    -0.3809 C.ar    
  15 C15            7.6766     5.9866    -1.4234 C.ar    
  16 C16            5.6998     6.6876    -3.8202 C.3     
  17 C17            4.8865     1.9549    -2.2827 C.3     
  18 C18            9.4674     6.2841     0.2705 C.2     
  19 N19           10.2011     5.7745     1.2798 N.am    
  20 O20            9.6576     7.4254    -0.1033 O.2     
  21 C21           11.3016     6.5542     1.8516 C.3     
  22 C22           10.8323     7.8061     2.5471 C.2     
  23 N23            9.6388     7.8222     3.1729 N.am    
  24 O24           11.5287     8.7990     2.5438 O.2     
  25 C25            9.2288     8.9623     3.8635 C.ar    
  26 C26            8.5492     8.8344     5.0719 C.ar    
  27 C27            8.1421     9.9550     5.7582 C.ar    
  28 C28            8.4123    11.2278     5.2404 C.ar    
  29 C29            9.0978    11.3531     4.0227 C.ar    
  30 C30            9.5055    10.2230     3.3455 C.ar    
  31 C31           12.2814     5.7149     2.6885 C.3     
  32 C32           13.4101     6.5489     2.0597 C.3     
  33 C33           12.4622     6.7925     0.8712 C.3     
  34 C34            7.9794    12.4266     5.9689 C.2     
  35 C35            7.3186    12.3030     7.1419 C.2     
  36 C36            5.9907     0.9116    -2.5279 C.3     
  37 C37            6.0935     0.0679    -1.2404 C.3     
  38 C38            4.7062     0.2269    -0.5703 C.3     
  39 C39            4.3570     1.7088    -0.8548 C.3     
  40 F40            9.3615    12.5777     3.5168 F       
  41 C41            6.9009    13.4599     7.8449 C.2     
  42 O42            7.1368    14.5646     7.3930 O.2     
  43 O43            6.2414    13.3366     9.0157 O.3     
  44 H44            3.1052     5.2738    -7.3458 H       
  45 H45            1.2377     3.7105    -6.8543 H       
  46 H46            1.2183     2.4795    -4.7236 H       
  47 H47            4.9022     5.5533    -5.6544 H       
  48 H48            7.1052     2.3547    -0.1997 H       
  49 H49            8.8076     3.7384     0.8622 H       
  50 H50            7.8451     7.0004    -1.7554 H       
  51 H51            6.2877     6.6191    -4.7355 H       
  52 H52            4.6533     6.8587    -4.0725 H       
  53 H53            6.0672     7.5151    -3.2134 H       
  54 H54            4.0827     1.8252    -3.0073 H       
  55 H55           10.0004     4.8915     1.6275 H       
  56 H56            9.0648     7.0407     3.1429 H       
  57 H57            8.3408     7.8528     5.4713 H       
  58 H58            7.6144     9.8533     6.6950 H       
  59 H59           10.0336    10.3169     2.4082 H       
  60 H60           12.1757     5.8632     3.7632 H       
  61 H61           12.3066     4.6625     2.4059 H       
  62 H62           13.6482     7.4536     2.6191 H       
  63 H63           14.2934     5.9644     1.8022 H       
  64 H64           12.5365     6.0348     0.0911 H       
  65 H65           12.5042     7.8092     0.4806 H       
  66 H66            8.1888    13.4073     5.5678 H       
  67 H67            7.1092    11.3224     7.5430 H       
  68 H68            5.7223     0.2750    -3.3710 H       
  69 H69            6.9395     1.4110    -2.7237 H       
  70 H70            6.2821    -0.9778    -1.4836 H       
  71 H71            6.8777     0.4570    -0.5910 H       
  72 H72            3.9758    -0.4376    -1.0319 H       
  73 H73            4.7722     0.0446     0.5024 H       
  74 H74            4.8607     2.3629    -0.1431 H       
  75 H75            3.2783     1.8607    -0.8165 H       
  76 H76            5.9977    14.1802     9.4206 H       
@<TRIPOS>BOND
   1    1    2 ar
   2    1    6 ar
   3    1   44 1
   4    2    3 ar
   5    2   45 1
   6    3    4 ar
   7    3   46 1
   8    4    5 ar
   9    5    6 ar
  10    5    7 1
  11    6   47 1
  12    7    8 2
  13    7   11 1
  14    8    9 1
  15    8   17 1
  16    9   10 ar
  17    9   12 ar
  18   10   11 1
  19   10   15 ar
  20   11   16 1
  21   12   13 ar
  22   12   48 1
  23   13   14 ar
  24   13   49 1
  25   14   15 ar
  26   14   18 1
  27   15   50 1
  28   16   51 1
  29   16   52 1
  30   16   53 1
  31   17   36 1
  32   17   39 1
  33   17   54 1
  34   18   19 am
  35   18   20 2
  36   19   21 1
  37   19   55 1
  38   21   22 1
  39   21   31 1
  40   21   33 1
  41   22   23 am
  42   22   24 2
  43   23   25 1
  44   23   56 1
  45   25   26 ar
  46   25   30 ar
  47   26   27 ar
  48   26   57 1
  49   27   28 ar
  50   27   58 1
  51   28   29 ar
  52   28   34 1
  53   29   30 ar
  54   29   40 1
  55   30   59 1
  56   31   32 1
  57   31   60 1
  58   31   61 1
  59   32   33 1
  60   32   62 1
  61   32   63 1
  62   33   64 1
  63   33   65 1
  64   34   35 2
  65   34   66 1
  66   35   41 1
  67   35   67 1
  68   36   37 1
  69   36   68 1
  70   36   69 1
  71   37   38 1
  72   37   70 1
  73   37   71 1
  74   38   39 1
  75   38   72 1
  76   38   73 1
  77   39   74 1
  78   39   75 1
  79   41   42 2
  80   41   43 1
  81   43   76 1

#	End of record

