#	Name: ASD10160060
#	Creating user name:	WinNT
#	Creation time:	15. 06. 2019 21:25

#	Modifying user name:	WinNT
#	Modification time:	15. 06. 2019 21:25

#	Program:	/corina/corina34_cracker 3.40 0067  02.08.2006

@<TRIPOS>MOLECULE
ASD10160060
  42   43    0    0    0
SMALL
NO_CHARGES


@<TRIPOS>ATOM
   1 C1            -0.3988     1.1105    -1.9433 C.2     
   2 C2            -0.2787    -0.2692    -1.4374 C.ar    
   3 C3             0.9052    -0.9893    -1.6362 C.ar    
   4 C4             1.0130    -2.2806    -1.1603 C.ar    
   5 C5            -0.0507    -2.8648    -0.4856 C.ar    
   6 C6            -1.2301    -2.1518    -0.2859 C.ar    
   7 C7            -1.3449    -0.8604    -0.7527 C.ar    
   8 O8             0.5315     1.6246    -2.5341 O.2     
   9 N9            -1.5415     1.8000    -1.7557 N.am    
  10 S10           -1.6764     3.3496    -2.3238 S.o2    
  11 O11           -2.9792     3.7559    -1.9276 O.2     
  12 O12           -0.5202     4.0078    -1.8245 O.2     
  13 C13           -1.5834     3.1802    -4.1274 C.3     
  14 O14            0.0593    -4.1349    -0.0197 O.3     
  15 C15            1.5479    -5.5224    -1.2590 C.ar    
  16 C16            1.2624    -4.7569    -0.1397 C.ar    
  17 C17            2.2230    -4.6323     0.8603 C.ar    
  18 C18            3.4336    -5.2824     0.6959 C.ar    
  19 C19            3.6487    -6.0322    -0.4528 C.ar    
  20 N20            2.7135    -6.1282    -1.3827 N.ar    
  21 O21            4.8329    -6.6736    -0.6235 O.3     
  22 C22            4.9942    -7.4290    -1.8257 C.3     
  23 C23            6.4710    -7.4420    -2.2256 C.3     
  24 C24            4.5157    -8.8638    -1.5947 C.3     
  25 F25           -2.2618    -2.7254     0.3713 F       
  26 F26            1.9404    -0.4216    -2.2930 F       
  27 H27            1.9257    -2.8373    -1.3133 H       
  28 H28           -2.2586    -0.3071    -0.5936 H       
  29 H29           -2.2850     1.3885    -1.2878 H       
  30 H30           -2.3994     2.5467    -4.4754 H       
  31 H31           -1.6648     4.1640    -4.5895 H       
  32 H32           -0.6302     2.7279    -4.4012 H       
  33 H33            0.8064    -5.6277    -2.0371 H       
  34 H34            2.0282    -4.0419     1.7434 H       
  35 H35            4.2016    -5.2072     1.4515 H       
  36 H36            4.4060    -6.9737    -2.6225 H       
  37 H37            7.0591    -7.8973    -1.4288 H       
  38 H38            6.5940    -8.0182    -3.1426 H       
  39 H39            6.8119    -6.4199    -2.3902 H       
  40 H40            3.4636    -8.8545    -1.3098 H       
  41 H41            4.6388    -9.4399    -2.5117 H       
  42 H42            5.1039    -9.3190    -0.7979 H       
@<TRIPOS>BOND
   1    1    2 1
   2    1    8 2
   3    1    9 am
   4    2    3 ar
   5    2    7 ar
   6    3    4 ar
   7    3   26 1
   8    4    5 ar
   9    4   27 1
  10    5    6 ar
  11    5   14 1
  12    6    7 ar
  13    6   25 1
  14    7   28 1
  15    9   10 am
  16    9   29 1
  17   10   11 2
  18   10   12 2
  19   10   13 1
  20   13   30 1
  21   13   31 1
  22   13   32 1
  23   14   16 1
  24   15   16 ar
  25   15   20 ar
  26   15   33 1
  27   16   17 ar
  28   17   18 ar
  29   17   34 1
  30   18   19 ar
  31   18   35 1
  32   19   20 ar
  33   19   21 1
  34   21   22 1
  35   22   23 1
  36   22   24 1
  37   22   36 1
  38   23   37 1
  39   23   38 1
  40   23   39 1
  41   24   40 1
  42   24   41 1
  43   24   42 1

#	End of record

