#	Name: ASD14740011
#	Creating user name:	WinNT
#	Creation time:	15. 06. 2019 21:31

#	Modifying user name:	WinNT
#	Modification time:	15. 06. 2019 21:31

#	Program:	/corina/corina34_cracker 3.40 0067  02.08.2006

@<TRIPOS>MOLECULE
ASD14740011
  64   68    0    0    0
SMALL
NO_CHARGES


@<TRIPOS>ATOM
   1 F1            -6.1799     1.8402    -0.2229 F       
   2 F2            -5.8217     0.9396     1.8459 F       
   3 F3            -7.4888     0.1198     0.5162 F       
   4 F4             1.7547     4.8766    -0.1144 F       
   5 F5             4.4573     5.3069    -0.1281 F       
   6 O6             7.4055    -3.3812    -3.6566 O.2     
   7 O7             0.7679     2.3194     0.0355 O.3     
   8 O8             6.1908     3.1832     0.0081 O.3     
   9 N9             7.8003    -1.4453    -2.6414 N.am    
  10 N10            0.7177    -0.9868    -1.3867 N.pl3   
  11 N11           -0.7594    -2.5459    -1.8084 N.2     
  12 N12           -2.8697    -0.7194    -0.6487 N.pl3   
  13 N13            1.1562     0.2566    -0.9222 N.2     
  14 C14            9.2349    -1.5406    -2.9227 C.3     
  15 C15           10.0307    -0.2353    -2.9853 C.3     
  16 C16           10.2018    -1.1792    -1.7934 C.3     
  17 C17            6.9668    -2.4215    -3.0523 C.2     
  18 C18            5.5227    -2.3256    -2.7691 C.ar    
  19 C19            4.6502    -3.3110    -3.2427 C.ar    
  20 C20            5.0262    -1.2522    -2.0214 C.ar    
  21 C21            2.8160    -2.1457    -2.2387 C.ar    
  22 C22            3.3133    -3.2222    -2.9809 C.ar    
  23 C23            3.6897    -1.1632    -1.7597 C.ar    
  24 C24            1.3724    -2.0496    -1.9560 C.2     
  25 C25            5.1860    -4.4703    -4.0427 C.3     
  26 C26           -0.6034    -1.3266    -1.3054 C.2     
  27 C27           -1.5190    -0.4036    -0.7451 C.2     
  28 C28            0.4154    -3.0126    -2.2123 C.2     
  29 C29           -1.0510     0.8134    -0.2968 C.2     
  30 C30           -3.8075     0.2441    -0.0669 C.3     
  31 C31            0.3126     1.1201    -0.4075 C.2     
  32 C32           -5.2189    -0.3464    -0.0797 C.3     
  33 C33           -6.1983     0.6598     0.5279 C.3     
  34 C34            2.1109     2.5347     0.0287 C.ar    
  35 C35            2.6062     3.8299    -0.0471 C.ar    
  36 C36            2.9856     1.4613     0.1031 C.ar    
  37 C37            3.9736     4.0476    -0.0540 C.ar    
  38 C38            4.3503     1.6787     0.0962 C.ar    
  39 C39            4.8473     2.9705     0.0148 C.ar    
  40 C40            7.0306     2.0293     0.0814 C.3     
  41 H41            9.5289    -2.3423    -3.6002 H       
  42 H42           10.8485    -0.1784    -3.7037 H       
  43 H43            9.4869     0.6942    -2.8171 H       
  44 H44            9.7705    -0.8706    -0.8411 H       
  45 H45           11.1322    -1.7433    -1.7276 H       
  46 H46            7.4504    -0.6798    -2.1594 H       
  47 H47            5.7006    -0.4940    -1.6518 H       
  48 H48            2.6396    -3.9827    -3.3472 H       
  49 H49            3.3065    -0.3346    -1.1825 H       
  50 H50            5.5763    -5.2298    -3.3652 H       
  51 H51            4.3840    -4.8979    -4.6445 H       
  52 H52            5.9850    -4.1218    -4.6970 H       
  53 H53            0.5928    -3.9783    -2.6622 H       
  54 H54           -3.1911    -1.5776    -0.9667 H       
  55 H55           -1.7339     1.5307     0.1337 H       
  56 H56           -3.5141     0.4621     0.9600 H       
  57 H57           -3.7932     1.1638    -0.6519 H       
  58 H58           -5.5123    -0.5644    -1.1066 H       
  59 H59           -5.2333    -1.2661     0.5052 H       
  60 H60            2.6000     0.4545     0.1668 H       
  61 H61            5.0303     0.8417     0.1542 H       
  62 H62            6.8244     1.4879     1.0047 H       
  63 H63            6.8324     1.3809    -0.7720 H       
  64 H64            8.0756     2.3390     0.0675 H       
@<TRIPOS>BOND
   1    1   33 1
   2    2   33 1
   3    3   33 1
   4    4   35 1
   5    5   37 1
   6    6   17 2
   7    7   31 1
   8    7   34 1
   9    8   39 1
  10    8   40 1
  11    9   14 1
  12    9   17 am
  13    9   46 1
  14   10   13 1
  15   10   24 1
  16   10   26 1
  17   11   26 2
  18   11   28 1
  19   12   27 1
  20   12   30 1
  21   12   54 1
  22   13   31 2
  23   14   15 1
  24   14   16 1
  25   14   41 1
  26   15   16 1
  27   15   42 1
  28   15   43 1
  29   16   44 1
  30   16   45 1
  31   17   18 1
  32   18   19 ar
  33   18   20 ar
  34   19   22 ar
  35   19   25 1
  36   20   23 ar
  37   20   47 1
  38   21   22 ar
  39   21   23 ar
  40   21   24 1
  41   22   48 1
  42   23   49 1
  43   24   28 2
  44   25   50 1
  45   25   51 1
  46   25   52 1
  47   26   27 1
  48   27   29 2
  49   28   53 1
  50   29   31 1
  51   29   55 1
  52   30   32 1
  53   30   56 1
  54   30   57 1
  55   32   33 1
  56   32   58 1
  57   32   59 1
  58   34   35 ar
  59   34   36 ar
  60   35   37 ar
  61   36   38 ar
  62   36   60 1
  63   37   39 ar
  64   38   39 ar
  65   38   61 1
  66   40   62 1
  67   40   63 1
  68   40   64 1

#	End of record

