#	Name: ASD10160155
#	Creating user name:	WinNT
#	Creation time:	15. 06. 2019 21:25

#	Modifying user name:	WinNT
#	Modification time:	15. 06. 2019 21:25

#	Program:	/corina/corina34_cracker 3.40 0067  02.08.2006

@<TRIPOS>MOLECULE
ASD10160155
  47   49    0    0    0
SMALL
NO_CHARGES


@<TRIPOS>ATOM
   1 C1             2.2913    -2.5023    -4.8935 C.2     
   2 C2             1.7036    -2.9313    -3.6110 C.ar    
   3 C3             2.4575    -2.8572    -2.4334 C.ar    
   4 C4             1.9011    -3.2609    -1.2348 C.ar    
   5 C5             0.5957    -3.7391    -1.1997 C.ar    
   6 C6            -0.1536    -3.8136    -2.3684 C.ar    
   7 C7             0.3903    -3.4078    -3.5662 C.ar    
   8 O8             3.4323    -2.0833    -4.9296 O.2     
   9 N9             1.5657    -2.5796    -6.0266 N.am    
  10 S10            2.2257    -2.0978    -7.4670 S.o2    
  11 O11            1.1838    -2.2945    -8.4131 O.2     
  12 O12            2.7380    -0.7994    -7.2008 O.2     
  13 C13            3.5799    -3.2690    -7.7587 C.3     
  14 O14            0.0517    -4.1350    -0.0208 O.3     
  15 C15           -2.3164    -3.9109     0.1057 C.ar    
  16 C16           -1.1861    -4.6974    -0.0458 C.ar    
  17 C17           -1.3324    -6.0707    -0.2245 C.ar    
  18 C18           -2.6109    -6.6006    -0.2439 C.ar    
  19 C19           -3.6999    -5.7487    -0.0853 C.ar    
  20 N20           -3.5216    -4.4482     0.0823 N.ar    
  21 N21           -4.9913    -6.2705    -0.1036 N.pl3   
  22 C22           -6.1433    -5.3808     0.0626 C.3     
  23 C23           -7.3899    -6.0053    -0.5883 C.3     
  24 C24           -8.4279    -6.1924     0.5374 C.3     
  25 C25           -8.0144    -5.1559     1.6115 C.3     
  26 C26           -6.4673    -5.2102     1.5612 C.3     
  27 F27           -7.8976    -5.1485    -1.5708 F       
  28 Cl28          -2.8528    -8.3055    -0.4639 Cl      
  29 F29            3.7256    -2.3928    -2.4691 F       
  30 F30            2.6256    -3.1913    -0.0967 F       
  31 H31           -1.1668    -4.1861    -2.3357 H       
  32 H32           -0.1958    -3.4623    -4.4717 H       
  33 H33            0.6569    -2.9176    -5.9985 H       
  34 H34            3.1794    -4.2813    -7.8130 H       
  35 H35            4.0764    -3.0238    -8.6975 H       
  36 H36            4.2976    -3.2056    -6.9407 H       
  37 H37           -2.2099    -2.8458     0.2491 H       
  38 H38           -0.4685    -6.7074    -0.3454 H       
  39 H39           -5.1279    -7.2230    -0.2265 H       
  40 H40           -5.9339    -4.4102    -0.3870 H       
  41 H41           -7.1378    -6.9704    -1.0279 H       
  42 H42           -9.4319    -5.9807     0.1696 H       
  43 H43           -8.3740    -7.2031     0.9419 H       
  44 H44           -8.3748    -4.1616     1.3478 H       
  45 H45           -8.3795    -5.4520     2.5949 H       
  46 H46           -6.0967    -6.0623     2.1310 H       
  47 H47           -6.0404    -4.2817     1.9405 H       
@<TRIPOS>BOND
   1    1    2 1
   2    1    8 2
   3    1    9 am
   4    2    3 ar
   5    2    7 ar
   6    3    4 ar
   7    3   29 1
   8    4    5 ar
   9    4   30 1
  10    5    6 ar
  11    5   14 1
  12    6    7 ar
  13    6   31 1
  14    7   32 1
  15    9   10 am
  16    9   33 1
  17   10   11 2
  18   10   12 2
  19   10   13 1
  20   13   34 1
  21   13   35 1
  22   13   36 1
  23   14   16 1
  24   15   16 ar
  25   15   20 ar
  26   15   37 1
  27   16   17 ar
  28   17   18 ar
  29   17   38 1
  30   18   19 ar
  31   18   28 1
  32   19   20 ar
  33   19   21 1
  34   21   22 1
  35   21   39 1
  36   22   23 1
  37   22   26 1
  38   22   40 1
  39   23   24 1
  40   23   27 1
  41   23   41 1
  42   24   25 1
  43   24   42 1
  44   24   43 1
  45   25   26 1
  46   25   44 1
  47   25   45 1
  48   26   46 1
  49   26   47 1

#	End of record

