#	Name: ASD15970001
#	Creating user name:	WinNT
#	Creation time:	15. 06. 2019 21:31

#	Modifying user name:	WinNT
#	Modification time:	15. 06. 2019 21:31

#	Program:	/corina/corina34_cracker 3.40 0067  02.08.2006

@<TRIPOS>MOLECULE
ASD15970001
  72   77    0    0    0
SMALL
NO_CHARGES


@<TRIPOS>ATOM
   1 N1             0.0597     1.5186     0.5821 N.am    
   2 C2            -1.1148     2.1796     0.5983 C.2     
   3 O3            -2.0871     1.6784     1.1289 O.2     
   4 N4            -1.2113     3.3961     0.0263 N.am    
   5 C5            -2.4543     4.0335    -0.0570 C.ar    
   6 C6            -3.7580     6.0460    -0.0213 C.ar    
   7 C7            -2.5343     5.4157     0.0604 C.ar    
   8 C8            -4.9154     5.2953    -0.2219 C.ar    
   9 C9            -3.6059     3.2836    -0.2626 C.ar    
  10 C10           -4.8319     3.9093    -0.3450 C.ar    
  11 C11           -6.2332     5.9709    -0.3097 C.2     
  12 C12           -6.4525     7.3033    -0.2074 C.2     
  13 N13           -7.8213     7.5059    -0.3464 N.pl3   
  14 C14           -8.3658     6.2784    -0.5270 C.2     
  15 N15           -7.4217     5.3662    -0.5111 N.2     
  16 S16          -10.1105     6.5120    -0.7065 S.3     
  17 C17           -8.7028     8.5924    -0.3383 C.ar    
  18 C18          -10.0431     8.2699    -0.5303 C.ar    
  19 C19           -8.3725     9.9455    -0.1697 C.ar    
  20 C20           -9.3488    10.9138    -0.1837 C.ar    
  21 C21          -11.0277     9.2440    -0.5464 C.ar    
  22 C22          -10.6833    10.5740    -0.3654 C.ar    
  23 O23          -11.6413    11.5385    -0.3772 O.3     
  24 C24          -11.2060    12.8875    -0.1964 C.3     
  25 C25          -12.4154    13.8237    -0.2390 C.3     
  26 N26          -13.2932    13.5420     0.9047 N.3     
  27 C27          -14.5748    14.2501     0.7722 C.3     
  28 C28          -15.4792    13.8823     1.9515 C.3     
  29 O29          -14.8101    14.1982     3.1754 O.3     
  30 C30          -13.5586    13.5254     3.3376 C.3     
  31 C31          -12.6348    13.8895     2.1723 C.3     
  32 C32            0.1596     0.2597     1.1741 C.2     
  33 N33            1.2234    -0.4979     1.2325 N.2     
  34 O34            0.9971    -1.5347     1.8120 O.3     
  35 C35           -0.2766    -1.6052     2.2251 C.2     
  36 C36           -0.8724    -0.4539     1.8397 C.2     
  37 C37           -0.9176    -2.7430     2.9772 C.3     
  38 C38           -1.4395    -2.2350     4.3228 C.3     
  39 C39           -2.0815    -3.3043     2.1579 C.3     
  40 C40            0.1172    -3.8447     3.2146 C.3     
  41 H41            0.8344     1.9167     0.1553 H       
  42 H42           -0.4192     3.8299    -0.3277 H       
  43 H43           -3.8197     7.1204     0.0696 H       
  44 H44           -1.6374     5.9968     0.2161 H       
  45 H45           -3.5406     2.2098    -0.3583 H       
  46 H46           -5.7272     3.3256    -0.5005 H       
  47 H47           -5.7044     8.0657    -0.0478 H       
  48 H48           -7.3403    10.2296    -0.0271 H       
  49 H49           -9.0749    11.9501    -0.0515 H       
  50 H50          -12.0607     8.9677    -0.6977 H       
  51 H51          -10.7071    12.9822     0.7680 H       
  52 H52          -10.5113    13.1550    -0.9927 H       
  53 H53          -12.0759    14.8583    -0.1903 H       
  54 H54          -12.9652    13.6650    -1.1667 H       
  55 H55          -14.3980    15.3256     0.7707 H       
  56 H56          -15.0566    13.9591    -0.1613 H       
  57 H57          -16.4084    14.4486     1.8880 H       
  58 H58          -15.7003    12.8154     1.9217 H       
  59 H59          -13.0988    13.8335     4.2766 H       
  60 H60          -13.7233    12.4480     3.3486 H       
  61 H61          -11.7007    13.3348     2.2613 H       
  62 H62          -12.4269    14.9593     2.1932 H       
  63 H63           -1.8970    -0.1503     1.9960 H       
  64 H64           -1.9031    -3.0579     4.8668 H       
  65 H65           -0.6103    -1.8350     4.9065 H       
  66 H66           -2.1767    -1.4501     4.1537 H       
  67 H67           -1.7097    -3.6662     1.1993 H       
  68 H68           -2.5451    -4.1273     2.7019 H       
  69 H69           -2.8187    -2.5195     1.9889 H       
  70 H70            0.4889    -4.2065     2.2560 H       
  71 H71            0.9463    -3.4447     3.7983 H       
  72 H72           -0.3465    -4.6676     3.7586 H       
@<TRIPOS>BOND
   1    1   32 1
   2    1   41 1
   3    1    2 am
   4    2    3 2
   5    2    4 am
   6    4   42 1
   7    4    5 1
   8    5    7 ar
   9    5    9 ar
  10    6    7 ar
  11    6   43 1
  12    6    8 ar
  13    7   44 1
  14    8   10 ar
  15    8   11 1
  16    9   45 1
  17    9   10 ar
  18   10   46 1
  19   11   12 2
  20   11   15 1
  21   12   47 1
  22   12   13 1
  23   13   14 1
  24   13   17 1
  25   14   15 2
  26   14   16 1
  27   16   18 1
  28   17   18 ar
  29   17   19 ar
  30   18   21 ar
  31   19   48 1
  32   19   20 ar
  33   20   49 1
  34   20   22 ar
  35   21   50 1
  36   21   22 ar
  37   22   23 1
  38   23   24 1
  39   24   51 1
  40   24   52 1
  41   24   25 1
  42   25   53 1
  43   25   54 1
  44   25   26 1
  45   26   27 1
  46   26   31 1
  47   27   55 1
  48   27   56 1
  49   27   28 1
  50   28   57 1
  51   28   58 1
  52   28   29 1
  53   29   30 1
  54   30   31 1
  55   30   59 1
  56   30   60 1
  57   31   61 1
  58   31   62 1
  59   32   33 2
  60   32   36 1
  61   33   34 1
  62   34   35 1
  63   35   36 2
  64   35   37 1
  65   36   63 1
  66   37   39 1
  67   37   40 1
  68   37   38 1
  69   38   64 1
  70   38   65 1
  71   38   66 1
  72   39   67 1
  73   39   68 1
  74   39   69 1
  75   40   70 1
  76   40   71 1
  77   40   72 1

#	End of record

