#	Name: ASD14350002
#	Creating user name:	WinNT
#	Creation time:	15. 06. 2019 21:31

#	Modifying user name:	WinNT
#	Modification time:	15. 06. 2019 21:31

#	Program:	/corina/corina34_cracker 3.40 0067  02.08.2006

@<TRIPOS>MOLECULE
ASD14350002
  57   60    0    0    0
SMALL
NO_CHARGES


@<TRIPOS>ATOM
   1 C1            -0.0379     1.3636     0.0054 C.2     
   2 N2             0.0264     0.0321    -0.0093 N.2     
   3 C3             1.2782    -0.3486    -0.0290 C.2     
   4 N4             2.0703     0.7384    -0.0276 N.pl3   
   5 C5             1.2416     1.8435    -0.0057 C.2     
   6 C6             3.5351     0.7485    -0.0456 C.3     
   7 C7             4.0670     0.1313     1.2509 C.3     
   8 C8             5.5959     0.0890     1.2002 C.3     
   9 N9             6.0268    -0.7083     0.0447 N.3     
  10 C10            5.5678    -0.1089    -1.2148 C.3     
  11 C11            4.0380    -0.0725    -1.2362 C.3     
  12 C12            7.4046    -0.8766     0.0424 C.ar    
  13 C13            8.0057    -1.6083    -0.9793 C.ar    
  14 C14            9.3757    -1.7713    -0.9757 C.ar    
  15 C15           10.1134    -1.1891     0.0650 C.ar    
  16 C16            9.4404    -0.4709     1.0524 C.ar    
  17 N17            8.1307    -0.3347     1.0090 N.ar    
  18 C18           11.5829    -1.3350     0.1146 C.2     
  19 O19           12.4057    -0.8281     1.0546 O.3     
  20 C20           13.6504    -1.2021     0.7096 C.2     
  21 N21           13.5631    -1.9000    -0.3877 N.2     
  22 N22           12.3303    -1.9874    -0.7453 N.2     
  23 C23           14.9173    -0.8736     1.4567 C.3     
  24 C24            1.6533     3.2522     0.0031 C.2     
  25 N25            0.7256     4.2260    -0.0834 N.am    
  26 O26            2.8323     3.5409     0.0886 O.2     
  27 C27            1.1251     5.6307     0.0322 C.3     
  28 C28            2.1221     5.9703    -1.0776 C.3     
  29 C29           -0.1095     6.5246    -0.1003 C.3     
  30 C30            1.7800     5.8642     1.3951 C.3     
  31 F31           16.0200    -1.3382     0.7317 F       
  32 F32           15.0167     0.5123     1.6196 F       
  33 F33           14.8915    -1.4901     2.7122 F       
  34 H34           -0.9401     1.9571     0.0190 H       
  35 H35            1.6208    -1.3727    -0.0437 H       
  36 H36            3.8912     1.7749    -0.1333 H       
  37 H37            3.7476     0.7361     2.0996 H       
  38 H38            3.6783    -0.8813     1.3581 H       
  39 H39            5.9845     1.1031     1.1069 H       
  40 H40            5.9773    -0.3630     2.1158 H       
  41 H41            5.9564     0.9062    -1.2968 H       
  42 H42            5.9286    -0.7046    -2.0532 H       
  43 H43            3.6488    -1.0883    -1.1682 H       
  44 H44            3.6979     0.3867    -2.1645 H       
  45 H45            7.4060    -2.0433    -1.7652 H       
  46 H46            9.8678    -2.3340    -1.7551 H       
  47 H47            9.9986    -0.0186     1.8587 H       
  48 H48           -0.2066     3.9967    -0.2222 H       
  49 H49            1.6555     5.8040    -2.0486 H       
  50 H50            2.4194     7.0155    -0.9916 H       
  51 H51            3.0017     5.3335    -0.9833 H       
  52 H52           -0.8197     6.2827     0.6904 H       
  53 H53            0.1878     7.5698    -0.0143 H       
  54 H54           -0.5760     6.3583    -1.0712 H       
  55 H55            2.6596     5.2273     1.4894 H       
  56 H56            2.0773     6.9093     1.4811 H       
  57 H57            1.0698     5.6222     2.1857 H       
@<TRIPOS>BOND
   1    1    2 1
   2    1    5 2
   3    1   34 1
   4    2    3 2
   5    3    4 1
   6    3   35 1
   7    4    5 1
   8    4    6 1
   9    5   24 1
  10    6    7 1
  11    6   11 1
  12    6   36 1
  13    7    8 1
  14    7   37 1
  15    7   38 1
  16    8    9 1
  17    8   39 1
  18    8   40 1
  19    9   10 1
  20    9   12 1
  21   10   11 1
  22   10   41 1
  23   10   42 1
  24   11   43 1
  25   11   44 1
  26   12   13 ar
  27   12   17 ar
  28   13   14 ar
  29   13   45 1
  30   14   15 ar
  31   14   46 1
  32   15   16 ar
  33   15   18 1
  34   16   17 ar
  35   16   47 1
  36   18   19 1
  37   18   22 2
  38   19   20 1
  39   20   21 2
  40   20   23 1
  41   21   22 1
  42   23   31 1
  43   23   32 1
  44   23   33 1
  45   24   25 am
  46   24   26 2
  47   25   27 1
  48   25   48 1
  49   27   28 1
  50   27   29 1
  51   27   30 1
  52   28   49 1
  53   28   50 1
  54   28   51 1
  55   29   52 1
  56   29   53 1
  57   29   54 1
  58   30   55 1
  59   30   56 1
  60   30   57 1

#	End of record

