#	Name: ASD15290001
#	Creating user name:	WinNT
#	Creation time:	15. 06. 2019 21:31

#	Modifying user name:	WinNT
#	Modification time:	15. 06. 2019 21:31

#	Program:	/corina/corina34_cracker 3.40 0067  02.08.2006

@<TRIPOS>MOLECULE
ASD15290001
  37   39    0    0    0
SMALL
NO_CHARGES


@<TRIPOS>ATOM
   1 N1            -0.0166     1.3762     0.0096 N.am    
   2 C2             0.0021    -0.0041     0.0020 C.2     
   3 N3            -1.1788    -0.7075     0.0095 N.pl3   
   4 N4             1.1384    -0.6397    -0.0122 N.2     
   5 C5             1.1413     2.0659     0.0023 C.2     
   6 O6             2.2019     1.4726    -0.0111 O.2     
   7 C7             2.3146     4.2472     0.0028 C.ar    
   8 C8             1.1212     3.5430     0.0104 C.ar    
   9 C9            -0.1086     4.2243     0.0253 C.ar    
  10 C10           -0.1514     5.5821     0.0325 C.ar    
  11 C11            1.0409     6.3231     0.0250 C.ar    
  12 C12            1.0199     7.7377     0.0322 C.ar    
  13 C13            2.2151     8.4340     0.0251 C.ar    
  14 C14            3.4307     7.7585     0.0105 C.ar    
  15 C15            3.4795     6.3978     0.0028 C.ar    
  16 C16            2.2879     5.6498     0.0105 C.ar    
  17 N17           -1.8699     9.8641     0.5815 N.pl3   
  18 N18           -2.3129     9.0809    -0.4910 N.2     
  19 C19           -1.3632     8.2445    -0.8155 C.2     
  20 C20           -0.2708     8.4669     0.0468 C.2     
  21 C21           -0.6184     9.4760     0.8988 C.2     
  22 C22           -2.6325    10.9268     1.2414 C.3     
  23 H23           -0.8632     1.8497     0.0162 H       
  24 H24           -2.0253    -0.2340     0.0201 H       
  25 H25           -1.1657    -1.6774     0.0042 H       
  26 H26            1.1516    -1.6096    -0.0176 H       
  27 H27            3.2575     3.7206    -0.0046 H       
  28 H28           -1.0303     3.6614     0.0308 H       
  29 H29           -1.1035     6.0919     0.0436 H       
  30 H30            2.2041     9.5140     0.0305 H       
  31 H31            4.3516     8.3228     0.0047 H       
  32 H32            4.4337     5.8922    -0.0093 H       
  33 H33           -1.4075     7.5106    -1.6066 H       
  34 H34           -0.0023     9.8887     1.6840 H       
  35 H35           -3.2066    10.5038     2.0658 H       
  36 H36           -1.9464    11.6813     1.6259 H       
  37 H37           -3.3121    11.3858     0.5234 H       
@<TRIPOS>BOND
   1    1    2 1
   2    1    5 am
   3    1   23 1
   4    2    3 1
   5    2    4 2
   6    3   24 1
   7    3   25 1
   8    4   26 1
   9    5    6 2
  10    5    8 1
  11    7    8 ar
  12    7   16 ar
  13    7   27 1
  14    8    9 ar
  15    9   10 ar
  16    9   28 1
  17   10   11 ar
  18   10   29 1
  19   11   12 ar
  20   11   16 ar
  21   12   13 ar
  22   12   20 1
  23   13   14 ar
  24   13   30 1
  25   14   15 ar
  26   14   31 1
  27   15   16 ar
  28   15   32 1
  29   17   18 1
  30   17   21 1
  31   17   22 1
  32   18   19 2
  33   19   20 1
  34   19   33 1
  35   20   21 2
  36   21   34 1
  37   22   35 1
  38   22   36 1
  39   22   37 1

#	End of record

