#	Name: ASD10410021
#	Creating user name:	WinNT
#	Creation time:	15. 06. 2019 21:26

#	Modifying user name:	WinNT
#	Modification time:	15. 06. 2019 21:26

#	Program:	/corina/corina34_cracker 3.40 0067  02.08.2006

@<TRIPOS>MOLECULE
ASD10410021
  70   74    0    0    0
SMALL
NO_CHARGES


@<TRIPOS>ATOM
   1 C1             0.1939     0.4193    -0.1491 C.3     
   2 C2            -0.5503    -0.8637    -0.4164 C.ar    
   3 C3             1.6240     0.2741    -0.6015 C.ar    
   4 N4             1.9513     0.4865    -1.8652 N.ar    
   5 C5             2.6145    -0.0785     0.3037 C.ar    
   6 C6             3.9177    -0.2007    -0.1547 C.ar    
   7 N7             4.1753     0.0211    -1.4332 N.ar    
   8 C8             3.2066     0.3612    -2.2702 C.ar    
   9 Cl9            2.2312    -0.3598     1.9733 Cl      
  10 N10            3.5126     0.5861    -3.6031 N.pl3   
  11 C11            4.8451     0.5735    -4.0261 C.ar    
  12 C12            5.1756     0.0513    -5.2701 C.ar    
  13 C13            6.4928     0.0409    -5.6851 C.ar    
  14 C14            7.4822     0.5495    -4.8636 C.ar    
  15 C15            7.1566     1.0701    -3.6246 C.ar    
  16 C16            5.8407     1.0884    -3.2057 C.ar    
  17 C17            8.9185     0.5360    -5.3196 C.3     
  18 N18            9.2158     1.7823    -6.0382 N.3     
  19 C19           10.6575     1.9133    -6.2910 C.3     
  20 C20           10.9163     3.1810    -7.1086 C.3     
  21 N21           10.4051     4.3470    -6.3745 N.3     
  22 C22            8.9634     4.2160    -6.1217 C.3     
  23 C23            8.7047     2.9483    -5.3042 C.3     
  24 C24           10.7025     5.5932    -7.0931 C.3     
  25 C25           -1.4842    -0.9211    -1.4337 C.ar    
  26 C26           -0.2941    -1.9839     0.3525 C.ar    
  27 C27           -0.9751    -3.1610     0.1077 C.ar    
  28 C28           -1.9148    -3.2183    -0.9079 C.ar    
  29 C29           -2.1670    -2.0974    -1.6801 C.ar    
  30 F30           -2.5813    -4.3687    -1.1481 F       
  31 S31           -1.8049     0.5057    -2.4165 S.o2    
  32 N32           -2.5675     1.6088    -1.4449 N.am    
  33 O33           -0.5385     1.0634    -2.7395 O.2     
  34 O34           -2.7539     0.1119    -3.3981 O.2     
  35 C35           -1.9204     2.7329    -0.7527 C.3     
  36 C36           -3.0145     3.4677     0.0502 C.3     
  37 C37           -4.1110     2.3827     0.2168 C.3     
  38 C38           -4.0089     1.6300    -1.1358 C.3     
  39 H39           -0.2793     1.2345    -0.6964 H       
  40 H40            0.1709     0.6369     0.9187 H       
  41 H41            4.7125    -0.4733     0.5238 H       
  42 H42            2.8023     0.7521    -4.2424 H       
  43 H43            4.4034    -0.3464    -5.9119 H       
  44 H44            6.7504    -0.3653    -6.6520 H       
  45 H45            7.9317     1.4666    -2.9855 H       
  46 H46            5.5871     1.4951    -2.2378 H       
  47 H47            9.5740     0.4511    -4.4529 H       
  48 H48            9.0811    -0.3135    -5.9829 H       
  49 H49           11.1888     1.9782    -5.3414 H       
  50 H50           11.0098     1.0441    -6.8465 H       
  51 H51           11.9878     3.2956    -7.2725 H       
  52 H52           10.4072     3.1043    -8.0693 H       
  53 H53            8.6111     5.0851    -5.5663 H       
  54 H54            8.4321     4.1511    -7.0713 H       
  55 H55            7.6332     2.8336    -5.1402 H       
  56 H56            9.2137     3.0249    -4.3434 H       
  57 H57           10.2334     5.5663    -8.0767 H       
  58 H58           10.3133     6.4402    -6.5281 H       
  59 H59           11.7814     5.6979    -7.2078 H       
  60 H60            0.4389    -1.9390     1.1444 H       
  61 H61           -0.7743    -4.0361     0.7079 H       
  62 H62           -2.8999    -2.1408    -2.4722 H       
  63 H63           -1.1521     2.3588    -0.0760 H       
  64 H64           -1.4769     3.4112    -1.4816 H       
  65 H65           -2.6336     3.7834     1.0215 H       
  66 H66           -3.3975     4.3202    -0.5107 H       
  67 H67           -3.8832     1.7222     1.0534 H       
  68 H68           -5.0948     2.8366     0.3360 H       
  69 H69           -4.5603     2.1641    -1.9097 H       
  70 H70           -4.3864     0.6127    -1.0333 H       
@<TRIPOS>BOND
   1    1    2 1
   2    1    3 1
   3    1   39 1
   4    1   40 1
   5    2   25 ar
   6    2   26 ar
   7    3    4 ar
   8    3    5 ar
   9    4    8 ar
  10    5    6 ar
  11    5    9 1
  12    6    7 ar
  13    6   41 1
  14    7    8 ar
  15    8   10 1
  16   10   11 1
  17   10   42 1
  18   11   12 ar
  19   11   16 ar
  20   12   13 ar
  21   12   43 1
  22   13   14 ar
  23   13   44 1
  24   14   15 ar
  25   14   17 1
  26   15   16 ar
  27   15   45 1
  28   16   46 1
  29   17   18 1
  30   17   47 1
  31   17   48 1
  32   18   19 1
  33   18   23 1
  34   19   20 1
  35   19   49 1
  36   19   50 1
  37   20   21 1
  38   20   51 1
  39   20   52 1
  40   21   22 1
  41   21   24 1
  42   22   23 1
  43   22   53 1
  44   22   54 1
  45   23   55 1
  46   23   56 1
  47   24   57 1
  48   24   58 1
  49   24   59 1
  50   25   31 1
  51   25   29 ar
  52   26   27 ar
  53   26   60 1
  54   27   28 ar
  55   27   61 1
  56   28   29 ar
  57   28   30 1
  58   29   62 1
  59   31   32 am
  60   31   33 2
  61   31   34 2
  62   32   35 1
  63   32   38 1
  64   35   36 1
  65   35   63 1
  66   35   64 1
  67   36   37 1
  68   36   65 1
  69   36   66 1
  70   37   38 1
  71   37   67 1
  72   37   68 1
  73   38   69 1
  74   38   70 1

#	End of record

