#	Name: ASD10610061
#	Creating user name:	WinNT
#	Creation time:	15. 06. 2019 21:27

#	Modifying user name:	WinNT
#	Modification time:	15. 06. 2019 21:27

#	Program:	/corina/corina34_cracker 3.40 0067  02.08.2006

@<TRIPOS>MOLECULE
ASD10610061
  61   65    0    0    0
SMALL
NO_CHARGES


@<TRIPOS>ATOM
   1 O1            -0.3546     1.3182    -0.3423 O.3     
   2 N2            -0.8180     0.2639    -0.7097 N.2     
   3 C3            -1.3070     0.3397    -1.9132 C.2     
   4 C4            -1.1043     1.6684    -2.3480 C.2     
   5 C5            -0.4796     2.2679    -1.2885 C.2     
   6 C6            -0.0339     3.6713    -1.2004 C.2     
   7 O7            -0.2122     4.4257    -2.1371 O.2     
   8 N8             0.5709     4.1173    -0.0816 N.am    
   9 O9            -0.1046     6.5016     1.2924 O.3     
  10 C10            0.0573     6.5872    -0.1293 C.3     
  11 C11            1.1120     5.4779    -0.0341 C.3     
  12 C12            1.2558     6.0580     1.3784 C.3     
  13 C13            2.3143     5.6786    -0.9202 C.2     
  14 N14            3.2094     4.6834    -1.0773 N.am    
  15 O15            2.4763     6.7358    -1.4921 O.2     
  16 C16            4.4330     4.9138    -1.8493 C.3     
  17 C17            4.1471     4.6933    -3.3361 C.3     
  18 C18            7.4658     2.1870    -0.5601 C.ar    
  19 C19            7.8217     3.3987    -1.1501 C.ar    
  20 C20            6.8384     4.2767    -1.5652 C.ar    
  21 C21            5.5017     3.9530    -1.3954 C.ar    
  22 C22            5.1450     2.7519    -0.8106 C.ar    
  23 C23            6.1193     1.8680    -0.3924 C.ar    
  24 C24            8.5156     1.2382    -0.1181 C.ar    
  25 C25            8.4770     0.6961     1.1766 C.ar    
  26 C26            9.4702    -0.1953     1.5807 C.ar    
  27 C27           10.4853    -0.5402     0.7071 C.ar    
  28 C28           10.5217    -0.0046    -0.5693 C.ar    
  29 C29            9.5409     0.8759    -0.9861 C.ar    
  30 O30            5.6774     1.9805     2.8303 O.3     
  31 N31            6.3984     1.8898     1.8592 N.2     
  32 C32            7.3870     1.0697     2.1086 C.2     
  33 N33            7.2273     0.6265     3.3767 N.2     
  34 C34            6.1424     1.2111     3.8196 C.2     
  35 C35            5.5325     1.0473     5.1879 C.3     
  36 F36            9.4410    -0.7212     2.8247 F       
  37 F37            7.1807     5.4517    -2.1373 F       
  38 Cl38          11.8022    -0.4470    -1.6547 Cl      
  39 C39           -1.9609    -0.7728    -2.6915 C.3     
  40 H40           -1.3781     2.1083    -3.2956 H       
  41 H41            0.6479     3.5374     0.6922 H       
  42 H42           -0.8327     6.2917    -0.6848 H       
  43 H43            0.4631     7.5427    -0.4619 H       
  44 H44            1.9744     6.8752     1.4395 H       
  45 H45            1.4158     5.2986     2.1438 H       
  46 H46            3.0435     3.8146    -0.6791 H       
  47 H47            4.7741     5.9371    -1.6927 H       
  48 H48            5.0574     4.8647    -3.9105 H       
  49 H49            3.8059     3.6700    -3.4926 H       
  50 H50            3.3741     5.3882    -3.6643 H       
  51 H51            8.8635     3.6511    -1.2821 H       
  52 H52            4.1017     2.5049    -0.6804 H       
  53 H53            5.8386     0.9302     0.0638 H       
  54 H54           11.2538    -1.2305     1.0222 H       
  55 H55            9.5729     1.2860    -1.9847 H       
  56 H56            4.6340     1.6601     5.2610 H       
  57 H57            5.2724     0.0007     5.3468 H       
  58 H58            6.2499     1.3624     5.9456 H       
  59 H59           -3.0324    -0.7750    -2.4915 H       
  60 H60           -1.7906    -0.6196    -3.7572 H       
  61 H61           -1.5328    -1.7284    -2.3888 H       
@<TRIPOS>BOND
   1    1    2 1
   2    1    5 1
   3    2    3 2
   4    3    4 1
   5    3   39 1
   6    4    5 2
   7    4   40 1
   8    5    6 1
   9    6    7 2
  10    6    8 am
  11    8   11 1
  12    8   41 1
  13    9   10 1
  14    9   12 1
  15   10   11 1
  16   10   42 1
  17   10   43 1
  18   11   12 1
  19   11   13 1
  20   12   44 1
  21   12   45 1
  22   13   14 am
  23   13   15 2
  24   14   16 1
  25   14   46 1
  26   16   17 1
  27   16   21 1
  28   16   47 1
  29   17   48 1
  30   17   49 1
  31   17   50 1
  32   18   19 ar
  33   18   23 ar
  34   18   24 1
  35   19   20 ar
  36   19   51 1
  37   20   21 ar
  38   20   37 1
  39   21   22 ar
  40   22   23 ar
  41   22   52 1
  42   23   53 1
  43   24   25 ar
  44   24   29 ar
  45   25   26 ar
  46   25   32 1
  47   26   27 ar
  48   26   36 1
  49   27   28 ar
  50   27   54 1
  51   28   29 ar
  52   28   38 1
  53   29   55 1
  54   30   31 1
  55   30   34 1
  56   31   32 2
  57   32   33 1
  58   33   34 2
  59   34   35 1
  60   35   56 1
  61   35   57 1
  62   35   58 1
  63   39   59 1
  64   39   60 1
  65   39   61 1

#	End of record

