#	Name: ASD11550003
#	Creating user name:	WinNT
#	Creation time:	15. 06. 2019 21:29

#	Modifying user name:	WinNT
#	Modification time:	15. 06. 2019 21:29

#	Program:	/corina/corina34_cracker 3.40 0067  02.08.2006

@<TRIPOS>MOLECULE
ASD11550003
  24   23    0    0    0
SMALL
NO_CHARGES


@<TRIPOS>ATOM
   1 O1            -0.0173     1.4248     0.0099 O.3     
   2 C2             0.0021    -0.0041     0.0020 C.3     
   3 C3            -1.6670    -2.0109     0.0072 C.3     
   4 O4            -3.0268    -2.2619     0.3675 O.3     
   5 C5            -1.3987    -2.5693    -1.3918 C.3     
   6 O6            -2.1818    -1.8530    -2.3488 O.3     
   7 C7            -1.7765    -4.0514    -1.4305 C.3     
   8 O8            -0.9935    -4.7677    -0.4735 O.3     
   9 C9            -1.5083    -4.6097    -2.8295 C.3     
  10 O10           -1.9686    -5.9607    -2.8995 O.3     
  11 C11           -1.4117    -0.5257     0.0127 C.2     
  12 O12           -2.3401     0.2465     0.0257 O.2     
  13 H13            0.8606     1.8301     0.0037 H       
  14 H14            0.5123    -0.3556    -0.8948 H       
  15 H15            0.5293    -0.3651     0.8851 H       
  16 H16           -1.0054    -2.4959     0.7250 H       
  17 H17           -3.6726    -1.8592    -0.2291 H       
  18 H18           -0.3412    -2.4575    -1.6310 H       
  19 H19           -3.1352    -1.9084    -2.1974 H       
  20 H20           -2.8341    -4.1631    -1.1913 H       
  21 H21           -0.0400    -4.7122    -0.6249 H       
  22 H22           -2.0363    -4.0072    -3.5686 H       
  23 H23           -0.4380    -4.5796    -3.0336 H       
  24 H24           -1.8305    -6.3793    -3.7602 H       
@<TRIPOS>BOND
   1    1    2 1
   2    1   13 1
   3    2   11 1
   4    2   14 1
   5    2   15 1
   6    3    4 1
   7    3    5 1
   8    3   11 1
   9    3   16 1
  10    4   17 1
  11    5    6 1
  12    5    7 1
  13    5   18 1
  14    6   19 1
  15    7    8 1
  16    7    9 1
  17    7   20 1
  18    8   21 1
  19    9   10 1
  20    9   22 1
  21    9   23 1
  22   10   24 1
  23   11   12 2

#	End of record

