#	Name: ASD11710035
#	Creating user name:	WinNT
#	Creation time:	15. 06. 2019 21:29

#	Modifying user name:	WinNT
#	Modification time:	15. 06. 2019 21:29

#	Program:	/corina/corina34_cracker 3.40 0067  02.08.2006

@<TRIPOS>MOLECULE
ASD11710035
  48   51    0    0    0
SMALL
NO_CHARGES


@<TRIPOS>ATOM
   1 C1            -0.3357     0.9331     0.4165 C.ar    
   2 C2            -0.1799    -0.5255     0.6368 C.ar    
   3 C3             0.7399    -1.2524    -0.1168 C.ar    
   4 C4            -0.9488    -1.1731     1.6021 C.ar    
   5 C5            -0.7997    -2.5304     1.8028 C.ar    
   6 C6             0.1111    -3.2478     1.0483 C.ar    
   7 C7             0.8806    -2.6092     0.0924 C.ar    
   8 S8             0.2970    -4.9802     1.3107 S.o2    
   9 N9            -0.6594    -5.7497     0.1993 N.am    
  10 C10           -2.0441    -5.5683     0.2246 C.ar    
  11 C11           -2.7355    -5.3211    -0.9546 C.ar    
  12 C12           -2.7337    -5.6402     1.4283 C.ar    
  13 C13           -4.1028    -5.4603     1.4498 C.ar    
  14 C14           -4.7873    -5.2092     0.2748 C.ar    
  15 C15           -4.1046    -5.1422    -0.9260 C.ar    
  16 O16            1.6403    -5.2956     0.9711 O.2     
  17 O17           -0.2677    -5.2557     2.5853 O.2     
  18 N18            0.7315     1.7255     0.4183 N.ar    
  19 C19            0.5881     3.0233     0.2218 C.ar    
  20 C20           -0.6708     3.5597     0.0145 C.ar    
  21 N21           -1.7359     2.7762     0.0121 N.ar    
  22 C22           -1.6022     1.4770     0.2010 C.ar    
  23 C23           -2.8165     0.5846     0.1981 C.3     
  24 C24           -3.1639     0.2134    -1.2206 C.ar    
  25 C25           -2.6159    -0.9195    -1.7925 C.ar    
  26 C26           -2.9345    -1.2600    -3.0938 C.ar    
  27 C27           -3.8013    -0.4677    -3.8231 C.ar    
  28 C28           -4.3500     0.6647    -3.2509 C.ar    
  29 C29           -4.0348     1.0028    -1.9481 C.ar    
  30 H30            1.3412    -0.7548    -0.8633 H       
  31 H31           -1.6597    -0.6138     2.1922 H       
  32 H32           -1.3949    -3.0333     2.5505 H       
  33 H33            1.5902    -3.1742    -0.4938 H       
  34 H34           -0.2580    -6.3265    -0.4694 H       
  35 H35           -2.2029    -5.2687    -1.8927 H       
  36 H36           -2.1998    -5.8370     2.3463 H       
  37 H37           -4.6395    -5.5161     2.3854 H       
  38 H38           -5.8580    -5.0696     0.2943 H       
  39 H39           -4.6422    -4.9459    -1.8418 H       
  40 H40            1.4548     3.6676     0.2232 H       
  41 H41           -0.7836     4.6218    -0.1454 H       
  42 H42           -2.6043    -0.3196     0.7687 H       
  43 H43           -3.6559     1.1118     0.6516 H       
  44 H44           -1.9387    -1.5385    -1.2227 H       
  45 H45           -2.5058    -2.1447    -3.5409 H       
  46 H46           -4.0496    -0.7333    -4.8400 H       
  47 H47           -5.0269     1.2839    -3.8207 H       
  48 H48           -4.4634     1.8875    -1.5010 H       
@<TRIPOS>BOND
   1    1    2 1
   2    1   18 ar
   3    1   22 ar
   4    2    3 ar
   5    2    4 ar
   6    3    7 ar
   7    3   30 1
   8    4    5 ar
   9    4   31 1
  10    5    6 ar
  11    5   32 1
  12    6    7 ar
  13    6    8 1
  14    7   33 1
  15    8    9 am
  16    8   16 2
  17    8   17 2
  18    9   10 1
  19    9   34 1
  20   10   11 ar
  21   10   12 ar
  22   11   15 ar
  23   11   35 1
  24   12   13 ar
  25   12   36 1
  26   13   14 ar
  27   13   37 1
  28   14   15 ar
  29   14   38 1
  30   15   39 1
  31   18   19 ar
  32   19   20 ar
  33   19   40 1
  34   20   21 ar
  35   20   41 1
  36   21   22 ar
  37   22   23 1
  38   23   24 1
  39   23   42 1
  40   23   43 1
  41   24   25 ar
  42   24   29 ar
  43   25   26 ar
  44   25   44 1
  45   26   27 ar
  46   26   45 1
  47   27   28 ar
  48   27   46 1
  49   28   29 ar
  50   28   47 1
  51   29   48 1

#	End of record

