#	Name: ASD10950063
#	Creating user name:	WinNT
#	Creation time:	15. 06. 2019 21:28

#	Modifying user name:	WinNT
#	Modification time:	15. 06. 2019 21:28

#	Program:	/corina/corina34_cracker 3.40 0067  02.08.2006

@<TRIPOS>MOLECULE
ASD10950063
  62   65    0    0    0
SMALL
NO_CHARGES


@<TRIPOS>ATOM
   1 C1             1.7367    -1.9062     2.0729 C.2     
   2 C2             0.9105    -1.6797     1.0540 C.2     
   3 C3            -0.4055    -2.3318     1.0165 C.2     
   4 O4            -0.7398    -3.0779     1.9156 O.2     
   5 O5            -1.2427    -2.1023    -0.0160 O.3     
   6 C6            -2.3919    -2.8153    -0.0451 C.2     
   7 C7            -3.6389    -2.3019     0.0896 C.2     
   8 C8            -3.9755    -0.9397     0.2840 C.2     
   9 O9            -3.0996    -0.1151     0.4438 O.2     
  10 C10           -5.4212    -0.5145     0.2924 C.3     
  11 C11           -4.6009    -3.4629    -0.0080 C.3     
  12 N12           -3.7779    -4.6613    -0.2082 N.am    
  13 C13           -2.4883    -4.2790    -0.2353 C.2     
  14 O14           -1.5425    -5.0263    -0.3858 O.2     
  15 C15           -4.2736    -6.0318    -0.3578 C.3     
  16 C16           -4.5251    -6.3244    -1.8383 C.3     
  17 C17           -5.0350    -7.7342    -1.9922 C.2     
  18 C18           -6.3189    -8.1256    -1.9723 C.2     
  19 C19           -7.5003    -7.2080    -1.7892 C.3     
  20 N20           -6.3961    -9.4809    -2.1437 N.pl3   
  21 C21           -5.1316   -10.0080    -2.2815 C.ar    
  22 C22           -4.2240    -8.9365    -2.1982 C.ar    
  23 C23           -2.8525    -9.1753    -2.3066 C.ar    
  24 C24           -2.3986   -10.4503    -2.4932 C.ar    
  25 C25           -3.2904   -11.5112    -2.5766 C.ar    
  26 C26           -4.6475   -11.2978    -2.4757 C.ar    
  27 C27           -5.3946    -3.5866     1.2670 C.ar    
  28 C28           -6.6940    -3.1136     1.3179 C.ar    
  29 C29           -7.4264    -3.2241     2.4817 C.ar    
  30 C30           -6.8536    -3.8148     3.6098 C.ar    
  31 C31           -5.5420    -4.2899     3.5514 C.ar    
  32 C32           -4.8227    -4.1778     2.3796 C.ar    
  33 C33           -7.6317    -3.9361     4.8596 C.2     
  34 O34           -8.7725    -3.5215     4.9076 O.2     
  35 O35           -7.0762    -4.5065     5.9462 O.3     
  36 C36           -7.8992    -4.5920     7.1394 C.3     
  37 H37            2.7041    -1.4269     2.1005 H       
  38 H38            1.4378    -2.5658     2.8742 H       
  39 H39            1.2076    -1.0167     0.2550 H       
  40 H40           -5.9477    -1.0328     1.0938 H       
  41 H41           -5.4825     0.5617     0.4539 H       
  42 H42           -5.8792    -0.7649    -0.6645 H       
  43 H43           -5.2718    -3.3232    -0.8556 H       
  44 H44           -3.5324    -6.7306     0.0299 H       
  45 H45           -5.2045    -6.1441     0.1980 H       
  46 H46           -5.2663    -5.6256    -2.2261 H       
  47 H47           -3.5942    -6.2121    -2.3941 H       
  48 H48           -7.8409    -6.8556    -2.7627 H       
  49 H49           -8.3076    -7.7493    -1.2959 H       
  50 H50           -7.2068    -6.3556    -1.1765 H       
  51 H51           -7.2190    -9.9940    -2.1646 H       
  52 H52           -2.1529    -8.3549    -2.2434 H       
  53 H53           -1.3378   -10.6345    -2.5770 H       
  54 H54           -2.9164   -12.5135    -2.7246 H       
  55 H55           -5.3331   -12.1296    -2.5418 H       
  56 H56           -7.1356    -2.6566     0.4447 H       
  57 H57           -8.4403    -2.8542     2.5202 H       
  58 H58           -5.0929    -4.7476     4.4204 H       
  59 H59           -3.8081    -4.5449     2.3330 H       
  60 H60           -8.1913    -3.5895     7.4519 H       
  61 H61           -8.7915    -5.1798     6.9239 H       
  62 H62           -7.3328    -5.0710     7.9380 H       
@<TRIPOS>BOND
   1    1    2 2
   2    1   37 1
   3    1   38 1
   4    2    3 1
   5    2   39 1
   6    3    4 2
   7    3    5 1
   8    5    6 1
   9    6    7 2
  10    6   13 1
  11    7    8 1
  12    7   11 1
  13    8    9 2
  14    8   10 1
  15   10   40 1
  16   10   41 1
  17   10   42 1
  18   11   12 1
  19   11   27 1
  20   11   43 1
  21   12   13 am
  22   12   15 1
  23   13   14 2
  24   15   16 1
  25   15   44 1
  26   15   45 1
  27   16   17 1
  28   16   46 1
  29   16   47 1
  30   17   18 2
  31   17   22 1
  32   18   19 1
  33   18   20 1
  34   19   48 1
  35   19   49 1
  36   19   50 1
  37   20   21 1
  38   20   51 1
  39   21   22 ar
  40   21   26 ar
  41   22   23 ar
  42   23   24 ar
  43   23   52 1
  44   24   25 ar
  45   24   53 1
  46   25   26 ar
  47   25   54 1
  48   26   55 1
  49   27   28 ar
  50   27   32 ar
  51   28   29 ar
  52   28   56 1
  53   29   30 ar
  54   29   57 1
  55   30   31 ar
  56   30   33 1
  57   31   32 ar
  58   31   58 1
  59   32   59 1
  60   33   34 2
  61   33   35 1
  62   35   36 1
  63   36   60 1
  64   36   61 1
  65   36   62 1

#	End of record

