#	Name: ASD11060002
#	Creating user name:	WinNT
#	Creation time:	15. 06. 2019 21:29

#	Modifying user name:	WinNT
#	Modification time:	15. 06. 2019 21:29

#	Program:	/corina/corina34_cracker 3.40 0067  02.08.2006

@<TRIPOS>MOLECULE
ASD11060002
  51   54    0    0    0
SMALL
NO_CHARGES


@<TRIPOS>ATOM
   1 N1             0.0902     1.2261    -0.2753 N.pl3   
   2 C2             0.3080    -0.0955    -0.6567 C.ar    
   3 C3             1.4604    -0.7853    -0.2913 C.ar    
   4 S4             2.7078    -0.0036     0.6739 S.3     
   5 C5             2.3469     1.7106     0.4975 C.ar    
   6 C6             1.0988     2.1309     0.0471 C.ar    
   7 C7            -0.6571    -0.7387    -1.4238 C.ar    
   8 C8            -0.4765    -2.0517    -1.8164 C.ar    
   9 C9             0.6666    -2.7352    -1.4490 C.ar    
  10 C10            1.6341    -2.1043    -0.6886 C.ar    
  11 C11            0.8427     3.4908    -0.0857 C.ar    
  12 C12            3.3234     2.6455     0.8126 C.ar    
  13 C13            3.0646     3.9969     0.6808 C.ar    
  14 C14            1.8225     4.4223     0.2297 C.ar    
  15 C15           -1.2950     1.6990    -0.2147 C.3     
  16 C16           -1.6884     2.2995    -1.5658 C.3     
  17 C17           -3.0891     2.9069    -1.4656 C.3     
  18 C18           -5.8259     3.1086    -2.3924 C.3     
  19 C19           -4.7637     4.1733    -2.6757 C.3     
  20 N20           -3.4403     3.5405    -2.7429 N.3     
  21 C21           -4.1013     1.8044    -1.1462 C.3     
  22 C22           -5.5039     2.4134    -1.0667 C.3     
  23 C23           -2.4137     4.5092    -3.1499 C.3     
  24 S24            1.4893     6.1441     0.0588 S.3     
  25 C25            3.0458     6.9148     0.5821 C.3     
  26 H26           -1.5528    -0.2097    -1.7141 H       
  27 H27           -1.2309    -2.5446    -2.4117 H       
  28 H28            0.8046    -3.7615    -1.7556 H       
  29 H29            2.5276    -2.6393    -0.4027 H       
  30 H30           -0.1229     3.8242    -0.4363 H       
  31 H31            4.2902     2.3154     1.1628 H       
  32 H32            3.8276     4.7205     0.9272 H       
  33 H33           -1.9546     0.8627     0.0171 H       
  34 H34           -1.3859     2.4592     0.5611 H       
  35 H35           -0.9744     3.0762    -1.8400 H       
  36 H36           -1.6848     1.5180    -2.3257 H       
  37 H37           -3.1047     3.6549    -0.6729 H       
  38 H38           -6.8061     3.5808    -2.3271 H       
  39 H39           -5.8283     2.3737    -3.1975 H       
  40 H40           -4.9821     4.6604    -3.6260 H       
  41 H41           -4.7713     4.9153    -1.8772 H       
  42 H42           -4.0766     1.0490    -1.9317 H       
  43 H43           -3.8494     1.3448    -0.1905 H       
  44 H44           -5.5397     3.1409    -0.2558 H       
  45 H45           -6.2335     1.6248    -0.8823 H       
  46 H46           -2.3189     5.2808    -2.3858 H       
  47 H47           -1.4587     3.9976    -3.2700 H       
  48 H48           -2.7016     4.9680    -4.0958 H       
  49 H49            3.2640     6.6305     1.6115 H       
  50 H50            3.8542     6.5781    -0.0670 H       
  51 H51            2.9545     7.9990     0.5161 H       
@<TRIPOS>BOND
   1    1    2 1
   2    1    6 1
   3    1   15 1
   4    2    3 ar
   5    2    7 ar
   6    3    4 1
   7    3   10 ar
   8    4    5 1
   9    5   12 ar
  10    5    6 ar
  11    6   11 ar
  12    7    8 ar
  13    7   26 1
  14    8    9 ar
  15    8   27 1
  16    9   10 ar
  17    9   28 1
  18   10   29 1
  19   11   14 ar
  20   11   30 1
  21   12   13 ar
  22   12   31 1
  23   13   14 ar
  24   13   32 1
  25   14   24 1
  26   15   16 1
  27   15   33 1
  28   15   34 1
  29   16   17 1
  30   16   35 1
  31   16   36 1
  32   17   21 1
  33   17   20 1
  34   17   37 1
  35   18   19 1
  36   18   22 1
  37   18   38 1
  38   18   39 1
  39   19   20 1
  40   19   40 1
  41   19   41 1
  42   20   23 1
  43   21   22 1
  44   21   42 1
  45   21   43 1
  46   22   44 1
  47   22   45 1
  48   23   46 1
  49   23   47 1
  50   23   48 1
  51   24   25 1
  52   25   49 1
  53   25   50 1
  54   25   51 1

#	End of record

