#	Name: ASD10220113
#	Creating user name:	WinNT
#	Creation time:	15. 06. 2019 21:26

#	Modifying user name:	WinNT
#	Modification time:	15. 06. 2019 21:26

#	Program:	/corina/corina34_cracker 3.40 0067  02.08.2006

@<TRIPOS>MOLECULE
ASD10220113
  45   48    0    0    0
SMALL
NO_CHARGES


@<TRIPOS>ATOM
   1 C1            -0.2390     0.9947     0.0027 C.2     
   2 C2            -0.5083    -0.1816    -0.8545 C.ar    
   3 C3            -1.8383    -0.6077    -1.0759 C.ar    
   4 C4            -2.9380     0.1640    -0.4698 C.2     
   5 C5            -2.7074     1.4061     0.1322 C.2     
   6 C6            -1.3649     1.9881     0.1948 C.2     
   7 O7            -4.2380    -0.1019    -0.3660 O.3     
   8 C8            -4.8905     0.8861     0.2653 C.2     
   9 C9            -4.0042     1.8704     0.6113 C.2     
  10 C10           -4.2976     3.1291     1.3160 C.2     
  11 O11           -3.4233     3.9625     1.4622 O.2     
  12 C12           -5.6522     3.3801     1.8451 C.ar    
  13 C13           -6.4571     2.3097     2.2450 C.ar    
  14 O14            0.8400     1.1538     0.5344 O.2     
  15 O15           -1.1691     3.1728     0.3769 O.2     
  16 C16            0.5415    -0.8792    -1.4466 C.ar    
  17 C17            0.2760    -1.9866    -2.2324 C.ar    
  18 C18           -1.0252    -2.4102    -2.4354 C.ar    
  19 C19           -2.0842    -1.7264    -1.8607 C.ar    
  20 C20           -6.1304     4.6891     1.9526 C.ar    
  21 C21           -7.3994     4.9213     2.4484 C.ar    
  22 C22           -8.2015     3.8525     2.8407 C.ar    
  23 C23           -7.7253     2.5476     2.7401 C.ar    
  24 O24           -8.5111     1.5061     3.1240 O.3     
  25 C25           -7.9592     0.1944     2.9936 C.3     
  26 O26           -9.4487     4.0836     3.3279 O.3     
  27 C27          -10.5189     4.1173     2.3815 C.3     
  28 O28           -7.8651     6.1947     2.5537 O.3     
  29 C29           -6.9892     7.2427     2.1335 C.3     
  30 H30           -5.9509     0.9023     0.4691 H       
  31 H31           -6.0885     1.2976     2.1668 H       
  32 H32            1.5606    -0.5564    -1.2929 H       
  33 H33            1.0918    -2.5249    -2.6918 H       
  34 H34           -1.2168    -3.2799    -3.0464 H       
  35 H35           -3.0978    -2.0623    -2.0227 H       
  36 H36           -5.5087     5.5183     1.6489 H       
  37 H37           -7.0559     0.1185     3.5989 H       
  38 H38           -8.6875    -0.5417     3.3339 H       
  39 H39           -7.7132     0.0060     1.9486 H       
  40 H40          -10.3367     4.9094     1.6552 H       
  41 H41          -10.5787     3.1587     1.8663 H       
  42 H42          -11.4575     4.3097     2.9011 H       
  43 H43           -7.4824     8.2051     2.2700 H       
  44 H44           -6.0768     7.2143     2.7292 H       
  45 H45           -6.7403     7.1080     1.0809 H       
@<TRIPOS>BOND
   1    1    2 1
   2    1   14 2
   3    1    6 1
   4    2    3 ar
   5    2   16 ar
   6    3    4 1
   7    3   19 ar
   8    4    5 2
   9    4    7 1
  10    5    6 1
  11    5    9 1
  12    6   15 2
  13    7    8 1
  14    8    9 2
  15    8   30 1
  16    9   10 1
  17   10   11 2
  18   10   12 1
  19   12   20 ar
  20   12   13 ar
  21   13   23 ar
  22   13   31 1
  23   16   17 ar
  24   16   32 1
  25   17   18 ar
  26   17   33 1
  27   18   19 ar
  28   18   34 1
  29   19   35 1
  30   20   21 ar
  31   20   36 1
  32   21   22 ar
  33   21   28 1
  34   22   23 ar
  35   22   26 1
  36   23   24 1
  37   24   25 1
  38   25   37 1
  39   25   38 1
  40   25   39 1
  41   26   27 1
  42   27   40 1
  43   27   41 1
  44   27   42 1
  45   28   29 1
  46   29   43 1
  47   29   44 1
  48   29   45 1

#	End of record

