#	Name: ASD13410014
#	Creating user name:	WinNT
#	Creation time:	15. 06. 2019 21:30

#	Modifying user name:	WinNT
#	Modification time:	15. 06. 2019 21:30

#	Program:	/corina/corina34_cracker 3.40 0067  02.08.2006

@<TRIPOS>MOLECULE
ASD13410014
  76   79    0    0    0
SMALL
NO_CHARGES


@<TRIPOS>ATOM
   1 C1             0.3154     1.1395    -0.2411 C.3     
   2 O2             0.2369    -0.2867    -0.1969 O.3     
   3 C3            -1.0980    -0.7939    -0.1436 C.3     
   4 C4            -1.0612    -2.3228    -0.0997 C.3     
   5 O5            -0.4357    -2.7566     1.1368 O.3     
   6 C6            -0.3245    -4.0848     1.3327 C.2     
   7 O7            -0.7387    -4.8593     0.4936 O.2     
   8 C8             0.3012    -4.5993     2.5681 C.ar    
   9 C9             0.7731    -3.7119     3.5373 C.ar    
  10 C10            1.3564    -4.1992     4.6885 C.ar    
  11 C11            1.4742    -5.5639     4.8839 C.ar    
  12 C12            2.1120    -6.0888     6.1443 C.3     
  13 C13            1.0378    -6.2854     7.2159 C.3     
  14 C14            0.0655    -7.3788     6.7686 C.3     
  15 S15           -1.2869    -7.5096     7.9645 S.3     
  16 C16           -2.2268    -8.8027     7.2233 C.2     
  17 S17           -1.6979    -9.5139     5.7586 S.2     
  18 C18           -3.4703    -9.2728     7.8654 C.ar    
  19 C19           -4.2981    -8.3699     8.5358 C.ar    
  20 C20           -5.4588    -8.8159     9.1331 C.ar    
  21 C21           -5.8032   -10.1545     9.0695 C.ar    
  22 C22           -4.9873   -11.0546     8.4073 C.ar    
  23 C23           -3.8269   -10.6213     7.8002 C.ar    
  24 C24            1.6898    -6.6925     8.5121 C.2     
  25 O25            2.8905    -6.8130     8.5727 O.2     
  26 O26            0.9362    -6.9214     9.6000 O.3     
  27 C27            1.5746    -7.3808    10.7063 C.ar    
  28 C28            1.5974    -8.7389    10.9828 C.ar    
  29 C29            2.2472    -9.2058    12.1088 C.ar    
  30 C30            2.8805    -8.3228    12.9689 C.ar    
  31 Cl31           3.6938    -8.9239    14.3800 Cl      
  32 C32            2.8677    -6.9681    12.7081 C.ar    
  33 C33            2.2182    -6.4845    11.5704 C.ar    
  34 C34            2.2048    -5.0374    11.2825 C.2     
  35 O35            1.6343    -4.6195    10.2933 O.2     
  36 N36            2.8249    -4.1787    12.1160 N.am    
  37 C37            2.8742    -2.8154    11.8060 C.ar    
  38 C38            1.8124    -2.2135    11.1444 C.ar    
  39 C39            1.8640    -0.8670    10.8396 C.ar    
  40 C40            2.9716    -0.1184    11.1920 C.ar    
  41 C41            4.0316    -0.7140    11.8512 C.ar    
  42 C42            3.9840    -2.0590    12.1646 C.ar    
  43 Cl43           5.3113    -2.8047    12.9989 Cl      
  44 N44            3.0234     1.3238    10.8627 N.pl3   
  45 O45            2.0909     1.8497    10.2819 O.2     
  46 O46            3.9985     1.9846    11.1725 O.2     
  47 C47            1.0086    -6.4489     3.9276 C.ar    
  48 C48            0.4181    -5.9753     2.7744 C.ar    
  49 H49            1.3611     1.4448    -0.2802 H       
  50 H50           -0.2030     1.5046    -1.1276 H       
  51 H51           -0.1518     1.5569     0.6508 H       
  52 H52           -1.5946    -0.4166     0.7504 H       
  53 H53           -1.6458    -0.4689    -1.0281 H       
  54 H54           -2.0781    -2.7123    -0.1486 H       
  55 H55           -0.4877    -2.6970    -0.9477 H       
  56 H56            0.6821    -2.6465     3.3858 H       
  57 H57            1.7222    -3.5139     5.4388 H       
  58 H58            2.5966    -7.0428     5.9363 H       
  59 H59            2.8542    -5.3744     6.5007 H       
  60 H60            0.4935    -5.3521     7.3603 H       
  61 H61           -0.3393    -7.1264     5.7886 H       
  62 H62            0.5920    -8.3314     6.7099 H       
  63 H63           -4.0301    -7.3249     8.5868 H       
  64 H64           -6.1000    -8.1187     9.6519 H       
  65 H65           -6.7128   -10.4984     9.5392 H       
  66 H66           -5.2619   -12.0981     8.3617 H       
  67 H67           -3.1934   -11.3241     7.2795 H       
  68 H68            1.1061    -9.4331    10.3171 H       
  69 H69            2.2616   -10.2648    12.3202 H       
  70 H70            3.3620    -6.2830    13.3810 H       
  71 H71            3.2370    -4.5060    12.9308 H       
  72 H72            0.9469    -2.7974    10.8680 H       
  73 H73            1.0381    -0.3985    10.3250 H       
  74 H74            4.8956    -0.1266    12.1247 H       
  75 H75            1.1037    -7.5129     4.0864 H       
  76 H76            0.0510    -6.6672     2.0307 H       
@<TRIPOS>BOND
   1    1    2 1
   2    1   49 1
   3    1   50 1
   4    1   51 1
   5    2    3 1
   6    3    4 1
   7    3   52 1
   8    3   53 1
   9    4    5 1
  10    4   54 1
  11    4   55 1
  12    5    6 1
  13    6    7 2
  14    6    8 1
  15    8   48 ar
  16    8    9 ar
  17    9   10 ar
  18    9   56 1
  19   10   11 ar
  20   10   57 1
  21   11   12 1
  22   11   47 ar
  23   12   13 1
  24   12   58 1
  25   12   59 1
  26   13   14 1
  27   13   24 1
  28   13   60 1
  29   14   15 1
  30   14   61 1
  31   14   62 1
  32   15   16 1
  33   16   17 2
  34   16   18 1
  35   18   23 ar
  36   18   19 ar
  37   19   20 ar
  38   19   63 1
  39   20   21 ar
  40   20   64 1
  41   21   22 ar
  42   21   65 1
  43   22   23 ar
  44   22   66 1
  45   23   67 1
  46   24   25 2
  47   24   26 1
  48   26   27 1
  49   27   33 ar
  50   27   28 ar
  51   28   29 ar
  52   28   68 1
  53   29   30 ar
  54   29   69 1
  55   30   31 1
  56   30   32 ar
  57   32   33 ar
  58   32   70 1
  59   33   34 1
  60   34   35 2
  61   34   36 am
  62   36   37 1
  63   36   71 1
  64   37   42 ar
  65   37   38 ar
  66   38   39 ar
  67   38   72 1
  68   39   40 ar
  69   39   73 1
  70   40   41 ar
  71   40   44 1
  72   41   42 ar
  73   41   74 1
  74   42   43 1
  75   44   45 2
  76   44   46 2
  77   47   48 ar
  78   47   75 1
  79   48   76 1

#	End of record

