#	Name: ASD11170001
#	Creating user name:	WinNT
#	Creation time:	15. 06. 2019 21:29

#	Modifying user name:	WinNT
#	Modification time:	15. 06. 2019 21:29

#	Program:	/corina/corina34_cracker 3.40 0067  02.08.2006

@<TRIPOS>MOLECULE
ASD11170001
  47   49    0    0    0
SMALL
NO_CHARGES


@<TRIPOS>ATOM
   1 C1            -0.0159     1.3250     0.0093 C.ar    
   2 N2             0.0021    -0.0041     0.0020 N.ar    
   3 C3             1.1434    -0.6595    -0.0124 C.ar    
   4 N4             2.3131    -0.0461    -0.0203 N.ar    
   5 C5             2.3946     1.2802    -0.0139 C.ar    
   6 N6            -1.0005     2.2804     0.0184 N.pl3   
   7 C7             1.2024     2.0244     0.0014 C.ar    
   8 N8             0.9043     3.3458     0.0110 N.2     
   9 C9            -0.3881     3.4983     0.0221 C.2     
  10 N10            3.6248     1.9139    -0.0219 N.pl3   
  11 C11           -2.4451     2.0366     0.0229 C.3     
  12 C12           -4.5037     3.0950     0.0891 C.3     
  13 O13           -3.1607     3.2137    -0.4094 O.3     
  14 C14           -2.9564     1.8132     1.4689 C.3     
  15 C15           -4.4477     2.2119     1.3507 C.3     
  16 C16           -5.0501     4.4787     0.4464 C.3     
  17 O17           -5.1923     5.2567    -0.7438 O.3     
  18 P18           -5.7435     6.7693    -0.7420 P.3     
  19 O19           -4.9281     7.5905     0.1806 O.2     
  20 O20           -5.6469     7.3775    -2.2296 O.3     
  21 O21           -7.2785     6.7806    -0.2563 O.3     
  22 P22           -5.6332     8.8720    -2.8282 P.3     
  23 O23           -6.6037     9.7089    -2.0878 O.2     
  24 O24           -4.1578     9.4981    -2.6747 O.3     
  25 O25           -6.0390     8.8301    -4.3856 O.3     
  26 P26           -6.4997     9.9452    -5.4517 P.3     
  27 O27           -5.6251    11.1331    -5.3321 O.2     
  28 O28           -6.3866     9.3432    -6.9407 O.3     
  29 O29           -8.0248    10.3698    -5.1590 O.3     
  30 O30           -5.2642     1.0509     1.1853 O.3     
  31 O31           -2.8237     0.4426     1.8507 O.3     
  32 H32            1.1227    -1.7392    -0.0176 H       
  33 H33           -0.8999     4.4493     0.0286 H       
  34 H34            4.4406     1.3893    -0.0321 H       
  35 H35            3.6713     2.8828    -0.0171 H       
  36 H36           -2.6908     1.1819    -0.6075 H       
  37 H37           -5.1383     2.6267    -0.6632 H       
  38 H38           -2.4344     2.4635     2.1709 H       
  39 H39           -4.7617     2.7786     2.2273 H       
  40 H40           -6.0216     4.3722     0.9291 H       
  41 H41           -4.3595     4.9776     1.1263 H       
  42 H42           -7.8719     6.2613    -0.8159 H       
  43 H43           -3.4692     8.9997    -3.1357 H       
  44 H44           -6.6490     9.9618    -7.6360 H       
  45 H45           -8.6552     9.6391    -5.2200 H       
  46 H46           -5.2660     0.4591     1.9500 H       
  47 H47           -3.1306     0.2528     2.7479 H       
@<TRIPOS>BOND
   1    1    2 ar
   2    1    7 ar
   3    1    6 1
   4    2    3 ar
   5    3    4 ar
   6    3   32 1
   7    4    5 ar
   8    5    7 ar
   9    5   10 1
  10    6    9 1
  11    6   11 1
  12    7    8 1
  13    8    9 2
  14    9   33 1
  15   10   34 1
  16   10   35 1
  17   11   14 1
  18   11   13 1
  19   11   36 1
  20   12   13 1
  21   12   15 1
  22   12   16 1
  23   12   37 1
  24   14   15 1
  25   14   31 1
  26   14   38 1
  27   15   30 1
  28   15   39 1
  29   16   17 1
  30   16   40 1
  31   16   41 1
  32   17   18 1
  33   18   19 2
  34   18   20 1
  35   18   21 1
  36   20   22 1
  37   21   42 1
  38   22   23 2
  39   22   24 1
  40   22   25 1
  41   24   43 1
  42   25   26 1
  43   26   27 2
  44   26   28 1
  45   26   29 1
  46   28   44 1
  47   29   45 1
  48   30   46 1
  49   31   47 1

#	End of record

