#	Name: ASD15500001
#	Creating user name:	WinNT
#	Creation time:	15. 06. 2019 21:31

#	Modifying user name:	WinNT
#	Modification time:	15. 06. 2019 21:31

#	Program:	/corina/corina34_cracker 3.40 0067  02.08.2006

@<TRIPOS>MOLECULE
ASD15500001
  50   52    0    0    0
SMALL
NO_CHARGES


@<TRIPOS>ATOM
   1 C1            -0.1908     1.2577     0.1453 C.2     
   2 C2             0.5685     0.8990    -0.9097 C.2     
   3 C3             1.6584     0.1144    -0.5952 C.2     
   4 C4             1.7955    -0.1701     0.7033 C.2     
   5 S5             0.4922     0.5780     1.6168 S.3     
   6 C6            -1.4051     2.0970     0.0767 C.2     
   7 C7             0.2510     1.3216    -2.3209 C.3     
   8 C8            -2.6076     1.5257    -0.1114 C.2     
   9 C9            -1.2978     3.5644     0.2148 C.2     
  10 C10           -0.1435     4.2562     0.2995 C.2     
  11 C11           -0.2973     5.6213     0.4236 C.2     
  12 C12           -1.5633     6.0492     0.4408 C.2     
  13 S13           -2.6559     4.6799     0.2867 S.3     
  14 C14           -2.7064     0.0428    -0.3614 C.3     
  15 C15           -3.6502    -0.5857     0.6658 C.3     
  16 N16           -3.6623    -2.0443     0.4916 N.3     
  17 C17           -2.4100    -2.6421     0.9721 C.3     
  18 C18           -2.3975    -4.1367     0.6433 C.3     
  19 C19           -3.5974    -4.8118     1.3135 C.3     
  20 C20           -4.8860    -4.1387     0.8328 C.3     
  21 C21           -4.8263    -2.6441     1.1561 C.3     
  22 C22           -6.0683    -4.7581     1.5324 C.2     
  23 O23           -6.3176    -6.0699     1.3955 O.3     
  24 O24           -6.7919    -4.0738     2.2166 O.2     
  25 C25            1.2080     3.5904     0.2621 C.3     
  26 H26            2.3499    -0.2441    -1.3434 H       
  27 H27            2.5874    -0.7694     1.1278 H       
  28 H28            0.6707     2.3102    -2.5073 H       
  29 H29            0.6828     0.6058    -3.0204 H       
  30 H30           -0.8301     1.3546    -2.4559 H       
  31 H31           -3.5027     2.1294    -0.0834 H       
  32 H32            0.5434     6.2948     0.5013 H       
  33 H33           -1.8692     7.0810     0.5312 H       
  34 H34           -3.0939    -0.1314    -1.3652 H       
  35 H35           -1.7181    -0.4077    -0.2701 H       
  36 H36           -3.3067    -0.3428     1.6713 H       
  37 H37           -4.6572    -0.1942     0.5214 H       
  38 H38           -1.5650    -2.1559     0.4847 H       
  39 H39           -2.3337    -2.5070     2.0510 H       
  40 H40           -2.4599    -4.2723    -0.4364 H       
  41 H41           -1.4749    -4.5832     1.0140 H       
  42 H42           -3.6168    -5.8684     1.0465 H       
  43 H43           -3.5151    -4.7100     2.3956 H       
  44 H44           -4.9875    -4.2744    -0.2440 H       
  45 H45           -4.7386    -2.5090     2.2341 H       
  46 H46           -5.7362    -2.1594     0.8023 H       
  47 H47           -7.0874    -6.4216     1.8634 H       
  48 H48            1.5040     3.4271    -0.7741 H       
  49 H49            1.9417     4.2298     0.7531 H       
  50 H50            1.1557     2.6329     0.7804 H       
@<TRIPOS>BOND
   1    1    2 2
   2    1    5 1
   3    1    6 1
   4    2    3 1
   5    2    7 1
   6    3    4 2
   7    3   26 1
   8    4    5 1
   9    4   27 1
  10    6    8 2
  11    6    9 1
  12    7   28 1
  13    7   29 1
  14    7   30 1
  15    8   14 1
  16    8   31 1
  17    9   10 2
  18    9   13 1
  19   10   11 1
  20   10   25 1
  21   11   12 2
  22   11   32 1
  23   12   13 1
  24   12   33 1
  25   14   15 1
  26   14   34 1
  27   14   35 1
  28   15   16 1
  29   15   36 1
  30   15   37 1
  31   16   17 1
  32   16   21 1
  33   17   18 1
  34   17   38 1
  35   17   39 1
  36   18   19 1
  37   18   40 1
  38   18   41 1
  39   19   20 1
  40   19   42 1
  41   19   43 1
  42   20   21 1
  43   20   22 1
  44   20   44 1
  45   21   45 1
  46   21   46 1
  47   22   23 1
  48   22   24 2
  49   23   47 1
  50   25   48 1
  51   25   49 1
  52   25   50 1

#	End of record

