#	Name: ASD11920054
#	Creating user name:	WinNT
#	Creation time:	15. 06. 2019 21:29

#	Modifying user name:	WinNT
#	Modification time:	15. 06. 2019 21:29

#	Program:	/corina/corina34_cracker 3.40 0067  02.08.2006

@<TRIPOS>MOLECULE
ASD11920054
  63   64    0    0    0
SMALL
NO_CHARGES


@<TRIPOS>ATOM
   1 C1            -0.0168     1.3907     0.0097 C.ar    
   2 O2             1.2509    -2.0398    -0.0204 O.3     
   3 C3             0.0021    -0.0041     0.0020 C.ar    
   4 O4             3.1212     6.4593    -4.4128 O.3     
   5 C5             1.2270    -0.6859    -0.0134 C.ar    
   6 O6            -2.4895     9.5548     1.6645 O.3     
   7 C7             2.4270     0.0389    -0.0210 C.ar    
   8 C8             2.3969     1.4327    -0.0132 C.ar    
   9 O9            -2.4404    -0.1033     0.0258 O.3     
  10 C10            1.1776     2.1052     0.0021 C.ar    
  11 C11           -1.2638    -0.7599     0.0106 C.2     
  12 O12           -0.9353     6.7353    -3.4928 O.3     
  13 C13            1.1517     3.5881     0.0099 C.2     
  14 C14            0.6602     4.2431     1.0682 C.2     
  15 C15            2.6473     5.7687    -3.3488 C.ar    
  16 C16            3.5153     4.9844    -2.5762 C.ar    
  17 C17            3.0224     4.2753    -1.4816 C.ar    
  18 C18            1.6705     4.3449    -1.1552 C.ar    
  19 C19            0.8043     5.1220    -1.9190 C.ar    
  20 C20            1.2882     5.8400    -3.0126 C.ar    
  21 C21            0.3708     6.6676    -3.8171 C.2     
  22 C22            0.6338     5.7498     1.0761 C.3     
  23 C23           -0.7931     6.2336     1.3424 C.3     
  24 C24           -0.8199     7.7633     1.3504 C.3     
  25 C25           -2.2253     8.2397     1.6127 C.2     
  26 C26           -3.8654     9.9411     1.9211 C.3     
  27 C27            1.2499    -2.6820    -1.2970 C.3     
  28 C28            3.1149     5.7902    -5.6755 C.3     
  29 C29           -3.6464    -0.9119     0.0335 C.3     
  30 C30           -1.7797     7.5695    -4.3291 C.3     
  31 O31           -1.2460    -1.9748     0.0039 O.2     
  32 O32            0.7926     7.2886    -4.7725 O.2     
  33 O33           -3.1143     7.4380     1.7765 O.2     
  34 N34            4.6769    -1.1988    -0.0484 N.1     
  35 N35            6.0088     4.8536    -3.1764 N.1     
  36 C36            3.6816    -0.6513    -0.0363 C.1     
  37 C37            4.9057     4.9114    -2.9109 C.1     
  38 H38           -0.9599     1.9170     0.0170 H       
  39 H39            3.3209     1.9919    -0.0187 H       
  40 H40            0.2823     3.6920     1.9166 H       
  41 H41            3.6904     3.6709    -0.8858 H       
  42 H42           -0.2434     5.1727    -1.6617 H       
  43 H43            1.2952     6.1207     1.8590 H       
  44 H44            0.9698     6.1242     0.1091 H       
  45 H45           -1.4546     5.8627     0.5594 H       
  46 H46           -1.1291     5.8592     2.3094 H       
  47 H47           -0.1584     8.1342     2.1334 H       
  48 H48           -0.4839     8.1376     0.3834 H       
  49 H49           -4.5071     9.5442     1.1344 H       
  50 H50           -4.1816     9.5407     2.8844 H       
  51 H51           -3.9406    11.0284     1.9373 H       
  52 H52            2.1291    -2.3706    -1.8611 H       
  53 H53            1.2704    -3.7631    -1.1598 H       
  54 H54            0.3495    -2.4021    -1.8438 H       
  55 H55            3.7279     4.8911    -5.6134 H       
  56 H56            2.0927     5.5157    -5.9361 H       
  57 H57            3.5191     6.4535    -6.4402 H       
  58 H58           -4.5204    -0.2607     0.0457 H       
  59 H59           -3.6709    -1.5362    -0.8596 H       
  60 H60           -3.6532    -1.5458     0.9202 H       
  61 H61           -2.8045     7.5353    -3.9593 H       
  62 H62           -1.4173     8.5971    -4.3009 H       
  63 H63           -1.7513     7.2022    -5.3550 H       
@<TRIPOS>BOND
   1    1    3 ar
   2    1   10 ar
   3    1   38 1
   4    2    5 1
   5    2   27 1
   6    3    5 ar
   7    3   11 1
   8    4   15 1
   9    4   28 1
  10    5    7 ar
  11    6   25 1
  12    6   26 1
  13    7    8 ar
  14    7   36 1
  15    8   10 ar
  16    8   39 1
  17    9   11 1
  18    9   29 1
  19   10   13 1
  20   11   31 2
  21   12   21 1
  22   12   30 1
  23   13   14 2
  24   13   18 1
  25   14   22 1
  26   14   40 1
  27   15   16 ar
  28   15   20 ar
  29   16   17 ar
  30   16   37 1
  31   17   18 ar
  32   17   41 1
  33   18   19 ar
  34   19   20 ar
  35   19   42 1
  36   20   21 1
  37   21   32 2
  38   22   23 1
  39   22   43 1
  40   22   44 1
  41   23   24 1
  42   23   45 1
  43   23   46 1
  44   24   25 1
  45   24   47 1
  46   24   48 1
  47   25   33 2
  48   26   49 1
  49   26   50 1
  50   26   51 1
  51   27   52 1
  52   27   53 1
  53   27   54 1
  54   28   55 1
  55   28   56 1
  56   28   57 1
  57   29   58 1
  58   29   59 1
  59   29   60 1
  60   30   61 1
  61   30   62 1
  62   30   63 1
  63   34   36 3
  64   35   37 3

#	End of record

