#	Name: ASD10410280
#	Creating user name:	WinNT
#	Creation time:	15. 06. 2019 21:27

#	Modifying user name:	WinNT
#	Modification time:	15. 06. 2019 21:27

#	Program:	/corina/corina34_cracker 3.40 0067  02.08.2006

@<TRIPOS>MOLECULE
ASD10410280
  79   85    0    0    0
SMALL
NO_CHARGES


@<TRIPOS>ATOM
   1 C1             0.0454     1.2964     0.5246 C.ar    
   2 C2            -0.0007     0.0008     0.0246 C.ar    
   3 C3             1.1421    -0.5782    -0.4828 C.ar    
   4 C4             2.3290     0.1399    -0.4993 C.ar    
   5 C5             2.3753     1.4339    -0.0033 C.ar    
   6 C6             1.2229     2.0126     0.5130 C.ar    
   7 N7             3.5742     2.1515    -0.0226 N.pl3   
   8 C8             3.5528     3.5430    -0.1233 C.2     
   9 N9             4.6009     4.3280    -0.0500 N.2     
  10 N10            2.4604     4.2913    -0.3159 N.2     
  11 C11            2.7970     5.5626    -0.3628 C.2     
  12 N12            4.1378     5.6450    -0.2002 N.pl3   
  13 N13            1.9336     6.6260    -0.5485 N.pl3   
  14 C14            4.9096     6.8112    -0.1848 C.ar    
  15 C15           -1.3260    -0.7148     0.0557 C.3     
  16 C16           -1.1280    -2.2202    -0.1082 C.3     
  17 C17           -0.2490    -2.4619    -1.3409 C.3     
  18 C18            1.1666    -1.9837    -1.0245 C.3     
  19 N19           -0.2272    -3.8918    -1.6587 N.am    
  20 C20            6.1252     6.8125     0.4843 C.ar    
  21 N21            4.4654     7.8945    -0.8166 N.ar    
  22 C22            5.1612     8.9945    -0.8204 C.ar    
  23 C23            6.3936     9.0850    -0.1663 C.ar    
  24 C24            6.9003     7.9798     0.5014 C.ar    
  25 C25            4.7624    10.2899    -1.5034 C.3     
  26 C26            4.7653    11.3725    -0.4046 C.3     
  27 C27            6.1173    11.3649     0.3123 C.3     
  28 N28            7.0053    10.3393    -0.2695 N.3     
  29 C29            7.2364    10.6537    -1.6931 C.3     
  30 C30            5.9157    10.6403    -2.4660 C.3     
  31 C31            8.2031     8.0329     1.2078 C.ar    
  32 C32            8.3037     7.5867     2.5244 C.ar    
  33 C33            9.5189     7.6381     3.1767 C.ar    
  34 C34           10.6356     8.1317     2.5264 C.ar    
  35 C35           10.5415     8.5763     1.2199 C.ar    
  36 C36            9.3329     8.5239     0.5557 C.ar    
  37 C37            0.0281    -4.2984    -2.9181 C.2     
  38 O38            0.2398    -3.4805    -3.7882 O.2     
  39 C39            0.0504    -5.7693    -3.2450 C.3     
  40 N40            0.3487    -5.9493    -4.6721 N.3     
  41 C41            1.7120    -5.5008    -4.9856 C.3     
  42 C42            0.1471    -7.3460    -5.0800 C.3     
  43 H43           -0.8514     1.7482     0.9223 H       
  44 H44            3.2236    -0.3125    -0.9012 H       
  45 H45            1.2495     3.0191     0.9037 H       
  46 H46            4.4212     1.6822     0.0341 H       
  47 H47            0.9832     6.4656    -0.6583 H       
  48 H48            2.2780     7.5325    -0.5689 H       
  49 H49           -1.8180    -0.5187     1.0084 H       
  50 H50           -1.9535    -0.3445    -0.7550 H       
  51 H51           -0.6374    -2.6244     0.7773 H       
  52 H52           -2.0946    -2.7047    -0.2461 H       
  53 H53           -0.6443    -1.9028    -2.1890 H       
  54 H54            1.7660    -2.0077    -1.9346 H       
  55 H55            1.6128    -2.6469    -0.2834 H       
  56 H56           -0.3966    -4.5460    -0.9628 H       
  57 H57            6.4707     5.9217     0.9879 H       
  58 H58            3.7984    10.2132    -2.0063 H       
  59 H59            4.5991    12.3502    -0.8569 H       
  60 H60            3.9720    11.1641     0.3133 H       
  61 H61            6.5840    12.3446     0.2103 H       
  62 H62            5.9627    11.1491     1.3695 H       
  63 H63            7.6915    11.6408    -1.7747 H       
  64 H64            7.9116     9.9126    -2.1207 H       
  65 H65            5.9663     9.8945    -3.2593 H       
  66 H66            5.7395    11.6237    -2.9018 H       
  67 H67            7.4324     7.2018     3.0333 H       
  68 H68            9.5980     7.2926     4.1969 H       
  69 H69           11.5844     8.1704     3.0408 H       
  70 H70           11.4166     8.9610     0.7172 H       
  71 H71            9.2606     8.8713    -0.4643 H       
  72 H72            0.8179    -6.2625    -2.6484 H       
  73 H73           -0.9222    -6.2066    -3.0192 H       
  74 H74            2.4281    -6.0804    -4.4030 H       
  75 H75            1.9067    -5.6452    -6.0483 H       
  76 H76            1.8129    -4.4441    -4.7380 H       
  77 H77           -0.8897    -7.6308    -4.9011 H       
  78 H78            0.3750    -7.4512    -6.1408 H       
  79 H79            0.8066    -7.9925    -4.5009 H       
@<TRIPOS>BOND
   1    1    2 ar
   2    1    6 ar
   3    1   43 1
   4    2    3 ar
   5    2   15 1
   6    3    4 ar
   7    3   18 1
   8    4    5 ar
   9    4   44 1
  10    5    6 ar
  11    5    7 1
  12    6   45 1
  13    7    8 1
  14    7   46 1
  15    8    9 2
  16    8   10 1
  17    9   12 1
  18   10   11 2
  19   11   12 1
  20   11   13 1
  21   12   14 1
  22   13   47 1
  23   13   48 1
  24   14   20 ar
  25   14   21 ar
  26   15   16 1
  27   15   49 1
  28   15   50 1
  29   16   17 1
  30   16   51 1
  31   16   52 1
  32   17   18 1
  33   17   19 1
  34   17   53 1
  35   18   54 1
  36   18   55 1
  37   19   37 am
  38   19   56 1
  39   20   24 ar
  40   20   57 1
  41   21   22 ar
  42   22   23 ar
  43   22   25 1
  44   23   24 ar
  45   23   28 1
  46   24   31 1
  47   25   26 1
  48   25   30 1
  49   25   58 1
  50   26   27 1
  51   26   59 1
  52   26   60 1
  53   27   28 1
  54   27   61 1
  55   27   62 1
  56   28   29 1
  57   29   30 1
  58   29   63 1
  59   29   64 1
  60   30   65 1
  61   30   66 1
  62   31   32 ar
  63   31   36 ar
  64   32   33 ar
  65   32   67 1
  66   33   34 ar
  67   33   68 1
  68   34   35 ar
  69   34   69 1
  70   35   36 ar
  71   35   70 1
  72   36   71 1
  73   37   38 2
  74   37   39 1
  75   39   40 1
  76   39   72 1
  77   39   73 1
  78   40   41 1
  79   40   42 1
  80   41   74 1
  81   41   75 1
  82   41   76 1
  83   42   77 1
  84   42   78 1
  85   42   79 1

#	End of record

