#	Name: ASD11000350
#	Creating user name:	WinNT
#	Creation time:	15. 06. 2019 21:29

#	Modifying user name:	WinNT
#	Modification time:	15. 06. 2019 21:29

#	Program:	/corina/corina34_cracker 3.40 0067  02.08.2006

@<TRIPOS>MOLECULE
ASD11000350
  49   52    0    0    0
SMALL
NO_CHARGES


@<TRIPOS>ATOM
   1 F1            -4.2449   -14.3694    -3.8779 F       
   2 O2            -1.5364    -4.7208    -0.1039 O.2     
   3 O3            -4.6786    -6.0439    -0.4353 O.2     
   4 O4            -8.9978    -4.6199     0.5240 O.3     
   5 O5           -11.2080    -4.1012     0.4186 O.2     
   6 N6            -2.0178    -6.8309    -0.5945 N.am    
   7 N7            -4.1882    -3.8932    -0.1902 N.am    
   8 N8            -9.5940    -2.7200    -0.4028 N.am    
   9 C9            -1.2961    -9.0723    -2.1615 C.3     
  10 C10           -0.3292    -7.8976    -1.9965 C.3     
  11 C11           -2.7358    -8.5534    -2.1667 C.3     
  12 C12           -3.0320    -7.8677    -0.8292 C.3     
  13 C13           -0.5981    -7.2044    -0.6571 C.3     
  14 C14           -1.0075    -9.7883    -3.4825 C.3     
  15 C15           -1.8751   -11.0159    -3.5885 C.ar    
  16 C16           -2.3826    -5.5602    -0.3324 C.2     
  17 C17           -3.1243   -10.9304    -4.1743 C.ar    
  18 C18           -1.4187   -12.2280    -3.1049 C.ar    
  19 C19           -3.8280    -5.1852    -0.3231 C.2     
  20 C20           -3.9208   -12.0556    -4.2720 C.ar    
  21 C21           -2.2132   -13.3546    -3.2019 C.ar    
  22 C22           -3.4669   -13.2689    -3.7833 C.ar    
  23 C23           -5.5357    -3.5303    -0.2797 C.ar    
  24 C24           -6.5152    -4.3758     0.2217 C.ar    
  25 C25           -5.8911    -2.3229    -0.8713 C.ar    
  26 C26           -7.8496    -4.0147     0.1327 C.ar    
  27 C27           -8.2016    -2.8022    -0.4608 C.ar    
  28 C28           -7.2199    -1.9604    -0.9609 C.ar    
  29 C29          -10.0408    -3.8393     0.2005 C.2     
  30 H30           -1.1645    -9.7699    -1.3343 H       
  31 H31           -2.8614    -7.8370    -2.9785 H       
  32 H32           -3.4228    -9.3879    -2.3077 H       
  33 H33            0.6967    -8.2652    -2.0163 H       
  34 H34           -0.4775    -7.1874    -2.8099 H       
  35 H35            0.0190    -6.3094    -0.5785 H       
  36 H36           -0.3632    -7.8857     0.1607 H       
  37 H37           -2.9955    -8.6031    -0.0255 H       
  38 H38           -4.0208    -7.4103    -0.8642 H       
  39 H39           -1.2239    -9.1176    -4.3141 H       
  40 H40            0.0419   -10.0810    -3.5154 H       
  41 H41           -3.4781    -9.9839    -4.5555 H       
  42 H42           -0.4408   -12.2945    -2.6514 H       
  43 H43           -4.8970   -11.9884    -4.7291 H       
  44 H44           -1.8567   -14.3013    -2.8237 H       
  45 H45           -3.5127    -3.2152    -0.0325 H       
  46 H46           -6.2377    -5.3133     0.6805 H       
  47 H47           -5.1261    -1.6672    -1.2601 H       
  48 H48           -7.4946    -1.0221    -1.4197 H       
  49 H49          -10.1400    -1.9907    -0.7358 H       
@<TRIPOS>BOND
   1    1   22 1
   2    2   16 2
   3    3   19 2
   4    4   26 1
   5    4   29 1
   6    5   29 2
   7    6   12 1
   8    6   13 1
   9    6   16 am
  10    7   19 am
  11    7   23 1
  12    7   45 1
  13    8   27 1
  14    8   29 am
  15    8   49 1
  16    9   10 1
  17    9   11 1
  18    9   14 1
  19    9   30 1
  20   10   13 1
  21   10   33 1
  22   10   34 1
  23   11   12 1
  24   11   31 1
  25   11   32 1
  26   12   37 1
  27   12   38 1
  28   13   35 1
  29   13   36 1
  30   14   15 1
  31   14   39 1
  32   14   40 1
  33   15   17 ar
  34   15   18 ar
  35   16   19 1
  36   17   20 ar
  37   17   41 1
  38   18   21 ar
  39   18   42 1
  40   20   22 ar
  41   20   43 1
  42   21   22 ar
  43   21   44 1
  44   23   24 ar
  45   23   25 ar
  46   24   26 ar
  47   24   46 1
  48   25   28 ar
  49   25   47 1
  50   26   27 ar
  51   27   28 ar
  52   28   48 1

#	End of record

