#	Name: ASD11820005
#	Creating user name:	WinNT
#	Creation time:	15. 06. 2019 21:29

#	Modifying user name:	WinNT
#	Modification time:	15. 06. 2019 21:29

#	Program:	/corina/corina34_cracker 3.40 0067  02.08.2006

@<TRIPOS>MOLECULE
ASD11820005
  33   36    0    0    0
SMALL
NO_CHARGES


@<TRIPOS>ATOM
   1 C1            -0.0166     1.3737     0.0096 C.ar    
   2 C2             0.0021    -0.0041     0.0020 C.ar    
   3 C3             1.2111    -0.6901    -0.0128 C.ar    
   4 C4             2.4078    -0.0045    -0.0205 C.ar    
   5 C5             1.1879     2.0818     0.0019 C.ar    
   6 C6             1.5299     3.5061     0.0063 C.2     
   7 C7             2.4104     1.3882    -0.0135 C.ar    
   8 N8             3.4141     2.3338    -0.0181 N.pl3   
   9 C9             2.8699     3.5886    -0.0061 C.2     
  10 C10            0.5611     4.6604     0.0210 C.3     
  11 C11            0.1560     4.9581     1.4416 C.2     
  12 C12            0.8751     5.8096     2.3922 C.ar    
  13 C13           -0.9353     4.4979     2.0737 C.2     
  14 N14           -0.9715     4.9807     3.3529 N.pl3   
  15 C15            0.1236     5.7876     3.5799 C.ar    
  16 C16            2.0528     6.5584     2.3251 C.ar    
  17 C17            0.5632     6.5162     4.6824 C.ar    
  18 C18            1.7277     7.2508     4.6015 C.ar    
  19 C19            2.4709     7.2724     3.4269 C.ar    
  20 F20            3.6092     7.9975     3.3653 F       
  21 F21           -0.1502     6.5037     5.8296 F       
  22 F22           -1.1607    -0.6919     0.0094 F       
  23 F23            3.5759    -0.6830    -0.0344 F       
  24 H24           -0.9576     1.9036     0.0169 H       
  25 H25            1.2133    -1.7701    -0.0179 H       
  26 H26            4.3641     2.1383    -0.0280 H       
  27 H27            3.4344     4.5093    -0.0068 H       
  28 H28            1.0370     5.5397    -0.4130 H       
  29 H29           -0.3225     4.4005    -0.5619 H       
  30 H30           -1.6752     3.8436     1.6368 H       
  31 H31           -1.6652     4.7867     4.0026 H       
  32 H32            2.6328     6.5771     1.4142 H       
  33 H33            2.0651     7.8147     5.4585 H       
@<TRIPOS>BOND
   1    1    2 ar
   2    1    5 ar
   3    1   24 1
   4    2    3 ar
   5    2   22 1
   6    3    4 ar
   7    3   25 1
   8    4    7 ar
   9    4   23 1
  10    5    7 ar
  11    5    6 1
  12    6    9 2
  13    6   10 1
  14    7    8 1
  15    8    9 1
  16    8   26 1
  17    9   27 1
  18   10   11 1
  19   10   28 1
  20   10   29 1
  21   11   13 2
  22   11   12 1
  23   12   15 ar
  24   12   16 ar
  25   13   14 1
  26   13   30 1
  27   14   15 1
  28   14   31 1
  29   15   17 ar
  30   16   19 ar
  31   16   32 1
  32   17   18 ar
  33   17   21 1
  34   18   19 ar
  35   18   33 1
  36   19   20 1

#	End of record

