#	Name: ASD13870001
#	Creating user name:	WinNT
#	Creation time:	15. 06. 2019 21:30

#	Modifying user name:	WinNT
#	Modification time:	15. 06. 2019 21:30

#	Program:	/corina/corina34_cracker 3.40 0067  02.08.2006

@<TRIPOS>MOLECULE
ASD13870001
  71   76    0    0    0
SMALL
NO_CHARGES


@<TRIPOS>ATOM
   1 C1            -0.0167     1.3773     0.0096 C.ar    
   2 C2             0.0021    -0.0041     0.0020 C.ar    
   3 C3             1.2074    -0.6814    -0.0127 C.ar    
   4 C4             2.3989     0.0206    -0.0203 C.ar    
   5 C5             2.3879     1.4033    -0.0132 C.ar    
   6 C6             1.1767     2.0867     0.0020 C.ar    
   7 N7             1.1609     3.4850     0.0092 N.3     
   8 C8             0.4579     4.0098    -1.1698 C.3     
   9 C9             0.3933     5.5366    -1.0842 C.3     
  10 N10            1.7570     6.0783    -1.0033 N.3     
  11 C11            2.4600     5.5534     0.1757 C.3     
  12 C12            2.5246     4.0267     0.0901 C.3     
  13 C13            1.7404     7.5471    -0.9957 C.3     
  14 C14            3.1176     8.0634    -0.6671 C.ar    
  15 C15            3.5921     7.9952     0.6346 C.ar    
  16 C16            3.9107     8.5999    -1.6631 C.ar    
  17 C17            5.1743     9.0732    -1.3623 C.ar    
  18 C18            5.6477     9.0111    -0.0645 C.ar    
  19 C19            4.8605     8.4714     0.9339 C.ar    
  20 O20            2.8158     7.4632     1.6150 O.3     
  21 C21            3.3694     7.4253     2.9319 C.3     
  22 C22            6.0375     9.6574    -2.4507 C.3     
  23 N23            6.7592    10.8475    -1.9443 N.3     
  24 C24            7.6577    11.4576    -2.9242 C.3     
  25 C25            8.6670    10.4464    -3.5002 C.3     
  26 C26            7.0995     8.6630    -2.8615 C.3     
  27 N27            6.7166     7.3737    -3.4125 N.pl3   
  28 C28            7.8600     9.3002    -4.0598 C.3     
  29 C29            7.7892     6.9928    -4.2338 C.ar    
  30 C30            8.1666     5.7131    -4.6287 C.ar    
  31 C31            8.5172     8.1230    -4.6638 C.ar    
  32 C32            9.6145     7.9944    -5.4914 C.ar    
  33 C33            9.9770     6.7109    -5.8792 C.ar    
  34 C34            9.2726     5.6017    -5.4573 C.ar    
  35 C35            6.8365    12.0253    -4.0531 C.2     
  36 O36            5.7079    11.6343    -4.2353 O.2     
  37 O37            7.3589    12.9655    -4.8561 O.3     
  38 F38            3.5518     2.0893    -0.0202 F       
  39 H39           -0.9590     1.9049     0.0169 H       
  40 H40           -0.9263    -0.5558     0.0079 H       
  41 H41            1.2185    -1.7613    -0.0179 H       
  42 H42            3.3386    -0.5115    -0.0314 H       
  43 H43            0.9946     3.7186    -2.0727 H       
  44 H44           -0.5533     3.6042    -1.2007 H       
  45 H45           -0.1022     5.9299    -1.9718 H       
  46 H46           -0.1669     5.8276    -0.1956 H       
  47 H47            3.4712     5.9591     0.2066 H       
  48 H48            1.9232     5.8447     1.0786 H       
  49 H49            3.0200     3.6334     0.9778 H       
  50 H50            3.0848     3.7357    -0.7985 H       
  51 H51            1.4404     7.9122    -1.9780 H       
  52 H52            1.0320     7.8987    -0.2455 H       
  53 H53            3.5434     8.6491    -2.6775 H       
  54 H54            6.6353     9.3813     0.1679 H       
  55 H55            5.2321     8.4197     1.9467 H       
  56 H56            2.6485     6.9781     3.6163 H       
  57 H57            4.2821     6.8295     2.9254 H       
  58 H58            3.5997     8.4394     3.2585 H       
  59 H59            5.4239     9.9289    -3.3097 H       
  60 H60            6.1156    11.5288    -1.5706 H       
  61 H61            8.2050    12.2691    -2.4447 H       
  62 H62            9.2515    10.9132    -4.2930 H       
  63 H63            9.3272    10.0874    -2.7107 H       
  64 H64            7.7910     8.5044    -2.0340 H       
  65 H65            5.8966     6.8823    -3.2480 H       
  66 H66            7.1328     9.6905    -4.7718 H       
  67 H67            7.6197     4.8408    -4.3023 H       
  68 H68           10.1696     8.8587    -5.8248 H       
  69 H69           10.8309     6.5776    -6.5269 H       
  70 H70            9.5908     4.6218    -5.7811 H       
  71 H71            6.7941    13.2994    -5.5664 H       
@<TRIPOS>BOND
   1    1    2 ar
   2    1    6 ar
   3    1   39 1
   4    2    3 ar
   5    2   40 1
   6    3    4 ar
   7    3   41 1
   8    4    5 ar
   9    4   42 1
  10    5    6 ar
  11    5   38 1
  12    6    7 1
  13    7    8 1
  14    7   12 1
  15    8    9 1
  16    8   43 1
  17    8   44 1
  18    9   10 1
  19    9   45 1
  20    9   46 1
  21   10   11 1
  22   10   13 1
  23   11   12 1
  24   11   47 1
  25   11   48 1
  26   12   49 1
  27   12   50 1
  28   13   14 1
  29   13   51 1
  30   13   52 1
  31   14   16 ar
  32   14   15 ar
  33   15   19 ar
  34   15   20 1
  35   16   17 ar
  36   16   53 1
  37   17   18 ar
  38   17   22 1
  39   18   19 ar
  40   18   54 1
  41   19   55 1
  42   20   21 1
  43   21   56 1
  44   21   57 1
  45   21   58 1
  46   22   23 1
  47   22   26 1
  48   22   59 1
  49   23   24 1
  50   23   60 1
  51   24   25 1
  52   24   35 1
  53   24   61 1
  54   25   28 1
  55   25   62 1
  56   25   63 1
  57   26   28 1
  58   26   27 1
  59   26   64 1
  60   27   29 1
  61   27   65 1
  62   28   31 1
  63   28   66 1
  64   29   31 ar
  65   29   30 ar
  66   30   34 ar
  67   30   67 1
  68   31   32 ar
  69   32   33 ar
  70   32   68 1
  71   33   34 ar
  72   33   69 1
  73   34   70 1
  74   35   36 2
  75   35   37 1
  76   37   71 1

#	End of record

