#	Name: ASD13680005
#	Creating user name:	WinNT
#	Creation time:	15. 06. 2019 21:30

#	Modifying user name:	WinNT
#	Modification time:	15. 06. 2019 21:30

#	Program:	/corina/corina34_cracker 3.40 0067  02.08.2006

@<TRIPOS>MOLECULE
ASD13680005
  49   52    0    0    0
SMALL
NO_CHARGES


@<TRIPOS>ATOM
   1 C1            -0.0190     1.5124     0.0242 C.3     
   2 C2             0.0025    -0.0020     0.0099 C.2     
   3 C3             0.7558    -0.7677     0.8048 C.2     
   4 C4             1.7296    -0.2380     1.8432 C.3     
   5 C5             1.8877     2.2211     1.4594 C.3     
   6 C6             1.4089     2.0561     0.0198 C.3     
   7 C7             1.2758     1.1321     2.3378 C.3     
   8 C8             0.5454    -2.1872     0.5660 C.2     
   9 C9            -0.3625    -2.4431    -0.4219 C.2     
  10 S10           -0.9725    -0.9921    -1.0681 S.3     
  11 N11           -0.7349    -3.7101    -0.8407 N.am    
  12 C12            1.2402    -3.2400     1.3122 C.2     
  13 O13            0.7536    -3.6824     2.3363 O.2     
  14 N14            2.4180    -3.7181     0.8644 N.am    
  15 C15            3.1309    -4.6402     1.6275 C.ar    
  16 N16            2.6957    -4.9693     2.8338 N.ar    
  17 C17            3.3402    -5.8382     3.5886 C.ar    
  18 C18            4.5009    -6.4395     3.1430 C.ar    
  19 C19            4.9908    -6.1216     1.8838 C.ar    
  20 C20            4.2897    -5.2106     1.1132 C.ar    
  21 C21           -1.6424    -3.8543    -1.8267 C.2     
  22 C22           -2.0393    -5.2048    -2.2731 C.ar    
  23 O23           -2.1341    -2.8725    -2.3486 O.2     
  24 C24           -2.9795    -5.3571    -3.2948 C.ar    
  25 C25           -3.3464    -6.6200    -3.7075 C.ar    
  26 C26           -2.7840    -7.7379    -3.1104 C.ar    
  27 C27           -1.8505    -7.5925    -2.0955 C.ar    
  28 C28           -1.4717    -6.3344    -1.6792 C.ar    
  29 F29           -3.1472    -8.9735    -3.5188 F       
  30 H30           -0.5467     1.8749    -0.8579 H       
  31 H31           -0.5349     1.8583     0.9199 H       
  32 H32            1.7726    -0.9298     2.6844 H       
  33 H33            2.7208    -0.1514     1.3981 H       
  34 H34            2.9745     2.1438     1.4907 H       
  35 H35            1.5845     3.1996     1.8320 H       
  36 H36            2.0626     1.3584    -0.5036 H       
  37 H37            1.4289     3.0227    -0.4836 H       
  38 H38            0.1887     1.1941     2.2884 H       
  39 H39            1.6008     1.2719     3.3688 H       
  40 H40           -0.3426    -4.4934    -0.4243 H       
  41 H41            2.7693    -3.4203     0.0107 H       
  42 H42            2.9555    -6.0822     4.5678 H       
  43 H43            5.0222    -7.1494     3.7680 H       
  44 H44            5.8966    -6.5776     1.5123 H       
  45 H45            4.6403    -4.9434     0.1273 H       
  46 H46           -3.4184    -4.4870    -3.7603 H       
  47 H47           -4.0735    -6.7389    -4.4971 H       
  48 H48           -1.4159    -8.4667    -1.6336 H       
  49 H49           -0.7408    -6.2222    -0.8921 H       
@<TRIPOS>BOND
   1    1    2 1
   2    1    6 1
   3    1   30 1
   4    1   31 1
   5    2   10 1
   6    2    3 2
   7    3    4 1
   8    3    8 1
   9    4    7 1
  10    4   32 1
  11    4   33 1
  12    5    6 1
  13    5    7 1
  14    5   34 1
  15    5   35 1
  16    6   36 1
  17    6   37 1
  18    7   38 1
  19    7   39 1
  20    8    9 2
  21    8   12 1
  22    9   10 1
  23    9   11 1
  24   11   21 am
  25   11   40 1
  26   12   13 2
  27   12   14 am
  28   14   15 1
  29   14   41 1
  30   15   16 ar
  31   15   20 ar
  32   16   17 ar
  33   17   18 ar
  34   17   42 1
  35   18   19 ar
  36   18   43 1
  37   19   20 ar
  38   19   44 1
  39   20   45 1
  40   21   22 1
  41   21   23 2
  42   22   24 ar
  43   22   28 ar
  44   24   25 ar
  45   24   46 1
  46   25   26 ar
  47   25   47 1
  48   26   27 ar
  49   26   29 1
  50   27   28 ar
  51   27   48 1
  52   28   49 1

#	End of record

