#	Name: ASD10800041
#	Creating user name:	WinNT
#	Creation time:	15. 06. 2019 21:28

#	Modifying user name:	WinNT
#	Modification time:	15. 06. 2019 21:28

#	Program:	/corina/corina34_cracker 3.40 0067  02.08.2006

@<TRIPOS>MOLECULE
ASD10800041
  49   52    0    0    0
SMALL
NO_CHARGES


@<TRIPOS>ATOM
   1 C1            -0.0168     1.3882     0.0097 C.ar    
   2 C2             0.0021    -0.0041     0.0020 C.ar    
   3 C3             1.2033    -0.6825    -0.0203 C.ar    
   4 C4             2.3981     0.0127    -0.0353 C.ar    
   5 C5             2.3879     1.3966    -0.0243 C.ar    
   6 C6             1.1904     2.0757     0.0018 C.ar    
   7 C7             3.6872     2.1600    -0.0400 C.3     
   8 C8             4.0871     2.5155     1.3933 C.3     
   9 N9             4.7324     1.3327    -0.6477 N.pl3   
  10 C10            5.3193     3.3829     1.3706 C.ar    
  11 C11            5.1952     4.7584     1.3100 C.ar    
  12 C12            6.5735     2.8034     1.4160 C.ar    
  13 C13            7.7037     3.5990     1.3951 C.ar    
  14 C14            7.5797     4.9742     1.3284 C.ar    
  15 C15            6.3255     5.5540     1.2890 C.ar    
  16 C16            9.0709     2.9673     1.4457 C.3     
  17 C17            6.1903     7.0532     1.2163 C.3     
  18 C18            4.8824     1.3086    -2.0150 C.2     
  19 N19            5.7632     0.6203    -2.6477 N.2     
  20 S20            3.8867     2.2143    -3.1607 S.3     
  21 C21            4.7423     1.6169    -4.6543 C.3     
  22 C22            5.8213     0.6786    -4.0913 C.3     
  23 C23            0.8593     3.5552     0.0367 C.3     
  24 C24           -0.6291     3.5404     0.4581 C.3     
  25 O25           -1.0729     2.2472     0.0138 O.3     
  26 H26           -0.9268    -0.5549     0.0140 H       
  27 H27            1.2102    -1.7625    -0.0258 H       
  28 H28            3.3361    -0.5221    -0.0552 H       
  29 H29            3.5643     3.0744    -0.6204 H       
  30 H30            3.2717     3.0553     1.8748 H       
  31 H31            4.2963     1.6017     1.9494 H       
  32 H32            5.3186     0.8019    -0.0861 H       
  33 H33            4.2153     5.2113     1.2786 H       
  34 H34            6.6703     1.7290     1.4682 H       
  35 H35            8.4627     5.5958     1.3124 H       
  36 H36            9.4160     2.7662     0.4315 H       
  37 H37            9.7669     3.6463     1.9383 H       
  38 H38            9.0188     2.0325     2.0038 H       
  39 H39            6.1673     7.3657     0.1723 H       
  40 H40            5.2666     7.3590     1.7075 H       
  41 H41            7.0393     7.5192     1.7164 H       
  42 H42            4.0552     1.0663    -5.2969 H       
  43 H43            5.1953     2.4472    -5.1961 H       
  44 H44            6.8036     1.0415    -4.3938 H       
  45 H45            5.6717    -0.3220    -4.4968 H       
  46 H46            1.4686     4.0732     0.7773 H       
  47 H47            0.9807     4.0048    -0.9488 H       
  48 H48           -0.7251     3.6305     1.5401 H       
  49 H49           -1.1813     4.3329    -0.0470 H       
@<TRIPOS>BOND
   1    1    2 ar
   2    1    6 ar
   3    1   25 1
   4    2    3 ar
   5    2   26 1
   6    3    4 ar
   7    3   27 1
   8    4    5 ar
   9    4   28 1
  10    5    6 ar
  11    5    7 1
  12    6   23 1
  13    7    8 1
  14    7    9 1
  15    7   29 1
  16    8   10 1
  17    8   30 1
  18    8   31 1
  19    9   18 1
  20    9   32 1
  21   10   11 ar
  22   10   12 ar
  23   11   15 ar
  24   11   33 1
  25   12   13 ar
  26   12   34 1
  27   13   14 ar
  28   13   16 1
  29   14   15 ar
  30   14   35 1
  31   15   17 1
  32   16   36 1
  33   16   37 1
  34   16   38 1
  35   17   39 1
  36   17   40 1
  37   17   41 1
  38   18   19 2
  39   18   20 1
  40   19   22 1
  41   20   21 1
  42   21   22 1
  43   21   42 1
  44   21   43 1
  45   22   44 1
  46   22   45 1
  47   23   24 1
  48   23   46 1
  49   23   47 1
  50   24   25 1
  51   24   48 1
  52   24   49 1

#	End of record

