#	Name: ASD14940003
#	Creating user name:	WinNT
#	Creation time:	15. 06. 2019 21:31

#	Modifying user name:	WinNT
#	Modification time:	15. 06. 2019 21:31

#	Program:	/corina/corina34_cracker 3.40 0067  02.08.2006

@<TRIPOS>MOLECULE
ASD14940003
  41   44    0    0    0
SMALL
NO_CHARGES


@<TRIPOS>ATOM
   1 C1            -0.0167     1.3776     0.0096 C.ar    
   2 C2             0.0021    -0.0041     0.0020 C.ar    
   3 C3             1.2085    -0.6798    -0.0122 C.ar    
   4 C4             2.3944     0.0265    -0.0181 C.ar    
   5 C5             2.3792     1.4167    -0.0108 C.ar    
   6 C6             1.1691     2.0908     0.0021 C.ar    
   7 C7             1.1252     3.5947     0.0072 C.3     
   8 O8             3.5539     2.0912    -0.0147 O.3     
   9 C9             3.5978     3.3796     0.4011 C.ar    
  10 C10            2.4533     4.1590     0.4332 C.ar    
  11 C11            2.5263     5.4730     0.8600 C.ar    
  12 C12            4.8131     3.9227     0.8022 C.ar    
  13 C13            4.8797     5.2339     1.2279 C.ar    
  14 C14            3.7360     6.0097     1.2570 C.ar    
  15 N15            0.8061     4.0736    -1.3401 N.am    
  16 C16            0.2263     5.2787    -1.5071 C.2     
  17 O17           -0.0319     5.9683    -0.5399 O.2     
  18 C18           -0.0958     5.7621    -2.8667 C.ar    
  19 C19           -0.6989     6.6674    -5.4133 C.ar    
  20 C20           -0.1089     5.4273    -5.2450 C.ar    
  21 C21            0.1941     4.9703    -3.9790 C.ar    
  22 C22           -0.6962     7.0097    -3.0432 C.ar    
  23 C23           -0.9941     7.4547    -4.3145 C.ar    
  24 C24           -1.0267     7.1603    -6.7992 C.3     
  25 H25           -0.9603     1.9028     0.0169 H       
  26 H26           -0.9259    -0.5565     0.0075 H       
  27 H27            1.2227    -1.7596    -0.0182 H       
  28 H28            3.3362    -0.5020    -0.0281 H       
  29 H29            0.3531     3.9297     0.6998 H       
  30 H30            1.6344     6.0817     0.8827 H       
  31 H31            5.7071     3.3170     0.7809 H       
  32 H32            5.8249     5.6534     1.5394 H       
  33 H33            3.7881     7.0359     1.5896 H       
  34 H34            1.0121     3.5233    -2.1119 H       
  35 H35            0.1189     4.8175    -6.1068 H       
  36 H36            0.6550     4.0023    -3.8490 H       
  37 H37           -0.9275     7.6250    -2.1863 H       
  38 H38           -1.4546     8.4218    -4.4527 H       
  39 H39           -2.0353     6.8458    -7.0676 H       
  40 H40           -0.9674     8.2484    -6.8213 H       
  41 H41           -0.3145     6.7431    -7.5111 H       
@<TRIPOS>BOND
   1    1    2 ar
   2    1    6 ar
   3    1   25 1
   4    2    3 ar
   5    2   26 1
   6    3    4 ar
   7    3   27 1
   8    4    5 ar
   9    4   28 1
  10    5    6 ar
  11    5    8 1
  12    6    7 1
  13    7   10 1
  14    7   15 1
  15    7   29 1
  16    8    9 1
  17    9   12 ar
  18    9   10 ar
  19   10   11 ar
  20   11   14 ar
  21   11   30 1
  22   12   13 ar
  23   12   31 1
  24   13   14 ar
  25   13   32 1
  26   14   33 1
  27   15   16 am
  28   15   34 1
  29   16   17 2
  30   16   18 1
  31   18   22 ar
  32   18   21 ar
  33   19   20 ar
  34   19   23 ar
  35   19   24 1
  36   20   21 ar
  37   20   35 1
  38   21   36 1
  39   22   23 ar
  40   22   37 1
  41   23   38 1
  42   24   39 1
  43   24   40 1
  44   24   41 1

#	End of record

