#	Name: ASD14460001
#	Creating user name:	WinNT
#	Creation time:	15. 06. 2019 21:31

#	Modifying user name:	WinNT
#	Modification time:	15. 06. 2019 21:31

#	Program:	/corina/corina34_cracker 3.40 0067  02.08.2006

@<TRIPOS>MOLECULE
ASD14460001
  48   50    0    0    0
SMALL
NO_CHARGES


@<TRIPOS>ATOM
   1 C1             0.6501     2.5757    -1.1520 C.ar    
   2 C2             0.1473     1.2983    -0.9346 C.ar    
   3 C3             0.9800     0.2894    -0.4871 C.ar    
   4 C4             2.3157     0.5435    -0.2533 C.ar    
   5 C5             2.8313     1.8235    -0.4690 C.ar    
   6 C6             1.9912     2.8416    -0.9205 C.ar    
   7 C7             4.2614     2.0983    -0.2199 C.2     
   8 C8            -1.0567     5.0072     3.3847 C.ar    
   9 C9            -1.1474     5.9738     2.3993 C.ar    
  10 C10           -1.3413     5.6013     1.0810 C.ar    
  11 C11           -1.4443     4.2637     0.7485 C.ar    
  12 C12           -1.3537     3.2974     1.7326 C.ar    
  13 C13           -1.1599     3.6686     3.0513 C.ar    
  14 Cl14          -1.0456     2.4548     4.2872 Cl      
  15 Cl15          -1.0187     7.6539     2.8169 Cl      
  16 S16           -1.6917     3.7901    -0.9306 S.o2    
  17 N17           -0.1945     3.5904    -1.6093 N.am    
  18 O18           -2.2934     2.5032    -0.9000 O.2     
  19 O19           -2.2808     4.9083    -1.5802 O.2     
  20 O20            4.7288     3.3592    -0.2992 O.3     
  21 O21            5.0158     1.1872     0.0564 O.2     
  22 S22            3.3711    -0.7467     0.3180 S.o2    
  23 O23            4.0408    -0.2394     1.4640 O.2     
  24 O24            2.5841    -1.9297     0.3379 O.2     
  25 N25            4.5334    -0.9776    -0.8388 N.am    
  26 C26            4.1818    -1.4939    -2.0897 C.ar    
  27 C27            2.9322    -1.2190    -2.6290 C.ar    
  28 C28            2.5869    -1.7305    -3.8658 C.ar    
  29 C29            3.4867    -2.5166    -4.5667 C.ar    
  30 C30            4.7332    -2.7915    -4.0302 C.ar    
  31 C31            5.0843    -2.2776    -2.7972 C.ar    
  32 C32            6.4435    -2.5723    -2.2170 C.3     
  33 F33            3.1475    -3.0161    -5.7753 F       
  34 Br34           0.8851    -1.3575    -4.6011 Br      
  35 H35           -0.8975     1.0933    -1.1155 H       
  36 H36            0.5833    -0.7011    -0.3197 H       
  37 H37            2.3841     3.8333    -1.0895 H       
  38 H38           -0.9010     5.2973     4.4133 H       
  39 H39           -1.4121     6.3559     0.3116 H       
  40 H40           -1.4346     2.2524     1.4723 H       
  41 H41            0.0962     4.1779    -2.3243 H       
  42 H42            5.6525     3.5014    -0.0509 H       
  43 H43            5.4580    -0.7548    -0.6485 H       
  44 H44            2.2305    -0.6065    -2.0824 H       
  45 H45            5.4332    -3.4046    -4.5784 H       
  46 H46            6.3952    -3.4855    -1.6238 H       
  47 H47            7.1633    -2.7017    -3.0252 H       
  48 H48            6.7552    -1.7428    -1.5822 H       
@<TRIPOS>BOND
   1    1    2 ar
   2    1    6 ar
   3    1   17 1
   4    2    3 ar
   5    2   35 1
   6    3   36 1
   7    3    4 ar
   8    4   22 1
   9    4    5 ar
  10    5    6 ar
  11    5    7 1
  12    6   37 1
  13    7   20 1
  14    7   21 2
  15    8   13 ar
  16    8    9 ar
  17    8   38 1
  18    9   10 ar
  19    9   15 1
  20   10   11 ar
  21   10   39 1
  22   11   16 1
  23   11   12 ar
  24   12   40 1
  25   12   13 ar
  26   13   14 1
  27   16   18 2
  28   16   19 2
  29   16   17 am
  30   17   41 1
  31   20   42 1
  32   22   25 am
  33   22   24 2
  34   22   23 2
  35   25   26 1
  36   25   43 1
  37   26   27 ar
  38   26   31 ar
  39   27   28 ar
  40   27   44 1
  41   28   34 1
  42   28   29 ar
  43   29   33 1
  44   29   30 ar
  45   30   45 1
  46   30   31 ar
  47   31   32 1
  48   32   46 1
  49   32   47 1
  50   32   48 1

#	End of record

