#	Name: ASD11030069
#	Creating user name:	WinNT
#	Creation time:	15. 06. 2019 21:29

#	Modifying user name:	WinNT
#	Modification time:	15. 06. 2019 21:29

#	Program:	/corina/corina34_cracker 3.40 0067  02.08.2006

@<TRIPOS>MOLECULE
ASD11030069
  34   34    0    0    0
SMALL
NO_CHARGES


@<TRIPOS>ATOM
   1 C1            -0.3473     1.8674    -1.3719 C.ar    
   2 C2            -0.1104     0.5458    -0.9982 C.ar    
   3 C3            -1.1413    -0.2531    -0.5963 C.ar    
   4 C4            -2.4474     0.2523    -0.5577 C.ar    
   5 C5            -2.6905     1.5857    -0.9342 C.ar    
   6 C6            -1.6364     2.3865    -1.3334 C.ar    
   7 C7            -3.5560    -0.6050    -0.1272 C.2     
   8 C8            -3.6718    -1.8602    -0.6202 C.2     
   9 N9             0.7114     2.6721    -1.7797 N.pl3   
  10 C10            2.0719     2.1301    -1.8157 C.3     
  11 C11           -1.6425    -3.2850    -0.6571 C.3     
  12 C12           -2.5878    -2.4270    -1.5004 C.3     
  13 O13           -3.9517     2.0849    -0.9004 O.3     
  14 C14           -4.1210     3.4473    -1.2968 C.3     
  15 C15           -4.8105    -2.6402    -0.3091 C.2     
  16 O16           -5.6858    -2.1826     0.4017 O.2     
  17 O17           -4.9260    -3.8919    -0.8006 O.3     
  18 H18            0.8947     0.1515    -1.0270 H       
  19 H19           -0.9502    -1.2763    -0.3082 H       
  20 H20           -1.8155     3.4113    -1.6235 H       
  21 H21           -4.2803    -0.2349     0.5833 H       
  22 H22            0.5488     3.5922    -2.0403 H       
  23 H23            2.3594     1.8032    -0.8164 H       
  24 H24            2.1072     1.2820    -2.4995 H       
  25 H25            2.7615     2.9018    -2.1579 H       
  26 H26           -1.3150    -2.7165     0.2134 H       
  27 H27           -2.1637    -4.1842    -0.3286 H       
  28 H28           -0.7755    -3.5655    -1.2551 H       
  29 H29           -3.0374    -3.0412    -2.2806 H       
  30 H30           -2.0276    -1.6114    -1.9577 H       
  31 H31           -3.7847     3.5706    -2.3263 H       
  32 H32           -5.1741     3.7189    -1.2236 H       
  33 H33           -3.5333     4.0917    -0.6430 H       
  34 H34           -5.7370    -4.3459    -0.5338 H       
@<TRIPOS>BOND
   1    1    2 ar
   2    1    9 1
   3    1    6 ar
   4    2    3 ar
   5    2   18 1
   6    3    4 ar
   7    3   19 1
   8    4    5 ar
   9    4    7 1
  10    5    6 ar
  11    5   13 1
  12    6   20 1
  13    7    8 2
  14    7   21 1
  15    8   12 1
  16    8   15 1
  17    9   10 1
  18    9   22 1
  19   10   23 1
  20   10   24 1
  21   10   25 1
  22   11   12 1
  23   11   26 1
  24   11   27 1
  25   11   28 1
  26   12   29 1
  27   12   30 1
  28   13   14 1
  29   14   31 1
  30   14   32 1
  31   14   33 1
  32   15   16 2
  33   15   17 1
  34   17   34 1

#	End of record

