#	Name: ASD11000135
#	Creating user name:	WinNT
#	Creation time:	15. 06. 2019 21:28

#	Modifying user name:	WinNT
#	Modification time:	15. 06. 2019 21:28

#	Program:	/corina/corina34_cracker 3.40 0067  02.08.2006

@<TRIPOS>MOLECULE
ASD11000135
  42   45    0    0    0
SMALL
NO_CHARGES


@<TRIPOS>ATOM
   1 N1            -0.0172     1.3214    -0.0112 N.ar    
   2 C2             0.0016    -0.0034    -0.0059 C.ar    
   3 N3             1.1402    -0.6810    -0.0150 N.ar    
   4 C4             2.3025    -0.0498    -0.0300 C.ar    
   5 C5             2.3192     1.3362    -0.0363 C.ar    
   6 C6             1.1099     2.0135    -0.0261 C.ar    
   7 C7             3.6239     2.0903    -0.0529 C.3     
   8 O8             4.0225     2.3227    -1.4053 O.3     
   9 C9             5.1876     2.9964    -1.5983 C.ar    
  10 C10            5.9306     3.4243    -0.5008 C.ar    
  11 C11            7.1135     4.1078    -0.6772 C.ar    
  12 C12            7.5759     4.3764    -1.9610 C.ar    
  13 C13            6.8280     3.9457    -3.0732 C.ar    
  14 C14            5.6312     3.2481    -2.8812 C.ar    
  15 N15            8.7581     5.0606    -2.1587 N.am    
  16 C16            9.2067     5.3223    -3.3988 C.2     
  17 C17            8.4942     4.9127    -4.5460 C.2     
  18 C18            7.3260     4.2361    -4.4191 C.2     
  19 O19           10.2550     5.9291    -3.5356 O.2     
  20 N20           -1.1976    -0.6966     0.0098 N.pl3   
  21 C21           -1.2011    -2.0907    -0.1033 C.ar    
  22 C22           -2.1495    -2.8413     0.5791 C.ar    
  23 C23           -0.2596    -2.7259    -0.9026 C.ar    
  24 C24           -0.2659    -4.1044    -1.0128 C.ar    
  25 C25           -1.2112    -4.8506    -0.3263 C.ar    
  26 C26           -2.1521    -4.2182     0.4662 C.ar    
  27 Cl27          -1.2183    -6.5809    -0.4666 Cl      
  28 F28            0.6492    -4.7240    -1.7899 F       
  29 H29            3.2273    -0.6076    -0.0369 H       
  30 H30            1.0881     3.0933    -0.0309 H       
  31 H31            3.4983     3.0449     0.4581 H       
  32 H32            4.3890     1.5039     0.4558 H       
  33 H33            5.5757     3.2185     0.4983 H       
  34 H34            7.6815     4.4352     0.1810 H       
  35 H35            5.0539     2.9151    -3.7310 H       
  36 H36            9.2726     5.3573    -1.3918 H       
  37 H37            8.8811     5.1386    -5.5287 H       
  38 H38            6.7748     3.9184    -5.2918 H       
  39 H39           -2.0349    -0.2152     0.0991 H       
  40 H40           -2.8847    -2.3488     1.1982 H       
  41 H41            0.4762    -2.1440    -1.4378 H       
  42 H42           -2.8873    -4.8017     1.0003 H       
@<TRIPOS>BOND
   1    1    2 ar
   2    1    6 ar
   3    2    3 ar
   4    2   20 1
   5    3    4 ar
   6    4    5 ar
   7    4   29 1
   8    5    6 ar
   9    5    7 1
  10    6   30 1
  11    7    8 1
  12    7   31 1
  13    7   32 1
  14    8    9 1
  15    9   10 ar
  16    9   14 ar
  17   10   11 ar
  18   10   33 1
  19   11   12 ar
  20   11   34 1
  21   12   13 ar
  22   12   15 1
  23   13   14 ar
  24   13   18 1
  25   14   35 1
  26   15   16 am
  27   15   36 1
  28   16   17 1
  29   16   19 2
  30   17   18 2
  31   17   37 1
  32   18   38 1
  33   20   21 1
  34   20   39 1
  35   21   22 ar
  36   21   23 ar
  37   22   26 ar
  38   22   40 1
  39   23   24 ar
  40   23   41 1
  41   24   25 ar
  42   24   28 1
  43   25   26 ar
  44   25   27 1
  45   26   42 1

#	End of record

