#	Name: ASD11000340
#	Creating user name:	WinNT
#	Creation time:	15. 06. 2019 21:29

#	Modifying user name:	WinNT
#	Modification time:	15. 06. 2019 21:29

#	Program:	/corina/corina34_cracker 3.40 0067  02.08.2006

@<TRIPOS>MOLECULE
ASD11000340
  45   48    0    0    0
SMALL
NO_CHARGES


@<TRIPOS>ATOM
   1 N1            -0.0159     1.3207     0.0093 N.ar    
   2 C2             0.0021    -0.0041     0.0020 C.ar    
   3 N3             1.1402    -0.6822    -0.0125 N.ar    
   4 C4             2.3030    -0.0516    -0.0202 C.ar    
   5 C5             2.3205     1.3343    -0.0129 C.ar    
   6 C6             1.1117     2.0123     0.0023 C.ar    
   7 C7             3.6257     2.0878    -0.0209 C.3     
   8 O8             4.0258     2.3331    -1.3706 O.3     
   9 C9             5.1915     3.0080    -1.5558 C.ar    
  10 C10            5.9336     3.4246    -0.4535 C.ar    
  11 C11            7.1172     4.1090    -0.6220 C.ar    
  12 C12            7.5810     4.3899    -1.9026 C.ar    
  13 C13            6.8340     3.9706    -3.0198 C.ar    
  14 C14            5.6366     3.2718    -2.8358 C.ar    
  15 N15            8.7638     5.0753    -2.0925 N.am    
  16 C16            9.2138     5.3488    -3.3295 C.2     
  17 C17            8.5022     4.9509    -4.4814 C.2     
  18 C18            7.3335     4.2738    -4.3623 C.2     
  19 O19           10.2626     5.9562    -3.4594 O.2     
  20 N20           -1.1966    -0.6960     0.0102 N.pl3   
  21 C21           -2.6175    -2.6633     0.0138 C.ar    
  22 C22           -3.2808    -2.8871    -1.1783 C.ar    
  23 C23           -3.2551    -2.9053     1.2162 C.ar    
  24 C24           -4.5561    -3.3718     1.2273 C.ar    
  25 C25           -5.2204    -3.5961     0.0346 C.ar    
  26 C26           -4.5821    -3.3527    -1.1685 C.ar    
  27 Cl27          -6.8543    -4.1826     0.0477 Cl      
  28 C28           -1.1967    -2.1610     0.0024 C.3     
  29 H29            3.2274    -0.6098    -0.0317 H       
  30 H30            1.0906     3.0920     0.0083 H       
  31 H31            3.5001     3.0374     0.4993 H       
  32 H32            4.3899     1.4959     0.4828 H       
  33 H33            5.5777     3.2093     0.5432 H       
  34 H34            7.6845     4.4277     0.2400 H       
  35 H35            5.0598     2.9476    -3.6894 H       
  36 H36            9.2778     5.3642    -1.3222 H       
  37 H37            8.8902     5.1861    -5.4615 H       
  38 H38            6.7830     3.9649    -5.2386 H       
  39 H39           -2.0365    -0.2110     0.0212 H       
  40 H40           -2.7822    -2.6978    -2.1174 H       
  41 H41           -2.7364    -2.7302     2.1472 H       
  42 H42           -5.0539    -3.5616     2.1668 H       
  43 H43           -5.1003    -3.5273    -2.0999 H       
  44 H44           -0.6918    -2.5196    -0.8946 H       
  45 H45           -0.6741    -2.5291     0.8852 H       
@<TRIPOS>BOND
   1    1    2 ar
   2    1    6 ar
   3    2    3 ar
   4    2   20 1
   5    3    4 ar
   6    4    5 ar
   7    4   29 1
   8    5    6 ar
   9    5    7 1
  10    6   30 1
  11    7    8 1
  12    7   31 1
  13    7   32 1
  14    8    9 1
  15    9   10 ar
  16    9   14 ar
  17   10   11 ar
  18   10   33 1
  19   11   12 ar
  20   11   34 1
  21   12   13 ar
  22   12   15 1
  23   13   14 ar
  24   13   18 1
  25   14   35 1
  26   15   16 am
  27   15   36 1
  28   16   17 1
  29   16   19 2
  30   17   18 2
  31   17   37 1
  32   18   38 1
  33   20   28 1
  34   20   39 1
  35   21   22 ar
  36   21   23 ar
  37   21   28 1
  38   22   26 ar
  39   22   40 1
  40   23   24 ar
  41   23   41 1
  42   24   25 ar
  43   24   42 1
  44   25   26 ar
  45   25   27 1
  46   26   43 1
  47   28   44 1
  48   28   45 1

#	End of record

