#	Name: ASD11000047
#	Creating user name:	WinNT
#	Creation time:	15. 06. 2019 21:28

#	Modifying user name:	WinNT
#	Modification time:	15. 06. 2019 21:28

#	Program:	/corina/corina34_cracker 3.40 0067  02.08.2006

@<TRIPOS>MOLECULE
ASD11000047
  54   56    0    0    0
SMALL
NO_CHARGES


@<TRIPOS>ATOM
   1 N1            -0.0178     1.4642     0.0101 N.3     
   2 C2            -3.1244     6.0171    -1.4921 C.ar    
   3 O3            -2.4876     9.5990    -1.5139 O.3     
   4 C4             4.6197     1.2461     3.0909 C.ar    
   5 O5            -0.9245     3.8206    -3.3301 O.3     
   6 C6             4.2627     0.0153     2.5727 C.ar    
   7 C7             5.2290    -0.8159     2.0376 C.ar    
   8 C8             6.5522    -0.4162     2.0205 C.ar    
   9 C9             6.9090     0.8150     2.5380 C.ar    
  10 C10            5.9427     1.6466     3.0722 C.ar    
  11 C11            2.8202    -0.4204     2.5913 C.3     
  12 C12            2.1331     0.0352     1.3025 C.3     
  13 C13            0.7039    -0.5130     1.2631 C.3     
  14 C14            0.0021    -0.0041     0.0020 C.3     
  15 C15            1.3439     2.0138     0.0000 C.3     
  16 C16            2.0858     1.5651     1.2611 C.3     
  17 C17           -0.8045     1.9863    -1.1153 C.3     
  18 C18           -1.0123     3.4916    -0.9375 C.3     
  19 C19           -1.7228     4.0573    -2.1688 C.3     
  20 C20           -1.9275     5.5401    -1.9937 C.ar    
  21 C21           -1.8671     3.7451     0.3059 C.3     
  22 C22           -0.9182     6.4212    -2.3353 C.ar    
  23 C23           -1.1033     7.7808    -2.1757 C.ar    
  24 C24           -2.3032     8.2619    -1.6722 C.ar    
  25 C25           -3.3143     7.3758    -1.3302 C.ar    
  26 H26           -3.9130     5.3271    -1.2305 H       
  27 H27           -2.8641    10.0386    -2.2885 H       
  28 H28            3.8642     1.8974     3.5049 H       
  29 H29           -0.0479     4.2273    -3.2945 H       
  30 H30            4.9501    -1.7778     1.6334 H       
  31 H31            7.3072    -1.0659     1.6032 H       
  32 H32            7.9429     1.1271     2.5249 H       
  33 H33            6.2215     2.6083     3.4768 H       
  34 H34            2.7697    -1.5067     2.6655 H       
  35 H35            2.3168     0.0261     3.4489 H       
  36 H36            2.6896    -0.3363     0.4420 H       
  37 H37            0.7324    -1.6025     1.2493 H       
  38 H38            0.1597    -0.1738     2.1445 H       
  39 H39           -1.0204    -0.3810    -0.0218 H       
  40 H40            0.5390    -0.3552    -0.8792 H       
  41 H41            1.8745     1.6533    -0.8812 H       
  42 H42            1.2960     3.1025    -0.0252 H       
  43 H43            1.5633     1.9370     2.1425 H       
  44 H44            3.1015     1.9603     1.2458 H       
  45 H45           -0.2719     1.8007    -2.0480 H       
  46 H46           -1.7729     1.4868    -1.1444 H       
  47 H47           -0.0452     3.9804    -0.8195 H       
  48 H48           -2.6899     3.5685    -2.2869 H       
  49 H49           -2.0151     4.8176     0.4326 H       
  50 H50           -2.8341     3.2563     0.1878 H       
  51 H51           -1.3609     3.3421     1.1831 H       
  52 H52            0.0158     6.0461    -2.7269 H       
  53 H53           -0.3145     8.4687    -2.4424 H       
  54 H54           -4.2495     7.7479    -0.9386 H       
@<TRIPOS>BOND
   1    1   14 1
   2    1   15 1
   3    1   17 1
   4    2   20 ar
   5    2   25 ar
   6    2   26 1
   7    3   24 1
   8    3   27 1
   9    4    6 ar
  10    4   10 ar
  11    4   28 1
  12    5   19 1
  13    5   29 1
  14    6    7 ar
  15    6   11 1
  16    7    8 ar
  17    7   30 1
  18    8    9 ar
  19    8   31 1
  20    9   10 ar
  21    9   32 1
  22   10   33 1
  23   11   12 1
  24   11   34 1
  25   11   35 1
  26   12   13 1
  27   12   16 1
  28   12   36 1
  29   13   14 1
  30   13   37 1
  31   13   38 1
  32   14   39 1
  33   14   40 1
  34   15   16 1
  35   15   41 1
  36   15   42 1
  37   16   43 1
  38   16   44 1
  39   17   18 1
  40   17   45 1
  41   17   46 1
  42   18   19 1
  43   18   21 1
  44   18   47 1
  45   19   20 1
  46   19   48 1
  47   20   22 ar
  48   21   49 1
  49   21   50 1
  50   21   51 1
  51   22   23 ar
  52   22   52 1
  53   23   24 ar
  54   23   53 1
  55   24   25 ar
  56   25   54 1

#	End of record

