#	Name: ASD10030001
#	Creating user name:	WinNT
#	Creation time:	15. 06. 2019 21:24

#	Modifying user name:	WinNT
#	Modification time:	15. 06. 2019 21:24

#	Program:	/corina/corina34_cracker 3.40 0067  02.08.2006

@<TRIPOS>MOLECULE
ASD10030001
  20   20    0    0    0
SMALL
NO_CHARGES


@<TRIPOS>ATOM
   1 C1            -0.0166     1.3723     0.0096 C.ar    
   2 C2             0.0021    -0.0041     0.0020 C.ar    
   3 C3             1.2140    -0.6852    -0.0128 C.ar    
   4 C4             2.4128     0.0190    -0.0200 C.ar    
   5 C5             2.4052     1.3955    -0.0125 C.ar    
   6 C6             1.1876     2.0862     0.0019 C.ar    
   7 O7             1.2269    -2.0424    -0.0197 O.3     
   8 C8             1.1736     3.5557     0.0099 C.2     
   9 H9             2.1037     4.1046     0.0047 H       
  10 C10           -0.0026     4.2199     0.0238 C.2     
  11 C11           -0.0161     5.6377     0.0316 C.2     
  12 H12           -0.9327     3.6710     0.0291 H       
  13 O13           -1.1910     6.3011     0.0455 O.3     
  14 O14            1.0315     6.2559     0.0257 O.2     
  15 H15           -0.9586     1.9005     0.0169 H       
  16 H16           -0.9263    -0.5558     0.0079 H       
  17 H17            3.3515    -0.5149    -0.0311 H       
  18 H18            3.3369     1.9416    -0.0174 H       
  19 H19            1.2224    -2.4313    -0.9051 H       
  20 H20           -1.0991     7.2637     0.0498 H       
@<TRIPOS>BOND
   1    1    2 ar
   2    1    6 ar
   3    1   15 1
   4    2    3 ar
   5    2   16 1
   6    3    4 ar
   7    3    7 1
   8    4    5 ar
   9    4   17 1
  10    5    6 ar
  11    5   18 1
  12    6    8 1
  13    7   19 1
  14    8    9 1
  15    8   10 2
  16   10   11 1
  17   10   12 1
  18   11   13 1
  19   11   14 2
  20   13   20 1

#	End of record

