#	Name: ASD10160446
#	Creating user name:	WinNT
#	Creation time:	15. 06. 2019 21:26

#	Modifying user name:	WinNT
#	Modification time:	15. 06. 2019 21:26

#	Program:	/corina/corina34_cracker 3.40 0067  02.08.2006

@<TRIPOS>MOLECULE
ASD10160446
  45   47    0    0    0
SMALL
NO_CHARGES


@<TRIPOS>ATOM
   1 C1             0.2236     1.4264     0.1327 C.2     
   2 C2             0.2070    -0.0441     0.0495 C.ar    
   3 C3             1.3950    -0.7701     0.2031 C.ar    
   4 C4             1.3733    -2.1477     0.1247 C.ar    
   5 C5             0.1762    -2.8131    -0.1060 C.ar    
   6 C6            -1.0063    -2.0949    -0.2596 C.ar    
   7 C7            -0.9961    -0.7204    -0.1773 C.ar    
   8 O8             1.2693     2.0118     0.3348 O.2     
   9 O9            -0.9199     2.1231    -0.0209 O.3     
  10 F10            2.5596    -0.1230     0.4270 F       
  11 O11            0.1593    -4.1678    -0.1824 O.3     
  12 C12            2.0274    -5.3427    -1.0802 C.ar    
  13 C13            1.3309    -4.8323     0.0036 C.ar    
  14 C14            1.8458    -5.0078     1.2851 C.ar    
  15 C15            3.0422    -5.6904     1.4270 C.ar    
  16 C16            3.6843    -6.1740     0.2934 C.ar    
  17 N17            3.1655    -5.9880    -0.9082 N.ar    
  18 O18            4.8579    -6.8447     0.4214 O.3     
  19 C19            5.4695    -7.3172    -0.7805 C.3     
  20 C20            6.7725    -8.0425    -0.4387 C.3     
  21 F21            7.6415    -7.1591     0.2107 F       
  22 F22            6.4962    -9.1266     0.4013 F       
  23 Cl23           3.7314    -5.9384     3.0009 Cl      
  24 Cl24          -2.4981    -2.9343    -0.5488 Cl      
  25 C25           -0.8300     3.4779     0.0398 C.ar    
  26 C26           -0.3728     4.1938    -1.0571 C.ar    
  27 C27           -0.6474     6.2355     0.1633 C.ar    
  28 C28           -1.2007     4.1477     1.1969 C.ar    
  29 C29           -0.2827     5.5708    -0.9930 C.ar    
  30 C30           -1.1088     5.5248     1.2559 C.ar    
  31 C31           -0.5477     7.7377     0.2307 C.3     
  32 H32            2.2884    -2.7091     0.2425 H       
  33 H33           -1.9153    -0.1651    -0.2922 H       
  34 H34            1.6321    -5.2144    -2.0770 H       
  35 H35            1.3246    -4.6204     2.1480 H       
  36 H36            4.7925    -8.0055    -1.2864 H       
  37 H37            5.6848    -6.4725    -1.4350 H       
  38 H38            7.2391    -8.4029    -1.3555 H       
  39 H39           -0.0871     3.6750    -1.9602 H       
  40 H40           -1.5611     3.5930     2.0506 H       
  41 H41            0.0731     6.1286    -1.8466 H       
  42 H42           -1.3926     6.0463     2.1581 H       
  43 H43           -1.4868     8.1795    -0.1026 H       
  44 H44           -0.3469     8.0428     1.2576 H       
  45 H45            0.2627     8.0773    -0.4143 H       
@<TRIPOS>BOND
   1    1    2 1
   2    1    8 2
   3    1    9 1
   4    2    3 ar
   5    2    7 ar
   6    3    4 ar
   7    3   10 1
   8    4    5 ar
   9    4   32 1
  10    5    6 ar
  11    5   11 1
  12    6    7 ar
  13    6   24 1
  14    7   33 1
  15    9   25 1
  16   11   13 1
  17   12   13 ar
  18   12   17 ar
  19   12   34 1
  20   13   14 ar
  21   14   15 ar
  22   14   35 1
  23   15   16 ar
  24   15   23 1
  25   16   17 ar
  26   16   18 1
  27   18   19 1
  28   19   20 1
  29   19   36 1
  30   19   37 1
  31   20   21 1
  32   20   22 1
  33   20   38 1
  34   25   26 ar
  35   25   28 ar
  36   26   29 ar
  37   26   39 1
  38   27   29 ar
  39   27   30 ar
  40   27   31 1
  41   28   30 ar
  42   28   40 1
  43   29   41 1
  44   30   42 1
  45   31   43 1
  46   31   44 1
  47   31   45 1

#	End of record

