#	Name: ASD10870005
#	Creating user name:	WinNT
#	Creation time:	15. 06. 2019 21:28

#	Modifying user name:	WinNT
#	Modification time:	15. 06. 2019 21:28

#	Program:	/corina/corina34_cracker 3.40 0067  02.08.2006

@<TRIPOS>MOLECULE
ASD10870005
  48   50    0    0    0
SMALL
NO_CHARGES


@<TRIPOS>ATOM
   1 C1             0.0312     1.7611    -0.3344 C.ar    
   2 C2            -0.0664     0.3808    -0.2704 C.ar    
   3 C3             1.0702    -0.3960    -0.1663 C.ar    
   4 C4             2.3215     0.2040    -0.1257 C.ar    
   5 C5             2.4238     1.6021    -0.1908 C.ar    
   6 C6             1.2649     2.3744    -0.2954 C.ar    
   7 C7             3.7471     2.2519    -0.1481 C.2     
   8 N8             3.8492     3.5847    -0.3203 N.am    
   9 O9             4.7460     1.5851     0.0425 O.2     
  10 N10            3.4688    -0.5773    -0.0203 N.am    
  11 C11            3.4487    -1.7088     0.7116 C.2     
  12 C12            4.6885    -2.4839     0.9054 C.ar    
  13 O13            2.4085    -2.0906     1.2123 O.2     
  14 C14            4.6723    -3.6611     1.6658 C.ar    
  15 C15            5.8442    -4.3820     1.8414 C.ar    
  16 C16            7.0205    -3.9406     1.2691 C.ar    
  17 C17            7.0408    -2.7774     0.5167 C.ar    
  18 C18            5.8849    -2.0519     0.3271 C.ar    
  19 C19            5.0908     4.2141    -0.1853 C.ar    
  20 C20            6.2461     3.5659    -0.5968 C.ar    
  21 C21            5.1677     5.4919     0.3559 C.ar    
  22 C22            6.3936     6.1148     0.4894 C.ar    
  23 C23            7.5471     5.4704     0.0860 C.ar    
  24 C24            7.4769     4.1944    -0.4610 C.ar    
  25 O25            3.5158    -4.0934     2.2278 O.3     
  26 C26            3.5762    -5.3012     2.9891 C.3     
  27 S27            8.9476     3.3760    -0.9825 S.3     
  28 C28           10.2447     4.5854    -0.6011 C.3     
  29 F29           10.2389     4.8583     0.7710 F       
  30 F30           11.4903     4.0645    -0.9677 F       
  31 F31           10.0052     5.7660    -1.3124 F       
  32 H32           -0.8638     2.3596    -0.4199 H       
  33 H33           -1.0375    -0.0906    -0.3016 H       
  34 H34            0.9858    -1.4715    -0.1162 H       
  35 H35            1.3354     3.4509    -0.3460 H       
  36 H36            3.0616     4.1074    -0.5378 H       
  37 H37            4.2827    -0.3073    -0.4737 H       
  38 H38            5.8365    -5.2895     2.4268 H       
  39 H39            7.9305    -4.5053     1.4091 H       
  40 H40            7.9660    -2.4402     0.0731 H       
  41 H41            5.9045    -1.1481    -0.2639 H       
  42 H42            6.1885     2.5746    -1.0215 H       
  43 H43            4.2680     5.9986     0.6723 H       
  44 H44            6.4502     7.1081     0.9097 H       
  45 H45            8.5038     5.9602     0.1917 H       
  46 H46            2.5861    -5.5332     3.3815 H       
  47 H47            3.9140    -6.1170     2.3499 H       
  48 H48            4.2745    -5.1748     3.8164 H       
@<TRIPOS>BOND
   1    1    2 ar
   2    1    6 ar
   3    1   32 1
   4    2    3 ar
   5    2   33 1
   6    3    4 ar
   7    3   34 1
   8    4    5 ar
   9    4   10 1
  10    5    6 ar
  11    5    7 1
  12    6   35 1
  13    7    8 am
  14    7    9 2
  15    8   19 1
  16    8   36 1
  17   10   11 am
  18   10   37 1
  19   11   12 1
  20   11   13 2
  21   12   14 ar
  22   12   18 ar
  23   14   15 ar
  24   14   25 1
  25   15   16 ar
  26   15   38 1
  27   16   17 ar
  28   16   39 1
  29   17   18 ar
  30   17   40 1
  31   18   41 1
  32   19   21 ar
  33   19   20 ar
  34   20   24 ar
  35   20   42 1
  36   21   22 ar
  37   21   43 1
  38   22   23 ar
  39   22   44 1
  40   23   24 ar
  41   23   45 1
  42   24   27 1
  43   25   26 1
  44   26   46 1
  45   26   47 1
  46   26   48 1
  47   27   28 1
  48   28   29 1
  49   28   30 1
  50   28   31 1

#	End of record

