#	Name: ASD13490089
#	Creating user name:	WinNT
#	Creation time:	15. 06. 2019 21:30

#	Modifying user name:	WinNT
#	Modification time:	15. 06. 2019 21:30

#	Program:	/corina/corina34_cracker 3.40 0067  02.08.2006

@<TRIPOS>MOLECULE
ASD13490089
  56   60    0    0    0
SMALL
NO_CHARGES


@<TRIPOS>ATOM
   1 N1            -0.2133     1.0777     0.0706 N.pl3   
   2 C2            -0.2050    -0.2694    -0.1859 C.2     
   3 C3             1.0767    -0.6739    -0.1049 C.2     
   4 N4             1.8347     0.3922     0.1927 N.2     
   5 C5             1.0741     1.4473     0.3004 C.2     
   6 C6             1.5738    -2.0813    -0.3121 C.3     
   7 C7            -1.3334     1.9137     0.0868 C.2     
   8 C8            -1.4755     2.9870    -0.8984 C.2     
   9 N9            -2.5639     3.7807    -0.8636 N.am    
  10 C10           -3.5364     3.5865     0.0898 C.2     
  11 C11           -3.4261     2.5953     1.0166 C.2     
  12 C12           -2.3183     1.7393     1.0201 C.2     
  13 O13           -0.6149     3.1619    -1.7442 O.2     
  14 C14           -4.7248     4.4795     0.1098 C.2     
  15 C15           -2.7045     4.8599    -1.8556 C.3     
  16 N16           -4.9564     5.1761    -1.0265 N.am    
  17 O17           -5.4435     4.5773     1.0856 O.2     
  18 C18           -5.8760     6.2938    -1.2407 C.3     
  19 C19           -4.1787     4.9328    -2.2639 C.3     
  20 C20           -4.4479     6.1360    -3.1828 C.3     
  21 C21           -5.8971     6.5379    -2.7706 C.3     
  22 C22           -7.2764     5.9272    -0.7455 C.3     
  23 C23           -8.1783     7.1297    -0.8535 C.ar    
  24 C24           -9.0223     9.1770     0.0568 C.ar    
  25 C25           -8.1951     8.0739     0.1559 C.ar    
  26 C26           -8.9845     7.2914    -1.9647 C.ar    
  27 C27           -9.8118     8.3944    -2.0638 C.ar    
  28 C28           -9.8332     9.3355    -1.0515 C.ar    
  29 C29           -9.0410    10.2061     1.1576 C.3     
  30 C30          -10.6901     8.5712    -3.2756 C.3     
  31 F31           -8.0846    11.1917     0.8908 F       
  32 F32          -10.3091    10.7932     1.2256 F       
  33 F33           -8.7468     9.5889     2.3781 F       
  34 F34          -11.9263     7.9566    -3.0493 F       
  35 F35          -10.8846     9.9357    -3.5154 F       
  36 F36          -10.0746     7.9855    -4.3870 F       
  37 H37           -1.0621    -0.8873    -0.4097 H       
  38 H38            1.4114     2.4466     0.5332 H       
  39 H39            1.8174    -2.2294    -1.3642 H       
  40 H40            2.4651    -2.2447     0.2937 H       
  41 H41            0.7985    -2.7878    -0.0157 H       
  42 H42           -4.2040     2.4651     1.7545 H       
  43 H43           -2.2399     0.9518     1.7549 H       
  44 H44           -2.3963     5.8082    -1.4153 H       
  45 H45           -2.0902     4.6408    -2.7288 H       
  46 H46           -5.5144     7.1825    -0.7233 H       
  47 H47           -4.4889     4.0009    -2.7367 H       
  48 H48           -3.7510     6.9481    -2.9756 H       
  49 H49           -4.4020     5.8432    -4.2317 H       
  50 H50           -6.6313     5.8959    -3.2574 H       
  51 H51           -6.0896     7.5870    -2.9951 H       
  52 H52           -7.6767     5.1169    -1.3549 H       
  53 H53           -7.2215     5.6065     0.2948 H       
  54 H54           -7.5622     7.9497     1.0222 H       
  55 H55           -8.9678     6.5561    -2.7556 H       
  56 H56          -10.4795    10.1973    -1.1289 H       
@<TRIPOS>BOND
   1    1    2 1
   2    1    5 1
   3    1    7 1
   4    2    3 2
   5    2   37 1
   6    3    4 1
   7    3    6 1
   8    4    5 2
   9    5   38 1
  10    6   39 1
  11    6   40 1
  12    6   41 1
  13    7    8 1
  14    7   12 2
  15    8    9 am
  16    8   13 2
  17    9   15 1
  18    9   10 1
  19   10   11 2
  20   10   14 1
  21   11   12 1
  22   11   42 1
  23   12   43 1
  24   14   16 am
  25   14   17 2
  26   15   19 1
  27   15   44 1
  28   15   45 1
  29   16   19 1
  30   16   18 1
  31   18   21 1
  32   18   22 1
  33   18   46 1
  34   19   20 1
  35   19   47 1
  36   20   21 1
  37   20   48 1
  38   20   49 1
  39   21   50 1
  40   21   51 1
  41   22   23 1
  42   22   52 1
  43   22   53 1
  44   23   26 ar
  45   23   25 ar
  46   24   25 ar
  47   24   28 ar
  48   24   29 1
  49   25   54 1
  50   26   27 ar
  51   26   55 1
  52   27   28 ar
  53   27   30 1
  54   28   56 1
  55   29   31 1
  56   29   32 1
  57   29   33 1
  58   30   34 1
  59   30   35 1
  60   30   36 1

#	End of record

