#	Name: ASD10410201
#	Creating user name:	WinNT
#	Creation time:	15. 06. 2019 21:27

#	Modifying user name:	WinNT
#	Modification time:	15. 06. 2019 21:27

#	Program:	/corina/corina34_cracker 3.40 0067  02.08.2006

@<TRIPOS>MOLECULE
ASD10410201
  61   65    0    0    0
SMALL
NO_CHARGES


@<TRIPOS>ATOM
   1 C1             0.7532     0.5819     0.1196 C.ar    
   2 C2             0.4717    -0.7758     0.1570 C.ar    
   3 C3             1.5067    -1.6991     0.1822 C.ar    
   4 C4             2.8183    -1.2671     0.1701 C.ar    
   5 C5             3.1010     0.0921     0.1326 C.ar    
   6 C6             2.0642     1.0157     0.1074 C.ar    
   7 O7            -0.8196    -1.2021     0.1694 O.3     
   8 N8             4.4302     0.5308     0.1208 N.pl3   
   9 C9             4.7663     1.7197    -0.5261 C.2     
  10 N10            5.9519     2.2800    -0.5191 N.2     
  11 N11            3.9318     2.4675    -1.2577 N.2     
  12 C12            4.5709     3.5188    -1.7241 C.2     
  13 N13            5.8567     3.4520    -1.2869 N.pl3   
  14 C14            6.8772     4.3647    -1.5490 C.ar    
  15 N15            4.0323     4.5120    -2.5191 N.pl3   
  16 N16            6.8207     5.1160    -2.6313 N.ar    
  17 C17           -1.0364    -2.6140     0.2083 C.3     
  18 C18           -2.5396    -2.8991     0.2170 C.3     
  19 N19           -3.1270    -2.4684    -1.0587 N.3     
  20 C20           -3.0571    -0.9983    -1.2049 C.3     
  21 C21           -4.3182    -0.5601    -1.9723 C.3     
  22 C22           -5.1132    -1.8627    -2.2197 C.3     
  23 C23           -4.5702    -2.8136    -1.1236 C.3     
  24 C24            7.9546     4.4809    -0.6552 C.ar    
  25 N25            8.9240     5.3339    -0.8847 N.ar    
  26 C26            8.8892     6.1025    -1.9804 C.ar    
  27 C27            7.8012     5.9917    -2.8815 C.ar    
  28 C28            9.9151     7.0241    -2.2506 C.ar    
  29 C29           -4.7551    -4.2532    -1.5290 C.2     
  30 O30           -3.7926    -4.9707    -1.6656 O.2     
  31 O31           -5.9890    -4.7383    -1.7384 O.3     
  32 C32           -6.0916    -6.1337    -2.1267 C.3     
  33 C33            9.8542     7.7925    -3.3725 C.ar    
  34 C34            8.7868     7.6799    -4.2613 C.ar    
  35 C35            7.7728     6.8021    -4.0296 C.ar    
  36 H36           -0.0533     1.2999     0.0955 H       
  37 H37            1.2866    -2.7560     0.2117 H       
  38 H38            3.6240    -1.9861     0.1901 H       
  39 H39            2.2831     2.0728     0.0779 H       
  40 H40            5.1175     0.0080     0.5625 H       
  41 H41            3.0994     4.4705    -2.7817 H       
  42 H42            4.5870     5.2508    -2.8147 H       
  43 H43           -0.5841    -3.0753    -0.6696 H       
  44 H44           -0.5831    -3.0265     1.1097 H       
  45 H45           -2.7059    -3.9680     0.3510 H       
  46 H46           -3.0082    -2.3530     1.0356 H       
  47 H47           -3.0384    -0.5279    -0.2218 H       
  48 H48           -2.1654    -0.7231    -1.7681 H       
  49 H49           -4.9057     0.1330    -1.3702 H       
  50 H50           -4.0428    -0.0990    -2.9207 H       
  51 H51           -6.1819    -1.6932    -2.0885 H       
  52 H52           -4.9037    -2.2596    -3.2130 H       
  53 H53           -5.0563    -2.6164    -0.1681 H       
  54 H54            7.9847     3.8623     0.2296 H       
  55 H55           10.7483     7.1226    -1.5706 H       
  56 H56           -5.6589    -6.7605    -1.3469 H       
  57 H57           -7.1405    -6.3965    -2.2638 H       
  58 H58           -5.5524    -6.2915    -3.0607 H       
  59 H59           10.6443     8.4999    -3.5765 H       
  60 H60            8.7618     8.3010    -5.1445 H       
  61 H61            6.9521     6.7252    -4.7274 H       
@<TRIPOS>BOND
   1    1    2 ar
   2    1    6 ar
   3    1   36 1
   4    2    3 ar
   5    2    7 1
   6    3    4 ar
   7    3   37 1
   8    4    5 ar
   9    4   38 1
  10    5    6 ar
  11    5    8 1
  12    6   39 1
  13    7   17 1
  14    8    9 1
  15    8   40 1
  16    9   10 2
  17    9   11 1
  18   10   13 1
  19   11   12 2
  20   12   13 1
  21   12   15 1
  22   13   14 1
  23   14   16 ar
  24   14   24 ar
  25   15   41 1
  26   15   42 1
  27   16   27 ar
  28   17   18 1
  29   17   43 1
  30   17   44 1
  31   18   19 1
  32   18   45 1
  33   18   46 1
  34   19   20 1
  35   19   23 1
  36   20   21 1
  37   20   47 1
  38   20   48 1
  39   21   22 1
  40   21   49 1
  41   21   50 1
  42   22   23 1
  43   22   51 1
  44   22   52 1
  45   23   29 1
  46   23   53 1
  47   24   25 ar
  48   24   54 1
  49   25   26 ar
  50   26   27 ar
  51   26   28 ar
  52   27   35 ar
  53   28   33 ar
  54   28   55 1
  55   29   30 2
  56   29   31 1
  57   31   32 1
  58   32   56 1
  59   32   57 1
  60   32   58 1
  61   33   34 ar
  62   33   59 1
  63   34   35 ar
  64   34   60 1
  65   35   61 1

#	End of record

