#	Name: ASD11000052
#	Creating user name:	WinNT
#	Creation time:	15. 06. 2019 21:28

#	Modifying user name:	WinNT
#	Modification time:	15. 06. 2019 21:28

#	Program:	/corina/corina34_cracker 3.40 0067  02.08.2006

@<TRIPOS>MOLECULE
ASD11000052
  62   66    0    0    0
SMALL
NO_CHARGES


@<TRIPOS>ATOM
   1 C1            -1.4399    -0.0486    -0.5611 C.ar    
   2 C2            -0.9264    -1.3099    -0.3300 C.ar    
   3 C3             0.4451    -1.5153    -0.3532 C.ar    
   4 C4             1.3010    -0.4541    -0.6079 C.ar    
   5 C5             0.7875     0.8072    -0.8390 C.ar    
   6 C6            -0.5840     1.0125    -0.8163 C.ar    
   7 O7            -1.0895     2.2542    -1.0442 O.3     
   8 C8            -2.5112     2.3929    -1.0057 C.3     
   9 O9             0.9506    -2.7570    -0.1257 O.3     
  10 C10            2.3723    -2.8959    -0.1647 C.3     
  11 C11            2.7502    -4.3523     0.1123 C.3     
  12 N12            2.2554    -4.7415     1.4370 N.am    
  13 C13            2.1348    -5.2396    -0.9409 C.ar    
  14 C14            1.4369    -6.3840    -0.6239 C.ar    
  15 C15            2.2924    -4.8691    -2.2697 C.ar    
  16 C16            0.9062    -7.1692    -1.6405 C.ar    
  17 C17            1.0639    -6.8069    -2.9653 C.ar    
  18 C18            1.7602    -5.6447    -3.2834 C.ar    
  19 C19            2.2070    -6.1806     1.7443 C.3     
  20 C20            1.2009    -6.8298     0.7954 C.3     
  21 C21            1.8614    -3.8189     2.3370 C.2     
  22 O22            2.0207    -2.6361     2.1046 O.2     
  23 C23            1.2364    -4.2443     3.6048 C.ar    
  24 C24            0.5104    -5.4360     3.6620 C.ar    
  25 C25            1.3745    -3.4584     4.7522 C.ar    
  26 C26            0.7883    -3.8598     5.9362 C.ar    
  27 C27            0.0593    -5.0492     5.9855 C.ar    
  28 C28           -0.0723    -5.8317     4.8465 C.ar    
  29 O29            1.9173    -5.2749    -4.5827 O.3     
  30 C30            2.6438    -4.0697    -4.8308 C.3     
  31 O31            0.5408    -7.5821    -3.9526 O.3     
  32 C32           -0.1613    -8.7596    -3.5497 C.3     
  33 O33            0.7708    -3.2871     7.1756 O.3     
  34 C34           -0.3129    -3.9242     7.8774 C.3     
  35 O35           -0.4115    -5.2182     7.2540 O.3     
  36 H36           -2.5080     0.1104    -0.5474 H       
  37 H37           -1.5929    -2.1361    -0.1309 H       
  38 H38            2.3690    -0.6139    -0.6253 H       
  39 H39            1.4540     1.6337    -1.0370 H       
  40 H40           -2.9597     1.7505    -1.7635 H       
  41 H41           -2.8780     2.1036    -0.0208 H       
  42 H42           -2.7805     3.4305    -1.2033 H       
  43 H43            2.7387    -2.6064    -1.1496 H       
  44 H44            2.8210    -2.2536     0.5931 H       
  45 H45            3.8349    -4.4570     0.0851 H       
  46 H46            2.8347    -3.9675    -2.5136 H       
  47 H47            0.3659    -8.0710    -1.3932 H       
  48 H48            3.1922    -6.6227     1.5960 H       
  49 H49            1.8880    -6.3268     2.7763 H       
  50 H50            0.1916    -6.5488     1.0962 H       
  51 H51            1.3024    -7.9136     0.8523 H       
  52 H52            0.4054    -6.0473     2.7779 H       
  53 H53            1.9391    -2.5386     4.7129 H       
  54 H54           -0.6370    -6.7514     4.8876 H       
  55 H55            3.6527    -4.1643    -4.4292 H       
  56 H56            2.6956    -3.8913    -5.9049 H       
  57 H57            2.1373    -3.2341    -4.3477 H       
  58 H58           -1.0048    -8.4814    -2.9178 H       
  59 H59           -0.5262    -9.2850    -4.4322 H       
  60 H60            0.5115    -9.4107    -2.9915 H       
  61 H61           -0.0757    -4.0265     8.9363 H       
  62 H62           -1.2379    -3.3634     7.7437 H       
@<TRIPOS>BOND
   1    1    2 ar
   2    1    6 ar
   3    1   36 1
   4    2    3 ar
   5    2   37 1
   6    3    4 ar
   7    3    9 1
   8    4    5 ar
   9    4   38 1
  10    5    6 ar
  11    5   39 1
  12    6    7 1
  13    7    8 1
  14    8   40 1
  15    8   41 1
  16    8   42 1
  17    9   10 1
  18   10   11 1
  19   10   43 1
  20   10   44 1
  21   11   12 1
  22   11   13 1
  23   11   45 1
  24   12   19 1
  25   12   21 am
  26   13   14 ar
  27   13   15 ar
  28   14   16 ar
  29   14   20 1
  30   15   18 ar
  31   15   46 1
  32   16   17 ar
  33   16   47 1
  34   17   18 ar
  35   17   31 1
  36   18   29 1
  37   19   20 1
  38   19   48 1
  39   19   49 1
  40   20   50 1
  41   20   51 1
  42   21   22 2
  43   21   23 1
  44   23   24 ar
  45   23   25 ar
  46   24   28 ar
  47   24   52 1
  48   25   26 ar
  49   25   53 1
  50   26   27 ar
  51   26   33 1
  52   27   28 ar
  53   27   35 1
  54   28   54 1
  55   29   30 1
  56   30   55 1
  57   30   56 1
  58   30   57 1
  59   31   32 1
  60   32   58 1
  61   32   59 1
  62   32   60 1
  63   33   34 1
  64   34   35 1
  65   34   61 1
  66   34   62 1

#	End of record

