#	Name: ASD10410302
#	Creating user name:	WinNT
#	Creation time:	15. 06. 2019 21:27

#	Modifying user name:	WinNT
#	Modification time:	15. 06. 2019 21:27

#	Program:	/corina/corina34_cracker 3.40 0067  02.08.2006

@<TRIPOS>MOLECULE
ASD10410302
  63   69    0    0    0
SMALL
NO_CHARGES


@<TRIPOS>ATOM
   1 C1             1.1397    -0.5650    -0.4966 C.ar    
   2 C2            -0.0088     0.0145     0.0222 C.ar    
   3 C3             0.0356     1.2958     0.5317 C.ar    
   4 C4             1.2277     2.0019     0.5168 C.ar    
   5 C5             2.3770     1.4250    -0.0040 C.ar    
   6 C6             2.3293     0.1330    -0.5119 C.ar    
   7 N7             3.5770     2.1407    -0.0180 N.pl3   
   8 C8             3.5582     3.5327    -0.1130 C.2     
   9 N9             4.6074     4.3156    -0.0345 N.2     
  10 N10            2.4674     4.2836    -0.3048 N.2     
  11 C11            2.8062     5.5545    -0.3458 C.2     
  12 N12            4.1468     5.6341    -0.1802 N.pl3   
  13 N13            1.9449     6.6201    -0.5289 N.pl3   
  14 C14            4.9205     6.7989    -0.1585 C.ar    
  15 C15           -1.2864    -0.7854     0.0053 C.3     
  16 C16           -2.3015    -0.1686     0.9678 C.3     
  17 N17           -2.4019     1.2714     0.6823 N.3     
  18 C18           -1.1829     1.9611     1.1163 C.3     
  19 C19            6.1347     6.7954     0.5131 C.ar    
  20 N20            4.4793     7.8855    -0.7868 N.ar    
  21 C21            5.1770     8.9843    -0.7847 C.ar    
  22 C22            6.4082     9.0701    -0.1276 C.ar    
  23 C23            6.9117     7.9613     0.5365 C.ar    
  24 C24            4.7816    10.2832    -1.4631 C.3     
  25 C25            4.7841    11.3613    -0.3599 C.3     
  26 C26            6.1346    11.3485     0.3597 C.3     
  27 N27            7.0221    10.3238    -0.2245 N.3     
  28 C28            7.2566    10.6437    -1.6463 C.3     
  29 C29            5.9375    10.6355    -2.4219 C.3     
  30 C30            8.2132     8.0094     1.2458 C.ar    
  31 C31            8.3104     7.5577     2.5607 C.ar    
  32 C32            9.5243     7.6044     3.2156 C.ar    
  33 C33           10.6431     8.0988     2.5696 C.ar    
  34 C34           10.5524     8.5489     1.2648 C.ar    
  35 C35            9.3451     8.5012     0.5979 C.ar    
  36 H36            1.1033    -1.5712    -0.8872 H       
  37 H37            1.2623     3.0063     0.9122 H       
  38 H38            3.2203    -0.3234    -0.9170 H       
  39 H39            4.4232     1.6699     0.0384 H       
  40 H40            0.9945     6.4617    -0.6413 H       
  41 H41            2.2908     7.5261    -0.5449 H       
  42 H42           -1.6990    -0.7869    -1.0036 H       
  43 H43           -1.0755    -1.8105     0.3099 H       
  44 H44           -3.2744    -0.6389     0.8246 H       
  45 H45           -1.9683    -0.3158     1.9951 H       
  46 H46           -2.5803     1.4343    -0.2973 H       
  47 H47           -1.1213     1.9337     2.2042 H       
  48 H48           -1.2195     2.9994     0.7866 H       
  49 H49            6.4777     5.9020     1.0137 H       
  50 H50            3.8185    10.2101    -1.9683 H       
  51 H51            4.6205    12.3410    -0.8086 H       
  52 H52            3.9890    11.1513     0.3555 H       
  53 H53            6.6032    12.3279     0.2626 H       
  54 H54            5.9775    11.1287     1.4157 H       
  55 H55            7.7135    11.6303    -1.7230 H       
  56 H56            7.9315     9.9032    -2.0756 H       
  57 H57            5.9885     9.8930    -3.2182 H       
  58 H58            5.7637    11.6210    -2.8541 H       
  59 H59            7.4374     7.1722     3.0663 H       
  60 H60            9.6008     7.2546     4.2346 H       
  61 H61           11.5909     8.1338     3.0861 H       
  62 H62           11.4291     8.9342     0.7654 H       
  63 H63            9.2754     8.8529    -0.4208 H       
@<TRIPOS>BOND
   1    1    2 ar
   2    1    6 ar
   3    1   36 1
   4    2    3 ar
   5    2   15 1
   6    3    4 ar
   7    3   18 1
   8    4    5 ar
   9    4   37 1
  10    5    6 ar
  11    5    7 1
  12    6   38 1
  13    7    8 1
  14    7   39 1
  15    8    9 2
  16    8   10 1
  17    9   12 1
  18   10   11 2
  19   11   12 1
  20   11   13 1
  21   12   14 1
  22   13   40 1
  23   13   41 1
  24   14   19 ar
  25   14   20 ar
  26   15   16 1
  27   15   42 1
  28   15   43 1
  29   16   17 1
  30   16   44 1
  31   16   45 1
  32   17   18 1
  33   17   46 1
  34   18   47 1
  35   18   48 1
  36   19   23 ar
  37   19   49 1
  38   20   21 ar
  39   21   22 ar
  40   21   24 1
  41   22   23 ar
  42   22   27 1
  43   23   30 1
  44   24   25 1
  45   24   29 1
  46   24   50 1
  47   25   26 1
  48   25   51 1
  49   25   52 1
  50   26   27 1
  51   26   53 1
  52   26   54 1
  53   27   28 1
  54   28   29 1
  55   28   55 1
  56   28   56 1
  57   29   57 1
  58   29   58 1
  59   30   31 ar
  60   30   35 ar
  61   31   32 ar
  62   31   59 1
  63   32   33 ar
  64   32   60 1
  65   33   34 ar
  66   33   61 1
  67   34   35 ar
  68   34   62 1
  69   35   63 1

#	End of record

