#	Name: ASD10420127
#	Creating user name:	WinNT
#	Creation time:	15. 06. 2019 21:27

#	Modifying user name:	WinNT
#	Modification time:	15. 06. 2019 21:27

#	Program:	/corina/corina34_cracker 3.40 0067  02.08.2006

@<TRIPOS>MOLECULE
ASD10420127
  64   67    0    0    0
SMALL
NO_CHARGES


@<TRIPOS>ATOM
   1 C1             2.4887     0.9461    -3.7847 C.ar    
   2 C2             2.3293    -0.4004    -3.5501 C.ar    
   3 C3             3.4235    -1.2610    -3.6495 C.ar    
   4 C4             4.6805    -0.7573    -3.9869 C.ar    
   5 C5             4.8425     0.5889    -4.2220 C.ar    
   6 C6             3.7473     1.4520    -4.1227 C.ar    
   7 C7             3.2505    -2.7108    -3.3961 C.ar    
   8 C8             4.3426    -3.5727    -3.4949 C.ar    
   9 C9             4.1785    -4.9208    -3.2581 C.ar    
  10 C10            2.9273    -5.4210    -2.9220 C.ar    
  11 C11            1.8378    -4.5655    -2.8228 C.ar    
  12 C12            1.9965    -3.2155    -3.0527 C.ar    
  13 C13            3.9195     2.8954    -4.3750 C.2     
  14 O14            2.9672     3.6450    -4.2890 O.2     
  15 O15            5.1329     3.3824    -4.7008 O.3     
  16 O16            2.7686    -6.7500    -2.6901 O.3     
  17 C17            1.4549    -7.1968    -2.3489 C.3     
  18 C18            1.4726    -8.7104    -2.1263 C.3     
  19 C19            0.0838   -10.7023    -1.5384 C.3     
  20 C20            0.0660    -9.1887    -1.7610 C.3     
  21 O21           -1.2300   -11.1491    -1.1972 O.3     
  22 C22           -1.3888   -12.4796    -0.9651 C.ar    
  23 C23           -2.6381   -12.9803    -0.6293 C.ar    
  24 C24           -2.8004   -14.3313    -0.3939 C.ar    
  25 C25           -1.7124   -15.1887    -0.4934 C.ar    
  26 C26           -0.4620   -14.6865    -0.8297 C.ar    
  27 C27           -0.3026   -13.3360    -1.0699 C.ar    
  28 N28           -1.8758   -16.5581    -0.2545 N.pl3   
  29 C29           -0.7748   -17.4038    -0.2815 C.ar    
  30 C30           -0.5219   -18.1857    -1.4019 C.ar    
  31 C31            0.5728   -19.0252    -1.4262 C.ar    
  32 C32            1.4276   -19.0961    -0.3375 C.ar    
  33 C33            1.1939   -18.3289     0.7826 C.ar    
  34 C34            0.0926   -17.4693     0.8214 C.ar    
  35 C35           -0.1603   -16.6420     2.0134 C.2     
  36 O36           -1.1728   -15.9738     2.0856 O.2     
  37 O37            0.7312   -16.6259     3.0240 O.3     
  38 H38            1.6409     1.6112    -3.7121 H       
  39 H39            1.3571    -0.7914    -3.2886 H       
  40 H40            5.5266    -1.4242    -4.0632 H       
  41 H41            5.8155     0.9785    -4.4827 H       
  42 H42            5.3158    -3.1845    -3.7570 H       
  43 H43            5.0237    -5.5888    -3.3344 H       
  44 H44            0.8660    -4.9577    -2.5616 H       
  45 H45            1.1497    -2.5501    -2.9714 H       
  46 H46            5.1964     4.3346    -4.8568 H       
  47 H47            1.1275    -6.6991    -1.4361 H       
  48 H48            0.7674    -6.9569    -3.1601 H       
  49 H49            1.8000    -9.2081    -3.0392 H       
  50 H50            2.1601    -8.9503    -1.3152 H       
  51 H51            0.4111   -11.2000    -2.4513 H       
  52 H52            0.7712   -10.9422    -0.7273 H       
  53 H53           -0.2613    -8.6911    -0.8482 H       
  54 H54           -0.6214    -8.9488    -2.5722 H       
  55 H55           -3.4840   -12.3134    -0.5516 H       
  56 H56           -3.7730   -14.7210    -0.1321 H       
  57 H57            0.3847   -15.3525    -0.9073 H       
  58 H58            0.6688   -12.9458    -1.3355 H       
  59 H59           -2.7582   -16.9163    -0.0701 H       
  60 H60           -1.1830   -18.1364    -2.2545 H       
  61 H61            0.7647   -19.6314    -2.2992 H       
  62 H62            2.2815   -19.7567    -0.3673 H       
  63 H63            1.8630   -18.3888     1.6282 H       
  64 H64            0.5217   -16.0677     3.7854 H       
@<TRIPOS>BOND
   1    1    2 ar
   2    1    6 ar
   3    1   38 1
   4    2    3 ar
   5    2   39 1
   6    3    4 ar
   7    3    7 1
   8    4    5 ar
   9    4   40 1
  10    5    6 ar
  11    5   41 1
  12    6   13 1
  13    7    8 ar
  14    7   12 ar
  15    8    9 ar
  16    8   42 1
  17    9   10 ar
  18    9   43 1
  19   10   11 ar
  20   10   16 1
  21   11   12 ar
  22   11   44 1
  23   12   45 1
  24   13   14 2
  25   13   15 1
  26   15   46 1
  27   16   17 1
  28   17   18 1
  29   17   47 1
  30   17   48 1
  31   18   20 1
  32   18   49 1
  33   18   50 1
  34   19   20 1
  35   19   21 1
  36   19   51 1
  37   19   52 1
  38   20   53 1
  39   20   54 1
  40   21   22 1
  41   22   23 ar
  42   22   27 ar
  43   23   24 ar
  44   23   55 1
  45   24   25 ar
  46   24   56 1
  47   25   26 ar
  48   25   28 1
  49   26   27 ar
  50   26   57 1
  51   27   58 1
  52   28   29 1
  53   28   59 1
  54   29   30 ar
  55   29   34 ar
  56   30   31 ar
  57   30   60 1
  58   31   32 ar
  59   31   61 1
  60   32   33 ar
  61   32   62 1
  62   33   34 ar
  63   33   63 1
  64   34   35 1
  65   35   36 2
  66   35   37 1
  67   37   64 1

#	End of record

