#	Name: ASD14980001
#	Creating user name:	WinNT
#	Creation time:	15. 06. 2019 21:31

#	Modifying user name:	WinNT
#	Modification time:	15. 06. 2019 21:31

#	Program:	/corina/corina34_cracker 3.40 0067  02.08.2006

@<TRIPOS>MOLECULE
ASD14980001
  26   26    0    0    0
SMALL
NO_CHARGES


@<TRIPOS>ATOM
   1 O1            -0.0164     1.3556     0.0095 O.3     
   2 O2            -0.0459    -4.1322    -0.0071 O.3     
   3 O3            -2.2141     4.1914    -0.6784 O.3     
   4 O4            -0.0647     3.7689    -0.9699 O.2     
   5 C5            -1.2861     2.0112     0.0152 C.3     
   6 C6            -0.0237    -0.0042     0.0054 C.ar    
   7 C7            -1.7933     2.1280     1.4539 C.3     
   8 C8            -1.2229    -0.6916     0.1199 C.ar    
   9 C9             1.1675    -0.7037    -0.1191 C.ar    
  10 C10           -0.0386    -2.7724    -0.0035 C.ar    
  11 C11           -1.2303    -2.0729     0.1157 C.ar    
  12 C12            1.1600    -2.0850    -0.1233 C.ar    
  13 C13           -1.1432     3.3881    -0.5805 C.2     
  14 C14            1.2178    -4.7874    -0.1332 C.3     
  15 H15           -1.9966     1.4321    -0.5747 H       
  16 H16           -1.8967     1.1321     1.8847 H       
  17 H17           -1.0828     2.7071     2.0438 H       
  18 H18           -2.7618     2.6281     1.4583 H       
  19 H19           -2.1508    -0.1469     0.2126 H       
  20 H20            2.1008    -0.1684    -0.2130 H       
  21 H21           -2.1640    -2.6081     0.2056 H       
  22 H22            2.0875    -2.6297    -0.2205 H       
  23 H23            1.6868    -4.4945    -1.0725 H       
  24 H24            1.8605    -4.5002     0.6990 H       
  25 H25            1.0698    -5.8673    -0.1222 H       
  26 H26           -2.0731     5.0655    -1.0673 H       
@<TRIPOS>BOND
   1    1    6 1
   2    1    5 1
   3    2   10 1
   4    2   14 1
   5    3   13 1
   6    3   26 1
   7    4   13 2
   8    5    7 1
   9    5   13 1
  10    5   15 1
  11    6    8 ar
  12    6    9 ar
  13    7   16 1
  14    7   17 1
  15    7   18 1
  16    8   11 ar
  17    8   19 1
  18    9   12 ar
  19    9   20 1
  20   10   11 ar
  21   10   12 ar
  22   11   21 1
  23   12   22 1
  24   14   23 1
  25   14   24 1
  26   14   25 1

#	End of record

