#	Name: ASD10160393
#	Creating user name:	WinNT
#	Creation time:	15. 06. 2019 21:25

#	Modifying user name:	WinNT
#	Modification time:	15. 06. 2019 21:25

#	Program:	/corina/corina34_cracker 3.40 0067  02.08.2006

@<TRIPOS>MOLECULE
ASD10160393
  48   50    0    0    0
SMALL
NO_CHARGES


@<TRIPOS>ATOM
   1 C1            -0.0168     1.3889     0.0097 C.ar    
   2 C2             0.0021    -0.0041     0.0020 C.ar    
   3 C3             1.2158    -0.6614    -0.0131 C.ar    
   4 C4             2.3884     0.1057    -0.0201 C.ar    
   5 C5             2.2879     1.4955    -0.0117 C.ar    
   6 N6             1.1101     2.0839     0.0027 N.ar    
   7 O7             5.0836     0.0406    -0.0456 O.3     
   8 B8             3.7953    -0.5908    -0.0368 Du      
   9 O9             4.0744    -1.9980    -0.0460 O.3     
  10 C10            5.2090    -2.1512     0.8327 C.3     
  11 C11            5.8932    -0.7690     0.8329 C.3     
  12 C12            7.3198    -0.8802     0.2914 C.3     
  13 C13            5.9020    -0.1787     2.2445 C.3     
  14 C14            4.7448    -2.5165     2.2440 C.3     
  15 C15            6.1626    -3.2180     0.2910 C.3     
  16 O16           -1.2044     2.0411     0.0188 O.3     
  17 C17           -1.1600     3.4694     0.0264 C.3     
  18 C18           -2.3961     4.0219    -0.6861 C.3     
  19 C19           -2.3486     5.5511    -0.6780 C.3     
  20 C20           -2.3260     6.0530     0.7672 C.3     
  21 C21           -1.0898     5.5006     1.4796 C.3     
  22 C22           -1.1373     3.9713     1.4715 C.3     
  23 F23           -2.2825     7.4513     0.7746 F       
  24 F24           -3.4791     5.6188     1.4297 F       
  25 Cl25          -1.4833    -0.9026     0.0119 Cl      
  26 H26            1.2606    -1.7405    -0.0189 H       
  27 H27            3.1854     2.0962    -0.0170 H       
  28 H28            7.7688     0.1119     0.2438 H       
  29 H29            7.9106    -1.5151     0.9518 H       
  30 H30            7.2965    -1.3168    -0.7070 H       
  31 H31            4.8806    -0.1215     2.6207 H       
  32 H32            6.4958    -0.8151     2.9007 H       
  33 H33            6.3358     0.8208     2.2176 H       
  34 H34            4.2130    -3.4676     2.2168 H       
  35 H35            5.6107    -2.6031     2.9003 H       
  36 H36            4.0799    -1.7391     2.6204 H       
  37 H37            6.4957    -2.9344    -0.7073 H       
  38 H38            7.0255    -3.3031     0.9515 H       
  39 H39            5.6459    -4.1766     0.2430 H       
  40 H40           -0.2616     3.8078    -0.4899 H       
  41 H41           -2.4123     3.6643    -1.7156 H       
  42 H42           -3.2945     3.6836    -0.1699 H       
  43 H43           -1.4502     5.8894    -1.1942 H       
  44 H44           -3.2293     5.9447    -1.1856 H       
  45 H45           -0.1914     5.8389     0.9634 H       
  46 H46           -1.0737     5.8582     2.5092 H       
  47 H47           -2.0358     3.6330     1.9878 H       
  48 H48           -0.2567     3.5778     1.9791 H       
@<TRIPOS>BOND
   1    1    2 ar
   2    1    6 ar
   3    1   16 1
   4    2    3 ar
   5    2   25 1
   6    3    4 ar
   7    3   26 1
   8    4    5 ar
   9    4    8 1
  10    5    6 ar
  11    5   27 1
  12    7    8 1
  13    7   11 1
  14    8    9 1
  15    9   10 1
  16   10   11 1
  17   10   14 1
  18   10   15 1
  19   11   12 1
  20   11   13 1
  21   12   28 1
  22   12   29 1
  23   12   30 1
  24   13   31 1
  25   13   32 1
  26   13   33 1
  27   14   34 1
  28   14   35 1
  29   14   36 1
  30   15   37 1
  31   15   38 1
  32   15   39 1
  33   16   17 1
  34   17   18 1
  35   17   22 1
  36   17   40 1
  37   18   19 1
  38   18   41 1
  39   18   42 1
  40   19   20 1
  41   19   43 1
  42   19   44 1
  43   20   21 1
  44   20   23 1
  45   20   24 1
  46   21   22 1
  47   21   45 1
  48   21   46 1
  49   22   47 1
  50   22   48 1

#	End of record

