#	Name: ASD10610185
#	Creating user name:	WinNT
#	Creation time:	15. 06. 2019 21:28

#	Modifying user name:	WinNT
#	Modification time:	15. 06. 2019 21:28

#	Program:	/corina/corina34_cracker 3.40 0067  02.08.2006

@<TRIPOS>MOLECULE
ASD10610185
  53   55    0    0    0
SMALL
NO_CHARGES


@<TRIPOS>ATOM
   1 C1             0.0187     1.3927    -0.5140 C.ar    
   2 C2             0.0406    -0.0103    -0.6230 C.ar    
   3 C3             1.2641    -0.6724    -0.7475 C.ar    
   4 C4             2.4407     0.0510    -0.7627 C.ar    
   5 C5             2.4160     1.4308    -0.6548 C.ar    
   6 C6             1.2153     2.1022    -0.5315 C.ar    
   7 C7            -1.2715     2.1104    -0.3875 C.ar    
   8 C8            -1.4510     3.0542     0.6230 C.ar    
   9 C9            -2.6565     3.7205     0.7355 C.ar    
  10 C10           -3.6846     3.4510    -0.1537 C.ar    
  11 C11           -3.5103     2.5156    -1.1571 C.ar    
  12 C12           -2.3084     1.8485    -1.2820 C.ar    
  13 C13           -1.2191    -0.7758    -0.6056 C.2     
  14 O14           -1.8016    -1.0109    -1.6457 O.2     
  15 O15           -1.7246    -1.2149     0.5639 O.3     
  16 C16           -4.9977     4.1795    -0.0264 C.3     
  17 C17           -4.9106     5.5196    -0.7595 C.3     
  18 N18           -6.0654     3.3684    -0.6167 N.am    
  19 C19           -7.3390     3.5289    -0.2060 C.2     
  20 O20           -7.5897     4.2788     0.7137 O.2     
  21 O21           -9.5581     1.9305     0.6426 O.3     
  22 C22           -8.6916     1.3621    -0.3479 C.3     
  23 C23           -8.4516     2.7767    -0.8896 C.3     
  24 C24           -9.8399     2.9947    -0.2755 C.3     
  25 N25           -8.4094     2.8702    -2.3510 N.am    
  26 C26           -8.4452     4.0769    -2.9503 C.2     
  27 O27           -8.4193     5.0876    -2.2805 O.2     
  28 C28           -8.5175     4.1701    -4.4527 C.3     
  29 F29           -8.5438     5.5154    -4.8357 F       
  30 F30           -7.3969     3.5476    -5.0130 F       
  31 F31           -9.6788     3.5340    -4.9041 F       
  32 F32           -2.8330     4.6355     1.7137 F       
  33 Cl33           1.3061    -2.4027    -0.8823 Cl      
  34 C34           -2.9682    -1.9620     0.5054 C.3     
  35 H35            3.3857    -0.4630    -0.8589 H       
  36 H36            3.3421     1.9862    -0.6674 H       
  37 H37            1.2053     3.1789    -0.4482 H       
  38 H38           -0.6499     3.2638     1.3164 H       
  39 H39           -4.3150     2.3095    -1.8473 H       
  40 H40           -2.1729     1.1213    -2.0689 H       
  41 H41           -5.2151     4.3551     1.0272 H       
  42 H42           -4.1162     6.1230    -0.3203 H       
  43 H43           -4.6932     5.3439    -1.8130 H       
  44 H44           -5.8603     6.0465    -0.6674 H       
  45 H45           -5.8557     2.7159    -1.3031 H       
  46 H46           -7.7972     0.9020     0.0723 H       
  47 H47           -9.2085     0.7107    -1.0526 H       
  48 H48          -10.6567     2.7697    -0.9614 H       
  49 H49           -9.9517     3.9652     0.2080 H       
  50 H50           -8.3557     2.0637    -2.8872 H       
  51 H51           -3.7465    -1.3383     0.0657 H       
  52 H52           -2.8282    -2.8533    -0.1062 H       
  53 H53           -3.2636    -2.2553     1.5128 H       
@<TRIPOS>BOND
   1    1    2 ar
   2    1    6 ar
   3    1    7 1
   4    2    3 ar
   5    2   13 1
   6    3    4 ar
   7    3   33 1
   8    4    5 ar
   9    4   35 1
  10    5    6 ar
  11    5   36 1
  12    6   37 1
  13    7    8 ar
  14    7   12 ar
  15    8    9 ar
  16    8   38 1
  17    9   10 ar
  18    9   32 1
  19   10   11 ar
  20   10   16 1
  21   11   12 ar
  22   11   39 1
  23   12   40 1
  24   13   14 2
  25   13   15 1
  26   15   34 1
  27   16   17 1
  28   16   18 1
  29   16   41 1
  30   17   42 1
  31   17   43 1
  32   17   44 1
  33   18   19 am
  34   18   45 1
  35   19   20 2
  36   19   23 1
  37   21   22 1
  38   21   24 1
  39   22   23 1
  40   22   46 1
  41   22   47 1
  42   23   24 1
  43   23   25 1
  44   24   48 1
  45   24   49 1
  46   25   26 am
  47   25   50 1
  48   26   27 2
  49   26   28 1
  50   28   29 1
  51   28   30 1
  52   28   31 1
  53   34   51 1
  54   34   52 1
  55   34   53 1

#	End of record

