#	Name: ASD11030033
#	Creating user name:	WinNT
#	Creation time:	15. 06. 2019 21:29

#	Modifying user name:	WinNT
#	Modification time:	15. 06. 2019 21:29

#	Program:	/corina/corina34_cracker 3.40 0067  02.08.2006

@<TRIPOS>MOLECULE
ASD11030033
  76   81    0    0    0
SMALL
NO_CHARGES


@<TRIPOS>ATOM
   1 C1             3.0629     4.7177    -6.3999 C.ar    
   2 C2             2.0240     3.8405    -6.1221 C.ar    
   3 C3             2.0201     3.1505    -4.9231 C.ar    
   4 N4             2.9872     3.3152    -4.0445 N.ar    
   5 C5             3.9996     4.1449    -4.2712 C.ar    
   6 C6             4.0666     4.8725    -5.4597 C.ar    
   7 C7             5.0636     4.2984    -3.2563 C.2     
   8 C8             5.4548     3.3406    -2.3782 C.2     
   9 C9             6.4933     3.8813    -1.5821 C.ar    
  10 C10            6.7017     5.2028    -2.0260 C.ar    
  11 N11            5.8160     5.4324    -3.0578 N.pl3   
  12 C12            7.2670     3.3654    -0.5324 C.ar    
  13 C13            8.2179     4.1403     0.0574 C.ar    
  14 C14            8.4323     5.4564    -0.3775 C.ar    
  15 C15            7.6730     5.9847    -1.4189 C.ar    
  16 C16            5.6907     6.6820    -3.8121 C.3     
  17 C17            4.8856     1.9495    -2.2699 C.3     
  18 C18            9.4669     6.2852     0.2713 C.2     
  19 N19           10.2031     5.7771     1.2794 N.am    
  20 O20            9.6551     7.4264    -0.1037 O.2     
  21 C21           11.3040     6.5584     1.8486 C.3     
  22 C22           10.8347     7.8100     2.5444 C.2     
  23 N23            9.6420     7.8254     3.1720 N.am    
  24 O24           11.5302     8.8036     2.5396 O.2     
  25 C25            9.2324     8.9653     3.8632 C.ar    
  26 C26            8.5539     8.8375     5.0716 C.ar    
  27 C27            8.1482     9.9594     5.7574 C.ar    
  28 C28            8.4190    11.2310     5.2376 C.ar    
  29 C29            9.1019    11.3547     4.0216 C.ar    
  30 C30            9.5084    10.2273     3.3454 C.ar    
  31 C31           12.2864     5.7206     2.6840 C.3     
  32 C32           13.4128     6.5555     2.0523 C.3     
  33 C33           12.4623     6.7974     0.8657 C.3     
  34 C34            7.9874    12.4320     5.9660 C.2     
  35 C35            8.2498    13.6580     5.4626 C.2     
  36 C36            5.9903     0.9072    -2.5166 C.3     
  37 C37            6.0966     0.0644    -1.2288 C.3     
  38 C38            4.7105     0.2224    -0.5560 C.3     
  39 C39            4.3591     1.7038    -0.8408 C.3     
  40 C40            7.8333    14.8169     6.1653 C.2     
  41 O41            7.2398    14.7072     7.2215 O.2     
  42 O42            8.0954    16.0413     5.6626 O.3     
  43 H43            3.0898     5.2642    -7.3310 H       
  44 H44            1.2257     3.6981    -6.8353 H       
  45 H45            1.2126     2.4675    -4.7044 H       
  46 H46            4.8899     5.5468    -5.6434 H       
  47 H47            7.1080     2.3530    -0.1916 H       
  48 H48            8.8109     3.7393     0.8660 H       
  49 H49            7.8397     6.9984    -1.7518 H       
  50 H50            6.2770     6.6136    -4.7285 H       
  51 H51            4.6435     6.8517    -4.0626 H       
  52 H52            6.0583     7.5104    -3.2065 H       
  53 H53            4.0804     1.8184    -2.9929 H       
  54 H54           10.0041     4.8941     1.6281 H       
  55 H55            9.0686     7.0436     3.1428 H       
  56 H56            8.3452     7.8562     5.4716 H       
  57 H57            7.6215     9.8593     6.6949 H       
  58 H58            9.3126    12.3336     3.6168 H       
  59 H59           10.0355    10.3217     2.4075 H       
  60 H60           12.1827     5.8694     3.7588 H       
  61 H61           12.3122     4.6681     2.4018 H       
  62 H62           13.6511     7.4608     2.6108 H       
  63 H63           14.2963     5.9719     1.7934 H       
  64 H64           12.5358     6.0394     0.0859 H       
  65 H65           12.5022     7.8139     0.4744 H       
  66 H66            7.4605    12.3347     6.9037 H       
  67 H67            8.7767    13.7554     4.5249 H       
  68 H68            5.7209     0.2697    -3.3588 H       
  69 H69            6.9382     1.4075    -2.7147 H       
  70 H70            6.2859    -0.9812    -1.4717 H       
  71 H71            6.8817     0.4548    -0.5812 H       
  72 H72            3.9799    -0.4432    -1.0157 H       
  73 H73            4.7788     0.0409     0.5166 H       
  74 H74            4.8636     2.3588    -0.1305 H       
  75 H75            3.2803     1.8545    -0.8005 H       
  76 H76            7.7731    16.7691     6.2117 H       
@<TRIPOS>BOND
   1    1    2 ar
   2    1    6 ar
   3    1   43 1
   4    2    3 ar
   5    2   44 1
   6    3    4 ar
   7    3   45 1
   8    4    5 ar
   9    5    6 ar
  10    5    7 1
  11    6   46 1
  12    7    8 2
  13    7   11 1
  14    8    9 1
  15    8   17 1
  16    9   10 ar
  17    9   12 ar
  18   10   11 1
  19   10   15 ar
  20   11   16 1
  21   12   13 ar
  22   12   47 1
  23   13   14 ar
  24   13   48 1
  25   14   15 ar
  26   14   18 1
  27   15   49 1
  28   16   50 1
  29   16   51 1
  30   16   52 1
  31   17   36 1
  32   17   39 1
  33   17   53 1
  34   18   19 am
  35   18   20 2
  36   19   21 1
  37   19   54 1
  38   21   22 1
  39   21   31 1
  40   21   33 1
  41   22   23 am
  42   22   24 2
  43   23   25 1
  44   23   55 1
  45   25   26 ar
  46   25   30 ar
  47   26   27 ar
  48   26   56 1
  49   27   28 ar
  50   27   57 1
  51   28   29 ar
  52   28   34 1
  53   29   30 ar
  54   29   58 1
  55   30   59 1
  56   31   32 1
  57   31   60 1
  58   31   61 1
  59   32   33 1
  60   32   62 1
  61   32   63 1
  62   33   64 1
  63   33   65 1
  64   34   35 2
  65   34   66 1
  66   35   40 1
  67   35   67 1
  68   36   37 1
  69   36   68 1
  70   36   69 1
  71   37   38 1
  72   37   70 1
  73   37   71 1
  74   38   39 1
  75   38   72 1
  76   38   73 1
  77   39   74 1
  78   39   75 1
  79   40   41 2
  80   40   42 1
  81   42   76 1

#	End of record

