#	Name: ASD11920037
#	Creating user name:	WinNT
#	Creation time:	15. 06. 2019 21:29

#	Modifying user name:	WinNT
#	Modification time:	15. 06. 2019 21:29

#	Program:	/corina/corina34_cracker 3.40 0067  02.08.2006

@<TRIPOS>MOLECULE
ASD11920037
  41   43    0    0    0
SMALL
NO_CHARGES


@<TRIPOS>ATOM
   1 Cl1           -1.5584     5.6312    -2.5952 Cl      
   2 C2            -0.1504     1.9727    -1.8480 C.ar    
   3 N3            -0.3134     0.5902    -1.8310 N.am    
   4 C4             0.8767     0.0295    -1.5304 C.2     
   5 S5             1.2765    -1.6260    -1.7047 S.2     
   6 C6             1.1648     2.2443    -1.4555 C.ar    
   7 N7             1.6877     0.9837    -1.0753 N.am    
   8 C8             2.7922     0.8670    -0.1226 C.3     
   9 C9             3.9566     1.7245    -0.5449 C.3     
  10 N10            3.7414     3.1231    -0.3245 N.3     
  11 C11            3.1401     3.8734    -1.4078 C.3     
  12 C12            1.6917     3.4983    -1.6200 C.ar    
  13 C13            0.8394     4.5392    -1.9872 C.ar    
  14 C14           -0.5018     4.3055    -2.2209 C.ar    
  15 C15           -1.0057     3.0203    -2.1574 C.ar    
  16 C16            5.1962     1.2892     0.2392 C.3     
  17 C17            4.9686     3.7761     0.1504 C.3     
  18 C18            4.7249     5.2558     0.2995 C.2     
  19 C19            5.4751     6.1118    -0.3491 C.2     
  20 C20            6.6222     5.6198    -1.1935 C.3     
  21 C21            5.1910     7.5885    -0.2507 C.3     
  22 H22           -1.1396     0.1126    -2.0046 H       
  23 H23            2.4512     1.1854     0.8626 H       
  24 H24            3.1131    -0.1734    -0.0712 H       
  25 H25            4.1430     1.5625    -1.6065 H       
  26 H26            3.2008     4.9373    -1.1786 H       
  27 H27            3.6950     3.6777    -2.3253 H       
  28 H28            1.2326     5.5399    -2.0899 H       
  29 H29           -2.0524     2.8335    -2.3467 H       
  30 H30            5.4114     0.2420     0.0267 H       
  31 H31            6.0473     1.9024    -0.0571 H       
  32 H32            5.0131     1.4132     1.3065 H       
  33 H33            5.2539     3.3559     1.1149 H       
  34 H34            5.7702     3.6106    -0.5694 H       
  35 H35            3.9317     5.6105     0.9409 H       
  36 H36            6.2539     5.3440    -2.1816 H       
  37 H37            7.3668     6.4099    -1.2908 H       
  38 H38            7.0757     4.7496    -0.7189 H       
  39 H39            4.3311     7.7505     0.3993 H       
  40 H40            6.0606     8.0990     0.1633 H       
  41 H41            4.9759     7.9840    -1.2433 H       
@<TRIPOS>BOND
   1    1   14 1
   2    2    3 1
   3    2    6 ar
   4    2   15 ar
   5    3    4 am
   6    3   22 1
   7    4    5 2
   8    4    7 am
   9    6    7 1
  10    6   12 ar
  11    7    8 1
  12    8    9 1
  13    8   23 1
  14    8   24 1
  15    9   10 1
  16    9   16 1
  17    9   25 1
  18   10   11 1
  19   10   17 1
  20   11   12 1
  21   11   26 1
  22   11   27 1
  23   12   13 ar
  24   13   14 ar
  25   13   28 1
  26   14   15 ar
  27   15   29 1
  28   16   30 1
  29   16   31 1
  30   16   32 1
  31   17   18 1
  32   17   33 1
  33   17   34 1
  34   18   19 2
  35   18   35 1
  36   19   20 1
  37   19   21 1
  38   20   36 1
  39   20   37 1
  40   20   38 1
  41   21   39 1
  42   21   40 1
  43   21   41 1

#	End of record

