#	Name: ASD14170014
#	Creating user name:	WinNT
#	Creation time:	15. 06. 2019 21:30

#	Modifying user name:	WinNT
#	Modification time:	15. 06. 2019 21:30

#	Program:	/corina/corina34_cracker 3.40 0067  02.08.2006

@<TRIPOS>MOLECULE
ASD14170014
  45   47    0    0    0
SMALL
NO_CHARGES


@<TRIPOS>ATOM
   1 C1             0.3615     1.8780     0.0249 C.2     
   2 C2             0.3903     0.4925    -0.2262 C.2     
   3 C3             1.5571    -0.0012     0.3289 C.2     
   4 N4             2.2059     1.0424     0.8918 N.pl3   
   5 N5             1.4408     2.1965     0.6879 N.2     
   6 N6             1.9833    -1.3257     0.3114 N.am    
   7 C7            -0.7248     2.8306    -0.4034 C.3     
   8 F8            -1.6996     2.9066     0.5972 F       
   9 F9            -0.1752     4.0993    -0.6165 F       
  10 F10           -1.3082     2.3700    -1.5887 F       
  11 C11            3.1675    -1.6453    -0.2473 C.2     
  12 N12            3.6048    -2.9198    -0.2171 N.am    
  13 O13            3.8412    -0.7838    -0.7787 O.2     
  14 C14            4.8792    -3.2346    -0.7051 C.ar    
  15 C15            6.6563    -2.8527    -2.2692 C.ar    
  16 C16            7.3978    -3.8566    -1.6694 C.ar    
  17 C17            6.8786    -4.5536    -0.5914 C.ar    
  18 C18            5.6220    -4.2447    -0.1087 C.ar    
  19 C19            5.3992    -2.5408    -1.7895 C.ar    
  20 F20            8.6270    -4.1605    -2.1404 F       
  21 C21            3.4894     0.9768     1.5950 C.3     
  22 C22           -0.6394    -0.2915    -0.9505 C.ar    
  23 C23           -2.6585    -1.5901    -0.9324 C.ar    
  24 C24           -2.5611    -1.7559    -2.3025 C.ar    
  25 C25           -1.5045    -1.1973    -2.9986 C.ar    
  26 C26           -0.5435    -0.4662    -2.3299 C.ar    
  27 C27           -1.7036    -0.8613    -0.2534 C.ar    
  28 C28           -1.8108    -0.6820     1.2391 C.3     
  29 O29           -2.9777    -1.3544     1.7170 O.3     
  30 H30            1.4282    -2.0190     0.7014 H       
  31 H31            3.0369    -3.6190     0.1427 H       
  32 H32            7.0629    -2.3103    -3.1099 H       
  33 H33            7.4584    -5.3365    -0.1252 H       
  34 H34            5.2175    -4.7883     0.7324 H       
  35 H35            4.8210    -1.7580    -2.2578 H       
  36 H36            4.3027     1.0883     0.8779 H       
  37 H37            3.5417     1.7787     2.3314 H       
  38 H38            3.5788     0.0144     2.0989 H       
  39 H39           -3.4857    -2.0285    -0.3939 H       
  40 H40           -3.3105    -2.3274    -2.8298 H       
  41 H41           -1.4333    -1.3301    -4.0681 H       
  42 H42            0.2809    -0.0302    -2.8745 H       
  43 H43           -0.9272    -1.1016     1.7198 H       
  44 H44           -1.8820     0.3802     1.4733 H       
  45 H45           -3.1105    -1.2810     2.6721 H       
@<TRIPOS>BOND
   1    1    2 1
   2    1    5 2
   3    1    7 1
   4    2    3 2
   5    2   22 1
   6    3    4 1
   7    3    6 1
   8    4    5 1
   9    4   21 1
  10    6   11 am
  11    6   30 1
  12    7    8 1
  13    7    9 1
  14    7   10 1
  15   11   12 am
  16   11   13 2
  17   12   14 1
  18   12   31 1
  19   14   19 ar
  20   14   18 ar
  21   15   16 ar
  22   15   19 ar
  23   15   32 1
  24   16   17 ar
  25   16   20 1
  26   17   18 ar
  27   17   33 1
  28   18   34 1
  29   19   35 1
  30   21   36 1
  31   21   37 1
  32   21   38 1
  33   22   27 ar
  34   22   26 ar
  35   23   24 ar
  36   23   27 ar
  37   23   39 1
  38   24   25 ar
  39   24   40 1
  40   25   26 ar
  41   25   41 1
  42   26   42 1
  43   27   28 1
  44   28   29 1
  45   28   43 1
  46   28   44 1
  47   29   45 1

#	End of record

