#	Name: ASD11000134
#	Creating user name:	WinNT
#	Creation time:	15. 06. 2019 21:28

#	Modifying user name:	WinNT
#	Modification time:	15. 06. 2019 21:28

#	Program:	/corina/corina34_cracker 3.40 0067  02.08.2006

@<TRIPOS>MOLECULE
ASD11000134
  46   49    0    0    0
SMALL
NO_CHARGES


@<TRIPOS>ATOM
   1 N1            -0.0172     1.3214    -0.0110 N.ar    
   2 C2             0.0016    -0.0034    -0.0058 C.ar    
   3 N3             1.1402    -0.6810    -0.0152 N.ar    
   4 C4             2.3025    -0.0498    -0.0301 C.ar    
   5 C5             2.3192     1.3362    -0.0359 C.ar    
   6 C6             1.1099     2.0135    -0.0258 C.ar    
   7 C7             3.6239     2.0903    -0.0524 C.3     
   8 O8             4.0224     2.3232    -1.4048 O.3     
   9 C9             5.1875     2.9970    -1.5976 C.ar    
  10 C10            5.9306     3.4244    -0.5001 C.ar    
  11 C11            7.1135     4.1080    -0.6764 C.ar    
  12 C12            7.5757     4.3770    -1.9601 C.ar    
  13 C13            6.8278     3.9467    -3.0724 C.ar    
  14 C14            5.6310     3.2490    -2.8806 C.ar    
  15 N15            8.7579     5.0613    -2.1577 N.am    
  16 C16            9.2064     5.3234    -3.3977 C.2     
  17 C17            8.4938     4.9142    -4.5451 C.2     
  18 C18            7.3256     4.2376    -4.4183 C.2     
  19 O19           10.2547     5.9302    -3.5345 O.2     
  20 N20           -1.1975    -0.6966     0.0102 N.pl3   
  21 C21           -1.2010    -2.0913    -0.1029 C.ar    
  22 C22           -2.1493    -2.8414     0.5800 C.ar    
  23 C23           -0.2599    -2.7258    -0.9025 C.ar    
  24 C24           -0.2661    -4.1067    -1.0129 C.ar    
  25 C25           -1.2138    -4.8536    -0.3234 C.ar    
  26 C26           -2.1535    -4.2190     0.4683 C.ar    
  27 F27           -1.2202    -6.2003    -0.4307 F       
  28 O28            0.6540    -4.7307    -1.7955 O.3     
  29 C29            1.5975    -3.9003    -2.4753 C.3     
  30 H30            3.2273    -0.6076    -0.0373 H       
  31 H31            1.0882     3.0933    -0.0303 H       
  32 H32            3.4983     3.0447     0.4589 H       
  33 H33            4.3891     1.5037     0.4560 H       
  34 H34            5.5758     3.2183     0.4989 H       
  35 H35            7.6815     4.4351     0.1819 H       
  36 H36            5.0535     2.9164    -3.7304 H       
  37 H37            9.2725     5.3578    -1.3908 H       
  38 H38            8.8806     5.1404    -5.5277 H       
  39 H39            6.7743     3.9201    -5.2910 H       
  40 H40           -2.0348    -0.2151     0.0998 H       
  41 H41           -2.8839    -2.3479     1.1991 H       
  42 H42            0.4756    -2.1437    -1.4378 H       
  43 H43           -2.8893    -4.8010     1.0034 H       
  44 H44            2.2722    -4.5228    -3.0630 H       
  45 H45            1.0678    -3.2142    -3.1362 H       
  46 H46            2.1723    -3.3304    -1.7452 H       
@<TRIPOS>BOND
   1    1    2 ar
   2    1    6 ar
   3    2    3 ar
   4    2   20 1
   5    3    4 ar
   6    4    5 ar
   7    4   30 1
   8    5    6 ar
   9    5    7 1
  10    6   31 1
  11    7    8 1
  12    7   32 1
  13    7   33 1
  14    8    9 1
  15    9   10 ar
  16    9   14 ar
  17   10   11 ar
  18   10   34 1
  19   11   12 ar
  20   11   35 1
  21   12   13 ar
  22   12   15 1
  23   13   14 ar
  24   13   18 1
  25   14   36 1
  26   15   16 am
  27   15   37 1
  28   16   17 1
  29   16   19 2
  30   17   18 2
  31   17   38 1
  32   18   39 1
  33   20   21 1
  34   20   40 1
  35   21   22 ar
  36   21   23 ar
  37   22   26 ar
  38   22   41 1
  39   23   24 ar
  40   23   42 1
  41   24   25 ar
  42   24   28 1
  43   25   26 ar
  44   25   27 1
  45   26   43 1
  46   28   29 1
  47   29   44 1
  48   29   45 1
  49   29   46 1

#	End of record

