#	Name: ASD10160331
#	Creating user name:	WinNT
#	Creation time:	15. 06. 2019 21:25

#	Modifying user name:	WinNT
#	Modification time:	15. 06. 2019 21:25

#	Program:	/corina/corina34_cracker 3.40 0067  02.08.2006

@<TRIPOS>MOLECULE
ASD10160331
  23   23    0    0    0
SMALL
NO_CHARGES


@<TRIPOS>ATOM
   1 C1            -0.0167     1.3793     0.0096 C.ar    
   2 C2             0.0021    -0.0041     0.0020 C.ar    
   3 C3             1.2229    -0.6630    -0.0132 C.ar    
   4 C4             2.3826     0.0969    -0.0203 C.ar    
   5 C5             2.2849     1.4753    -0.0119 C.ar    
   6 N6             1.1072     2.0686     0.0026 N.ar    
   7 Cl7           -1.4826    -0.9037     0.0120 Cl      
   8 C8            -1.3366     2.1064     0.0198 C.3     
   9 C9            -2.1254     1.7140     1.2707 C.3     
  10 C10           -1.0873     3.6159     0.0268 C.3     
  11 C11           -2.1372     1.7275    -1.2277 C.3     
  12 H12            1.2688    -1.7420    -0.0191 H       
  13 H13            3.3503    -0.3825    -0.0318 H       
  14 H14            3.1838     2.0739    -0.0170 H       
  15 H15           -1.5551     1.9839     2.1595 H       
  16 H16           -3.0801     2.2399     1.2780 H       
  17 H17           -2.3031     0.6385     1.2657 H       
  18 H18           -0.5253     3.8955    -0.8643 H       
  19 H19           -2.0420     4.1419     0.0342 H       
  20 H20           -0.5169     3.8858     0.9156 H       
  21 H21           -2.3149     0.6521    -1.2327 H       
  22 H22           -3.0919     2.2535    -1.2204 H       
  23 H23           -1.5753     2.0071    -2.1189 H       
@<TRIPOS>BOND
   1    1    2 ar
   2    1    6 ar
   3    1    8 1
   4    2    3 ar
   5    2    7 1
   6    3    4 ar
   7    3   12 1
   8    4    5 ar
   9    4   13 1
  10    5    6 ar
  11    5   14 1
  12    8    9 1
  13    8   11 1
  14    8   10 1
  15    9   15 1
  16    9   16 1
  17    9   17 1
  18   10   18 1
  19   10   19 1
  20   10   20 1
  21   11   21 1
  22   11   22 1
  23   11   23 1

#	End of record

