#	Name: ASD10420161
#	Creating user name:	WinNT
#	Creation time:	15. 06. 2019 21:27

#	Modifying user name:	WinNT
#	Modification time:	15. 06. 2019 21:27

#	Program:	/corina/corina34_cracker 3.40 0067  02.08.2006

@<TRIPOS>MOLECULE
ASD10420161
  30   31    0    0    0
SMALL
NO_CHARGES


@<TRIPOS>ATOM
   1 C1            -0.0161     1.3391     0.0094 C.2     
   2 C2             0.0021    -0.0041     0.0020 C.2     
   3 C3             2.4182     4.1923     0.0019 C.ar    
   4 C4             3.6519     2.1208    -0.0205 C.ar    
   5 C5             1.2326     3.4910     0.0090 C.ar    
   6 C6             2.4706     1.4123    -0.0135 C.ar    
   7 C7            -1.2466    -2.1559     0.0024 C.ar    
   8 C8            -2.4846    -0.0772     0.0258 C.ar    
   9 C9             3.6309     3.5115    -0.0129 C.ar    
  10 C10           -2.4328    -2.8579     0.0104 C.ar    
  11 C11           -3.6668    -0.7860     0.0338 C.ar    
  12 C12           -3.6459    -2.1770     0.0256 C.ar    
  13 C13            1.2495     2.0930     0.0014 C.ar    
  14 C14           -1.2636    -0.7579     0.0101 C.ar    
  15 N15            4.8297     4.2255    -0.0200 N.pl3   
  16 N16           -4.8456    -2.8916     0.0333 N.pl3   
  17 Br17          -2.4112    -4.7487     0.0000 Br      
  18 Br18          -5.3190     0.1336     0.0551 Br      
  19 H19           -0.9587     1.8664     0.0167 H       
  20 H20            0.9446    -0.5313    -0.0098 H       
  21 H21            2.4060     5.2722     0.0034 H       
  22 H22            4.5956     1.5958    -0.0316 H       
  23 H23            0.2913     4.0203     0.0209 H       
  24 H24            2.4877     0.3325    -0.0198 H       
  25 H25           -0.3052    -2.6851    -0.0054 H       
  26 H26           -2.5015     1.0026     0.0314 H       
  27 H27            4.8166     5.1954    -0.0147 H       
  28 H28            5.6762     3.7520    -0.0303 H       
  29 H29           -4.8324    -3.8614     0.0279 H       
  30 H30           -5.6921    -2.4180     0.0439 H       
@<TRIPOS>BOND
   1    1    2 2
   2    1   13 1
   3    1   19 1
   4    2   14 1
   5    2   20 1
   6    3    5 ar
   7    3    9 ar
   8    3   21 1
   9    4    6 ar
  10    4    9 ar
  11    4   22 1
  12    5   13 ar
  13    5   23 1
  14    6   13 ar
  15    6   24 1
  16    7   10 ar
  17    7   14 ar
  18    7   25 1
  19    8   11 ar
  20    8   14 ar
  21    8   26 1
  22    9   15 1
  23   10   12 ar
  24   10   17 1
  25   11   12 ar
  26   11   18 1
  27   12   16 1
  28   15   27 1
  29   15   28 1
  30   16   29 1
  31   16   30 1

#	End of record

