#	Name: ASD10410225
#	Creating user name:	WinNT
#	Creation time:	15. 06. 2019 21:27

#	Modifying user name:	WinNT
#	Modification time:	15. 06. 2019 21:27

#	Program:	/corina/corina34_cracker 3.40 0067  02.08.2006

@<TRIPOS>MOLECULE
ASD10410225
  52   56    0    0    0
SMALL
NO_CHARGES


@<TRIPOS>ATOM
   1 C1            -0.0184     1.3915    -0.0797 C.ar    
   2 C2            -0.0058     0.0095     0.0245 C.ar    
   3 C3             1.2028    -0.6699     0.1144 C.ar    
   4 C4             2.3931     0.0329     0.0995 C.ar    
   5 C5             2.3796     1.4179    -0.0054 C.ar    
   6 C6             1.1708     2.0950    -0.0947 C.ar    
   7 O7            -1.1773    -0.6820     0.0392 O.3     
   8 F8             1.2147    -2.0170     0.2169 F       
   9 N9             3.5841     2.1307    -0.0202 N.pl3   
  10 C10            3.6697     3.3410    -0.7076 C.2     
  11 N11            4.7074     4.1427    -0.7088 N.2     
  12 N12            2.7081     3.8665    -1.4757 N.2     
  13 C13            3.1156     5.0141    -1.9740 C.2     
  14 N14            4.3776     5.2400    -1.5207 N.pl3   
  15 C15            5.1826     6.3407    -1.8050 C.ar    
  16 N16            2.3915     5.8406    -2.8113 N.pl3   
  17 C17            6.4723     6.4398    -1.2627 C.ar    
  18 C18           -2.3820     0.0806    -0.0563 C.3     
  19 C19           -3.5864    -0.8624    -0.0238 C.3     
  20 N20           -3.6512    -1.5291     1.2836 N.3     
  21 C21           -4.9218    -2.2602     1.4416 C.3     
  22 C22           -4.5682    -3.7323     1.7404 C.3     
  23 C23           -3.1230    -3.6386     2.2967 C.3     
  24 C24           -2.5349    -2.4846     1.4470 C.3     
  25 N25            4.7443     7.3103    -2.5977 N.ar    
  26 C26            5.5035     8.3560    -2.8705 C.ar    
  27 N27            6.7113     8.4964    -2.3843 N.ar    
  28 C28            7.2501     7.5604    -1.5715 C.ar    
  29 C29            8.5110     7.5245    -0.9557 C.2     
  30 C30            8.7558     6.4614    -0.2062 C.2     
  31 S31            7.3783     5.3727    -0.2002 S.3     
  32 H32           -0.9581     1.9185    -0.1536 H       
  33 H33            3.3330    -0.4946     0.1697 H       
  34 H34            1.1600     3.1718    -0.1763 H       
  35 H35            4.3593     1.7828     0.4477 H       
  36 H36            1.4943     5.5907    -3.0824 H       
  37 H37            2.7802     6.6709    -3.1281 H       
  38 H38           -2.4406     0.7739     0.7827 H       
  39 H39           -2.3842     0.6407    -0.9914 H       
  40 H40           -4.5001    -0.2905    -0.1857 H       
  41 H41           -3.4827    -1.6114    -0.8089 H       
  42 H42           -5.4908    -1.8398     2.2708 H       
  43 H43           -5.5024    -2.1977     0.5212 H       
  44 H44           -5.2433    -4.1464     2.4892 H       
  45 H45           -4.5919    -4.3273     0.8274 H       
  46 H46           -3.1282    -3.3803     3.3556 H       
  47 H47           -2.5778    -4.5667     2.1254 H       
  48 H48           -2.2086    -2.8566     0.4757 H       
  49 H49           -1.7046    -2.0120     1.9717 H       
  50 H50            5.1130     9.1253    -3.5201 H       
  51 H51            9.2359     8.3144    -1.0855 H       
  52 H52            9.6767     6.2883     0.3308 H       
@<TRIPOS>BOND
   1    1    2 ar
   2    1    6 ar
   3    1   32 1
   4    2    3 ar
   5    2    7 1
   6    3    4 ar
   7    3    8 1
   8    4    5 ar
   9    4   33 1
  10    5    6 ar
  11    5    9 1
  12    6   34 1
  13    7   18 1
  14    9   10 1
  15    9   35 1
  16   10   11 2
  17   10   12 1
  18   11   14 1
  19   12   13 2
  20   13   14 1
  21   13   16 1
  22   14   15 1
  23   15   17 ar
  24   15   25 ar
  25   16   36 1
  26   16   37 1
  27   17   28 ar
  28   17   31 1
  29   18   19 1
  30   18   38 1
  31   18   39 1
  32   19   20 1
  33   19   40 1
  34   19   41 1
  35   20   21 1
  36   20   24 1
  37   21   22 1
  38   21   42 1
  39   21   43 1
  40   22   23 1
  41   22   44 1
  42   22   45 1
  43   23   24 1
  44   23   46 1
  45   23   47 1
  46   24   48 1
  47   24   49 1
  48   25   26 ar
  49   26   27 ar
  50   26   50 1
  51   27   28 ar
  52   28   29 1
  53   29   30 2
  54   29   51 1
  55   30   31 1
  56   30   52 1

#	End of record

