#	Name: ASD11030016
#	Creating user name:	WinNT
#	Creation time:	15. 06. 2019 21:29

#	Modifying user name:	WinNT
#	Modification time:	15. 06. 2019 21:29

#	Program:	/corina/corina34_cracker 3.40 0067  02.08.2006

@<TRIPOS>MOLECULE
ASD11030016
  39   42    0    0    0
SMALL
NO_CHARGES


@<TRIPOS>ATOM
   1 F1             0.0098    -0.0029    -0.1867 F       
   2 C2            -0.0037     1.3478    -0.2078 C.ar    
   3 C3             1.1590     2.0552     0.0767 C.ar    
   4 C4             1.1541     3.4204     0.0576 C.ar    
   5 C5            -0.0312     4.1108    -0.2513 C.ar    
   6 C6            -1.2024     3.3875    -0.5381 C.ar    
   7 C7            -1.1788     2.0226    -0.5193 C.ar    
   8 C8            -0.0459     5.5741    -0.2736 C.2     
   9 N9             1.0020     6.3602    -0.0188 N.2     
  10 N10            0.8168     7.6079    -0.0814 N.2     
  11 C11           -0.4343     7.9949    -0.4025 C.2     
  12 S12           -1.4078     6.5444    -0.6378 S.3     
  13 N13           -0.8548     9.2410    -0.5246 N.2     
  14 C14           -0.0065    10.2561    -0.3237 C.2     
  15 N15            1.3017    10.1483     0.0078 N.am    
  16 C16            2.0142    11.2524     0.1725 C.2     
  17 O17            3.1941    11.2431     0.4699 O.2     
  18 C18            1.2493    12.4908    -0.0371 C.2     
  19 C19            1.6994    13.7912     0.0588 C.2     
  20 C20            0.7512    14.9031    -0.0369 C.ar    
  21 C21           -0.5766    14.7369     0.3848 C.ar    
  22 C22           -1.4611    15.7886     0.2908 C.ar    
  23 C23           -1.0434    17.0074    -0.2185 C.ar    
  24 C24            0.2657    17.1812    -0.6374 C.ar    
  25 C25            1.1664    16.1431    -0.5454 C.ar    
  26 N26           -2.0020    18.1310    -0.3162 N.pl3   
  27 O27           -3.2475    17.9702     0.0804 O.2     
  28 O28           -1.6094    19.2914    -0.7997 O.2     
  29 S29           -0.3823    11.9302    -0.4478 S.3     
  30 H30            2.0685     1.5232     0.3137 H       
  31 H31            2.0579     3.9683     0.2795 H       
  32 H32           -2.1170     3.9102    -0.7760 H       
  33 H33           -2.0774     1.4654    -0.7394 H       
  34 H34            1.7105     9.2762     0.1230 H       
  35 H35            2.7511    13.9892     0.2045 H       
  36 H36           -0.9043    13.7873     0.7814 H       
  37 H37           -2.4836    15.6627     0.6148 H       
  38 H38            0.5820    18.1349    -1.0334 H       
  39 H39            2.1866    16.2806    -0.8721 H       
@<TRIPOS>BOND
   1    1    2 1
   2    2    3 ar
   3    2    7 ar
   4    3    4 ar
   5    3   30 1
   6    4    5 ar
   7    4   31 1
   8    5    6 ar
   9    5    8 1
  10    6    7 ar
  11    6   32 1
  12    7   33 1
  13    8    9 2
  14    8   12 1
  15    9   10 1
  16   10   11 2
  17   11   12 1
  18   11   13 1
  19   13   14 2
  20   14   15 1
  21   14   29 1
  22   15   16 am
  23   15   34 1
  24   16   17 2
  25   16   18 1
  26   18   19 2
  27   18   29 1
  28   19   20 1
  29   19   35 1
  30   20   21 ar
  31   20   25 ar
  32   21   22 ar
  33   21   36 1
  34   22   23 ar
  35   22   37 1
  36   23   24 ar
  37   23   26 1
  38   24   25 ar
  39   24   38 1
  40   25   39 1
  41   26   27 2
  42   26   28 2

#	End of record

