#	Name: ASD13390001
#	Creating user name:	WinNT
#	Creation time:	15. 06. 2019 21:30

#	Modifying user name:	WinNT
#	Modification time:	15. 06. 2019 21:30

#	Program:	/corina/corina34_cracker 3.40 0067  02.08.2006

@<TRIPOS>MOLECULE
ASD13390001
  32   31    0    0    0
SMALL
NO_CHARGES


@<TRIPOS>ATOM
   1 C1            -0.0166     1.3731     0.0096 C.ar    
   2 C2             0.0021    -0.0041     0.0020 C.ar    
   3 C3             1.2240    -0.6849    -0.0133 C.ar    
   4 C4             2.4223     0.0370    -0.0208 C.ar    
   5 C5             2.3944     1.4140    -0.0132 C.ar    
   6 C6             1.1772     2.0869     0.0020 C.ar    
   7 C7             1.2489    -2.1560    -0.0209 C.2     
   8 N8             2.3900    -2.7893    -0.0352 N.2     
   9 N9             2.4136    -4.1900    -0.0425 N.2     
  10 C10            3.5651    -4.8291    -0.0569 C.2     
  11 N11            4.7418    -4.1229    -0.0648 N.pl3   
  12 N12            3.5883    -6.2013    -0.0640 N.pl3   
  13 N13            1.1536     3.4821     0.0093 N.pl3   
  14 C14           -0.1273     4.1930     0.0248 C.3     
  15 C15            2.4097     4.2360     0.0013 C.3     
  16 H16           -0.9596     1.8995     0.0169 H       
  17 H17           -0.9253    -0.5575     0.0082 H       
  18 H18            3.3679    -0.4847    -0.0323 H       
  19 H19            3.3190     1.9721    -0.0190 H       
  20 H20            0.3229    -2.7118    -0.0147 H       
  21 H21            4.7254    -3.1530    -0.0597 H       
  22 H22            5.5899    -4.5935    -0.0754 H       
  23 H23            2.7566    -6.7005    -0.0585 H       
  24 H24            4.4364    -6.6720    -0.0746 H       
  25 H25           -0.4354     4.3641     1.0563 H       
  26 H26           -0.0179     5.1500    -0.4853 H       
  27 H27           -0.8816     3.5937    -0.4850 H       
  28 H28            2.9773     3.9869    -0.8953 H       
  29 H29            2.1924     5.3041     0.0087 H       
  30 H30            2.9939     3.9779     0.8846 H       
  31 Cl31          10.5899    10.3041     6.0563 Cl      
  32 H32           10.5899    11.6741     6.0563 H       
@<TRIPOS>BOND
   1    1    2 ar
   2    1    6 ar
   3    1   16 1
   4    2    3 ar
   5    2   17 1
   6    3    4 ar
   7    3    7 1
   8    4    5 ar
   9    4   18 1
  10    5    6 ar
  11    5   19 1
  12    6   13 1
  13    7    8 2
  14    7   20 1
  15    8    9 1
  16    9   10 2
  17   10   11 1
  18   10   12 1
  19   11   21 1
  20   11   22 1
  21   12   23 1
  22   12   24 1
  23   13   14 1
  24   13   15 1
  25   14   25 1
  26   14   26 1
  27   14   27 1
  28   15   28 1
  29   15   29 1
  30   15   30 1
  31   31   32 1

#	End of record

