#	Name: ASD10160063
#	Creating user name:	WinNT
#	Creation time:	15. 06. 2019 21:25

#	Modifying user name:	WinNT
#	Modification time:	15. 06. 2019 21:25

#	Program:	/corina/corina34_cracker 3.40 0067  02.08.2006

@<TRIPOS>MOLECULE
ASD10160063
  39   41    0    0    0
SMALL
NO_CHARGES


@<TRIPOS>ATOM
   1 C1            -0.3992     1.1087    -1.9477 C.2     
   2 C2            -0.2790    -0.2706    -1.4407 C.ar    
   3 C3             0.9047    -0.9910    -1.6392 C.ar    
   4 C4             1.0125    -2.2819    -1.1623 C.ar    
   5 C5            -0.0509    -2.8653    -0.4867 C.ar    
   6 C6            -1.2303    -2.1522    -0.2875 C.ar    
   7 C7            -1.3450    -0.8611    -0.7550 C.ar    
   8 O8             0.5309     1.6222    -2.5394 O.2     
   9 N9            -1.5418     1.7985    -1.7602 N.am    
  10 S10           -1.6768     3.3476    -2.3296 S.o2    
  11 O11           -2.9793     3.7544    -1.9333 O.2     
  12 O12           -0.5203     4.0061    -1.8314 O.2     
  13 C13           -1.5845     3.1766    -4.1332 C.3     
  14 F14           -2.2619    -2.7253     0.3703 F       
  15 F15            1.9397    -0.4240    -2.2969 F       
  16 O16            0.0593    -4.1350    -0.0193 O.3     
  17 C17            1.5492    -5.5239    -1.2589 C.ar    
  18 C18            1.2618    -4.7567    -0.1387 C.ar    
  19 C19            2.2222    -4.6326     0.8599 C.ar    
  20 C20            3.4344    -5.2853     0.6927 C.ar    
  21 C21            3.6466    -6.0320    -0.4523 C.ar    
  22 N22            2.7140    -6.1286    -1.3797 N.ar    
  23 C23            4.9608    -6.7446    -0.6423 C.3     
  24 C24            4.9240    -8.2670    -0.7905 C.3     
  25 C25            5.2253    -7.3872    -2.0054 C.3     
  26 Cl26           4.6708    -5.1661     1.9055 Cl      
  27 H27            1.9251    -2.8388    -1.3151 H       
  28 H28           -2.2584    -0.3074    -0.5957 H       
  29 H29           -2.2851     1.3874    -1.2917 H       
  30 H30           -2.4007     2.5429    -4.4803 H       
  31 H31           -1.6660     4.1600    -4.5961 H       
  32 H32           -0.6315     2.7240    -4.4070 H       
  33 H33            0.8087    -5.6303    -2.0378 H       
  34 H34            2.0288    -4.0423     1.7433 H       
  35 H35            5.8112    -6.3106    -0.1166 H       
  36 H36            5.7504    -8.8344    -0.3626 H       
  37 H37            3.9492    -8.7531    -0.7505 H       
  38 H38            4.4488    -7.2946    -2.7647 H       
  39 H39            6.2501    -7.3758    -2.3768 H       
@<TRIPOS>BOND
   1    1    2 1
   2    1    8 2
   3    1    9 am
   4    2    3 ar
   5    2    7 ar
   6    3    4 ar
   7    3   15 1
   8    4    5 ar
   9    4   27 1
  10    5    6 ar
  11    5   16 1
  12    6    7 ar
  13    6   14 1
  14    7   28 1
  15    9   10 am
  16    9   29 1
  17   10   11 2
  18   10   12 2
  19   10   13 1
  20   13   30 1
  21   13   31 1
  22   13   32 1
  23   16   18 1
  24   17   18 ar
  25   17   22 ar
  26   17   33 1
  27   18   19 ar
  28   19   20 ar
  29   19   34 1
  30   20   21 ar
  31   20   26 1
  32   21   22 ar
  33   21   23 1
  34   23   24 1
  35   23   25 1
  36   23   35 1
  37   24   25 1
  38   24   36 1
  39   24   37 1
  40   25   38 1
  41   25   39 1

#	End of record

