#	Name: ASD10610033
#	Creating user name:	WinNT
#	Creation time:	15. 06. 2019 21:27

#	Modifying user name:	WinNT
#	Modification time:	15. 06. 2019 21:27

#	Program:	/corina/corina34_cracker 3.40 0067  02.08.2006

@<TRIPOS>MOLECULE
ASD10610033
  58   61    0    0    0
SMALL
NO_CHARGES


@<TRIPOS>ATOM
   1 C1             1.4559    -1.6936     3.7340 C.ar    
   2 N2             2.3468    -2.6638     3.7945 N.ar    
   3 C3             3.3978    -2.6729     2.9934 C.ar    
   4 C4             3.5554    -1.6314     2.0720 C.ar    
   5 C5             2.5851    -0.6234     2.0434 C.ar    
   6 N6             1.5656    -0.6936     2.8813 N.ar    
   7 C7             4.7144    -1.5969     1.1550 C.2     
   8 O8             5.5943    -2.4294     1.2559 O.2     
   9 N9             4.7955    -0.6423     0.2070 N.am    
  10 O10            6.5837     1.4402    -0.4963 O.3     
  11 C11            6.0163     0.6735    -1.5664 C.3     
  12 C12            5.9940    -0.5404    -0.6293 C.3     
  13 C13            7.1558     0.2282     0.0125 C.3     
  14 C14            6.3861    -1.8417    -1.2803 C.2     
  15 N15            5.4350    -2.7110    -1.6753 N.am    
  16 O16            7.5576    -2.1067    -1.4487 O.2     
  17 C17            5.8157    -4.0247    -2.2003 C.3     
  18 C18            6.0703    -3.9182    -3.7052 C.3     
  19 C19            4.7026    -5.0086    -1.9475 C.ar    
  20 C20            5.0014    -6.2588    -1.4305 C.ar    
  21 C21            3.9732    -7.1593    -1.1996 C.ar    
  22 C22            2.6669    -6.7645    -1.5009 C.ar    
  23 C23            2.4502    -5.4891    -2.0183 C.ar    
  24 N24            3.4583    -4.6646    -2.2166 N.ar    
  25 F25            6.2802    -6.5965    -1.1549 F       
  26 C26            1.5291    -7.6889    -1.2739 C.ar    
  27 C27            1.3001    -8.2208    -0.0017 C.ar    
  28 C28            0.2346    -9.0840     0.2022 C.ar    
  29 C29           -0.5984    -9.4170    -0.8506 C.ar    
  30 C30           -0.3734    -8.8919    -2.1117 C.ar    
  31 C31            0.6812    -8.0258    -2.3263 C.ar    
  32 O32            2.1194    -7.8932     1.0317 O.3     
  33 C33            1.8021    -6.7053     1.7598 C.3     
  34 C34            2.8795    -6.4514     2.8161 C.3     
  35 F35            2.8635    -7.4867     3.7568 F       
  36 F36            4.1343    -6.4008     2.1995 F       
  37 Cl37          -1.4249    -9.3171    -3.4260 Cl      
  38 Cl38          -0.0541    -9.7479     1.7800 Cl      
  39 H39            0.6069    -1.7210     4.4011 H       
  40 H40            4.1234    -3.4708     3.0492 H       
  41 H41            2.6682     0.1989     1.3482 H       
  42 H42            4.0602    -0.0228     0.0784 H       
  43 H43            5.0226     1.0110    -1.8610 H       
  44 H44            6.6886     0.5523    -2.4157 H       
  45 H45            8.1256    -0.0093    -0.4246 H       
  46 H46            7.1605     0.1755     1.1012 H       
  47 H47            4.4983    -2.4669    -1.6120 H       
  48 H48            6.7228    -4.3663    -1.7017 H       
  49 H49            6.3536    -4.8956    -4.0958 H       
  50 H50            5.1632    -3.5766    -4.2039 H       
  51 H51            6.8754    -3.2066    -3.8881 H       
  52 H52            4.1764    -8.1409    -0.7977 H       
  53 H53            1.4454    -5.1719    -2.2553 H       
  54 H54           -1.4275   -10.0898    -0.6883 H       
  55 H55            0.8509    -7.6142    -3.3102 H       
  56 H56            1.7593    -5.8592     1.0739 H       
  57 H57            0.8354    -6.8260     2.2486 H       
  58 H58            2.6819    -5.5031     3.3160 H       
@<TRIPOS>BOND
   1    1    2 ar
   2    1    6 ar
   3    1   39 1
   4    2    3 ar
   5    3    4 ar
   6    3   40 1
   7    4    5 ar
   8    4    7 1
   9    5    6 ar
  10    5   41 1
  11    7    8 2
  12    7    9 am
  13    9   12 1
  14    9   42 1
  15   10   11 1
  16   10   13 1
  17   11   12 1
  18   11   43 1
  19   11   44 1
  20   12   13 1
  21   12   14 1
  22   13   45 1
  23   13   46 1
  24   14   15 am
  25   14   16 2
  26   15   17 1
  27   15   47 1
  28   17   18 1
  29   17   19 1
  30   17   48 1
  31   18   49 1
  32   18   50 1
  33   18   51 1
  34   19   20 ar
  35   19   24 ar
  36   20   21 ar
  37   20   25 1
  38   21   22 ar
  39   21   52 1
  40   22   23 ar
  41   22   26 1
  42   23   24 ar
  43   23   53 1
  44   26   27 ar
  45   26   31 ar
  46   27   28 ar
  47   27   32 1
  48   28   29 ar
  49   28   38 1
  50   29   30 ar
  51   29   54 1
  52   30   31 ar
  53   30   37 1
  54   31   55 1
  55   32   33 1
  56   33   34 1
  57   33   56 1
  58   33   57 1
  59   34   35 1
  60   34   36 1
  61   34   58 1

#	End of record

