#	Name: ASD12620001
#	Creating user name:	WinNT
#	Creation time:	15. 06. 2019 21:30

#	Modifying user name:	WinNT
#	Modification time:	15. 06. 2019 21:30

#	Program:	/corina/corina34_cracker 3.40 0067  02.08.2006

@<TRIPOS>MOLECULE
ASD12620001
  58   60    0    0    0
SMALL
NO_CHARGES


@<TRIPOS>ATOM
   1 C1            -0.0135     1.3375     0.0212 C.2     
   2 N2             0.0064    -0.0056     0.0193 N.2     
   3 C3             1.1436    -0.6670     0.0047 C.2     
   4 N4             2.3406    -0.0198    -0.0096 N.pl3   
   5 C5             2.3786     1.3506    -0.0101 C.2     
   6 C6             1.2042     2.0471     0.0074 C.2     
   7 N7             1.2153     3.4591     0.0147 N.pl3   
   8 N8             3.5861     2.0195    -0.0311 N.pl3   
   9 C9             3.6250     3.4401     0.3454 C.3     
  10 C10            2.4588     4.1543    -0.3550 C.3     
  11 C11            2.6521     4.0977    -1.8717 C.3     
  12 N12            1.4644     4.6403    -2.5359 N.pl3   
  13 C13            1.4073     4.6930    -3.9242 C.ar    
  14 C14            2.4236     4.2746    -6.0558 C.ar    
  15 C15            2.4772     4.2243    -4.6817 C.ar    
  16 C16            0.2779     5.2089    -4.5539 C.ar    
  17 C17            0.2180     5.2615    -5.9277 C.ar    
  18 C18            1.2929     4.7966    -6.6910 C.ar    
  19 C19            1.2321     4.8519    -8.1639 C.2     
  20 O20            2.1661     4.4433    -8.8268 O.2     
  21 N21            0.1414     5.3554    -8.7749 N.am    
  22 C22            0.0811     5.4104   -10.2377 C.3     
  23 C23            0.7550     6.6686   -10.7213 C.2     
  24 C24           -1.3811     5.4096   -10.6881 C.3     
  25 C25           -2.0317     4.0786   -10.3059 C.3     
  26 C26           -3.4719     4.0777   -10.7497 C.2     
  27 O27            1.2363     7.4402    -9.9257 O.2     
  28 O28            0.8205     6.9321   -12.0358 O.3     
  29 O29           -3.9309     5.0427   -11.3137 O.2     
  30 O30           -4.2448     3.0050   -10.5183 O.3     
  31 O31           -1.0786     1.9391     0.0298 O.2     
  32 N32            1.1222    -2.0383     0.0043 N.pl3   
  33 C33            0.0154     4.2153     0.3818 C.3     
  34 H34            3.1667    -0.5280    -0.0191 H       
  35 H35            4.3987     1.5579    -0.2908 H       
  36 H36            3.5202     3.5371     1.4260 H       
  37 H37            4.5701     3.8794     0.0262 H       
  38 H38            2.4122     5.1927    -0.0270 H       
  39 H39            3.5252     4.6884    -2.1489 H       
  40 H40            2.8004     3.0630    -2.1807 H       
  41 H41            0.7179     4.9629    -2.0072 H       
  42 H42            3.2540     3.9112    -6.6429 H       
  43 H43            3.3504     3.8212    -4.1903 H       
  44 H44           -0.5522     5.5679    -3.9636 H       
  45 H45           -0.6587     5.6612    -6.4156 H       
  46 H46           -0.6036     5.6814    -8.2462 H       
  47 H47            0.5904     4.5419   -10.6552 H       
  48 H48           -1.9121     6.2269   -10.2002 H       
  49 H49           -1.4283     5.5398   -11.7693 H       
  50 H50           -1.5007     3.2612   -10.7939 H       
  51 H51           -1.9846     3.9483    -9.2248 H       
  52 H52            1.2625     7.7513   -12.2979 H       
  53 H53           -5.1620     3.0511   -10.8213 H       
  54 H54            0.2748    -2.5102     0.0147 H       
  55 H55            1.9545    -2.5363    -0.0064 H       
  56 H56           -0.3348     3.8884     1.3608 H       
  57 H57            0.2528     5.2786     0.4172 H       
  58 H58           -0.7645     4.0416    -0.3597 H       
@<TRIPOS>BOND
   1    1    2 1
   2    1    6 1
   3    1   31 2
   4    2    3 2
   5    3    4 1
   6    3   32 1
   7    4    5 1
   8    4   34 1
   9    5    8 1
  10    5    6 2
  11    6    7 1
  12    7   10 1
  13    7   33 1
  14    8    9 1
  15    8   35 1
  16    9   10 1
  17    9   36 1
  18    9   37 1
  19   10   11 1
  20   10   38 1
  21   11   12 1
  22   11   39 1
  23   11   40 1
  24   12   13 1
  25   12   41 1
  26   13   16 ar
  27   13   15 ar
  28   14   15 ar
  29   14   18 ar
  30   14   42 1
  31   15   43 1
  32   16   17 ar
  33   16   44 1
  34   17   18 ar
  35   17   45 1
  36   18   19 1
  37   19   20 2
  38   19   21 am
  39   21   22 1
  40   21   46 1
  41   22   23 1
  42   22   24 1
  43   22   47 1
  44   23   27 2
  45   23   28 1
  46   24   25 1
  47   24   48 1
  48   24   49 1
  49   25   26 1
  50   25   50 1
  51   25   51 1
  52   26   29 2
  53   26   30 1
  54   28   52 1
  55   30   53 1
  56   32   54 1
  57   32   55 1
  58   33   56 1
  59   33   57 1
  60   33   58 1

#	End of record

