#	Name: ASD10160278
#	Creating user name:	WinNT
#	Creation time:	15. 06. 2019 21:25

#	Modifying user name:	WinNT
#	Modification time:	15. 06. 2019 21:25

#	Program:	/corina/corina34_cracker 3.40 0067  02.08.2006

@<TRIPOS>MOLECULE
ASD10160278
  39   40    0    0    0
SMALL
NO_CHARGES


@<TRIPOS>ATOM
   1 C1             0.3713     1.1015     1.9603 C.2     
   2 C2             0.2887    -0.2767     1.4385 C.ar    
   3 C3             1.3725    -0.8325     0.7531 C.ar    
   4 C4             1.2918    -2.1185     0.2683 C.ar    
   5 C5             0.1340    -2.8642     0.4599 C.ar    
   6 C6            -0.9461    -2.3150     1.1412 C.ar    
   7 C7            -0.8710    -1.0312     1.6337 C.ar    
   8 O8             1.3831     1.7549     1.7940 O.2     
   9 N9            -0.6769     1.6377     2.6162 N.am    
  10 C10            2.4596    -2.7185    -0.4714 C.3     
  11 F11            3.4994    -1.7848    -0.5374 F       
  12 F12            2.9015    -3.8616     0.2034 F       
  13 F13            2.0622    -3.0662    -1.7669 F       
  14 S14           -0.5842     3.1840     3.2016 S.o2    
  15 O15           -1.8363     3.3925     3.8405 O.2     
  16 O16            0.6286     3.2064     3.9417 O.2     
  17 C17           -0.4451     4.2213     1.7200 C.3     
  18 O18            0.0581    -4.1312    -0.0197 O.3     
  19 C19           -1.3934    -5.5714     1.2035 C.ar    
  20 C20           -1.1281    -4.7864     0.0928 C.ar    
  21 C21           -2.0914    -4.6764    -0.9063 C.ar    
  22 C22           -3.2843    -5.3603    -0.7496 C.ar    
  23 C23           -3.4796    -6.1281     0.3907 C.ar    
  24 N24           -2.5420    -6.2100     1.3195 N.ar    
  25 O25           -4.6463    -6.8027     0.5537 O.3     
  26 C26           -4.7877    -7.5753     1.7475 C.3     
  27 H27            2.2720    -0.2537     0.6035 H       
  28 H28           -1.8438    -2.8972     1.2877 H       
  29 H29           -1.7091    -0.6066     2.1665 H       
  30 H30           -1.4856     1.1178     2.7454 H       
  31 H31           -1.3235     4.0762     1.0911 H       
  32 H32           -0.3782     5.2686     2.0146 H       
  33 H33            0.4499     3.9424     1.1639 H       
  34 H34           -0.6494    -5.6654     1.9808 H       
  35 H35           -1.9122    -4.0714    -1.7827 H       
  36 H36           -4.0539    -5.2973    -1.5047 H       
  37 H37           -4.0041    -8.3319     1.7856 H       
  38 H38           -4.7038    -6.9213     2.6155 H       
  39 H39           -5.7631    -8.0618     1.7521 H       
@<TRIPOS>BOND
   1    1    2 1
   2    1    8 2
   3    1    9 am
   4    2    3 ar
   5    2    7 ar
   6    3    4 ar
   7    3   27 1
   8    4    5 ar
   9    4   10 1
  10    5    6 ar
  11    5   18 1
  12    6    7 ar
  13    6   28 1
  14    7   29 1
  15    9   14 am
  16    9   30 1
  17   10   11 1
  18   10   12 1
  19   10   13 1
  20   14   15 2
  21   14   16 2
  22   14   17 1
  23   17   31 1
  24   17   32 1
  25   17   33 1
  26   18   20 1
  27   19   20 ar
  28   19   24 ar
  29   19   34 1
  30   20   21 ar
  31   21   22 ar
  32   21   35 1
  33   22   23 ar
  34   22   36 1
  35   23   24 ar
  36   23   25 1
  37   25   26 1
  38   26   37 1
  39   26   38 1
  40   26   39 1

#	End of record

