#	Name: ASD13010019
#	Creating user name:	WinNT
#	Creation time:	15. 06. 2019 21:30

#	Modifying user name:	WinNT
#	Modification time:	15. 06. 2019 21:30

#	Program:	/corina/corina34_cracker 3.40 0067  02.08.2006

@<TRIPOS>MOLECULE
ASD13010019
  49   52    0    0    0
SMALL
NO_CHARGES


@<TRIPOS>ATOM
   1 C1             0.6206     1.2738     0.3478 C.ar    
   2 C2             0.5613    -0.0785     0.1902 C.ar    
   3 C3             1.7273    -0.8563     0.2445 C.ar    
   4 C4             2.9609    -0.2509     0.4612 C.ar    
   5 C5             1.8466     1.9010     0.5656 C.ar    
   6 N6             2.2175     3.2078     0.7553 N.pl3   
   7 C7             3.0260     1.1310     0.6228 C.ar    
   8 C8             4.1220     2.0754     0.8607 C.2     
   9 N9             3.6032     3.2738     0.9297 N.2     
  10 C10            1.3497     4.2984     0.7712 C.ar    
  11 S11            5.8289     1.6694     1.0223 S.3     
  12 C12            6.6018     3.2481     1.1459 C.ar    
  13 C13            6.5112     3.9779     2.3261 C.ar    
  14 C14            7.3079     3.7639     0.0664 C.ar    
  15 C15            7.9128     5.0018     0.1659 C.ar    
  16 C16            7.8172     5.7283     1.3384 C.ar    
  17 C17            7.1191     5.2163     2.4188 C.ar    
  18 C18           -0.3761     6.4666     0.8032 C.ar    
  19 C19           -0.6261     5.3844    -0.0463 C.ar    
  20 C20            0.2325     4.3090    -0.0592 C.ar    
  21 C21            1.5990     5.3718     1.6215 C.ar    
  22 C22            0.7440     6.4501     1.6401 C.ar    
  23 C23           -1.2938     7.6205     0.8197 C.2     
  24 O24           -2.2688     7.6317     0.0946 O.2     
  25 O25           -1.0514     8.6626     1.6390 O.3     
  26 C26            1.6452    -2.3202     0.0717 C.2     
  27 O27            0.7523    -2.9466     0.6088 O.2     
  28 N28            2.5602    -2.9622    -0.6814 N.am    
  29 C29            2.4152    -4.3958    -0.9463 C.3     
  30 C30            3.6996    -2.2266    -1.2352 C.3     
  31 Cl31           5.6358     3.3356     3.6806 Cl      
  32 Cl32           7.0070     6.1297     3.8908 Cl      
  33 H33           -0.2840     1.8617     0.2993 H       
  34 H34           -0.3928    -0.5560     0.0222 H       
  35 H35            3.8602    -0.8473     0.5042 H       
  36 H36            7.3841     3.1974    -0.8499 H       
  37 H37            8.4617     5.4026    -0.6734 H       
  38 H38            8.2919     6.6954     1.4131 H       
  39 H39           -1.4905     5.3939    -0.6938 H       
  40 H40            0.0396     3.4726    -0.7146 H       
  41 H41            2.4643     5.3584     2.2677 H       
  42 H42            0.9400     7.2842     2.2975 H       
  43 H43           -1.6812     9.3960     1.6146 H       
  44 H44            1.8326    -4.5401    -1.8561 H       
  45 H45            3.4011    -4.8437    -1.0712 H       
  46 H46            1.9041    -4.8702    -0.1085 H       
  47 H47            4.5136    -2.2182    -0.5103 H       
  48 H48            4.0345    -2.7118    -2.1520 H       
  49 H49            3.3985    -1.2024    -1.4553 H       
@<TRIPOS>BOND
   1    1    2 ar
   2    1    5 ar
   3    1   33 1
   4    2    3 ar
   5    2   34 1
   6    3    4 ar
   7    3   26 1
   8    4    7 ar
   9    4   35 1
  10    5    7 ar
  11    5    6 1
  12    6    9 1
  13    6   10 1
  14    7    8 1
  15    8    9 2
  16    8   11 1
  17   10   21 ar
  18   10   20 ar
  19   11   12 1
  20   12   14 ar
  21   12   13 ar
  22   13   17 ar
  23   13   31 1
  24   14   15 ar
  25   14   36 1
  26   15   16 ar
  27   15   37 1
  28   16   17 ar
  29   16   38 1
  30   17   32 1
  31   18   19 ar
  32   18   22 ar
  33   18   23 1
  34   19   20 ar
  35   19   39 1
  36   20   40 1
  37   21   22 ar
  38   21   41 1
  39   22   42 1
  40   23   24 2
  41   23   25 1
  42   25   43 1
  43   26   27 2
  44   26   28 am
  45   28   29 1
  46   28   30 1
  47   29   44 1
  48   29   45 1
  49   29   46 1
  50   30   47 1
  51   30   48 1
  52   30   49 1

#	End of record

