#	Name: ASD10160298
#	Creating user name:	WinNT
#	Creation time:	15. 06. 2019 21:25

#	Modifying user name:	WinNT
#	Modification time:	15. 06. 2019 21:25

#	Program:	/corina/corina34_cracker 3.40 0067  02.08.2006

@<TRIPOS>MOLECULE
ASD10160298
  22   22    0    0    0
SMALL
NO_CHARGES


@<TRIPOS>ATOM
   1 C1            -0.0167     1.3812     0.0096 C.ar    
   2 C2             0.0021    -0.0041     0.0020 C.ar    
   3 C3             1.2262    -0.6663    -0.0132 C.ar    
   4 C4             2.3855     0.0912    -0.0202 C.ar    
   5 C5             2.2884     1.4774    -0.0118 C.ar    
   6 N6             1.1077     2.0719     0.0026 N.ar    
   7 O7            -1.1613    -0.7082     0.0098 O.3     
   8 O8             3.4188     2.2296    -0.0181 O.3     
   9 C9             3.2535     3.6490    -0.0089 C.3     
  10 C10            3.2078     4.1478     1.4368 C.3     
  11 C11            4.4288     4.3040    -0.7374 C.3     
  12 Cl12           3.9402    -0.6810    -0.0386 Cl      
  13 H13           -0.9628     1.9020     0.0169 H       
  14 H14            1.2709    -1.7453    -0.0191 H       
  15 H15           -1.5066    -0.9072    -0.8713 H       
  16 H16            2.3228     3.9097    -0.5129 H       
  17 H17            4.1384     3.8871     1.9407 H       
  18 H18            3.0817     5.2305     1.4438 H       
  19 H19            2.3705     3.6812     1.9558 H       
  20 H20            4.4614     3.9487    -1.7674 H       
  21 H21            4.3027     5.3867    -0.7304 H       
  22 H22            5.3595     4.0433    -0.2335 H       
@<TRIPOS>BOND
   1    1    2 ar
   2    1    6 ar
   3    1   13 1
   4    2    3 ar
   5    2    7 1
   6    3    4 ar
   7    3   14 1
   8    4    5 ar
   9    4   12 1
  10    5    6 ar
  11    5    8 1
  12    7   15 1
  13    8    9 1
  14    9   10 1
  15    9   11 1
  16    9   16 1
  17   10   17 1
  18   10   18 1
  19   10   19 1
  20   11   20 1
  21   11   21 1
  22   11   22 1

#	End of record

