#	Name: ASD10610152
#	Creating user name:	WinNT
#	Creation time:	15. 06. 2019 21:28

#	Modifying user name:	WinNT
#	Modification time:	15. 06. 2019 21:28

#	Program:	/corina/corina34_cracker 3.40 0067  02.08.2006

@<TRIPOS>MOLECULE
ASD10610152
  54   57    0    0    0
SMALL
NO_CHARGES


@<TRIPOS>ATOM
   1 C1            -0.0162     1.3436     0.0094 C.2     
   2 N2             0.0021    -0.0041     0.0020 N.am    
   3 O3             1.0277     1.9654     0.0028 O.2     
   4 O4            -1.1912     2.0008     0.0186 O.3     
   5 C5             1.2806    -0.7192    -0.0140 C.3     
   6 C6             1.1133    -2.1288     0.5918 C.3     
   7 C7             0.8180    -2.9918    -0.6532 C.3     
   8 C8             1.4685    -2.2586    -1.8070 C.ar    
   9 C9             1.7993    -2.7011    -3.0746 C.ar    
  10 C10            2.3998    -1.8331    -3.9831 C.ar    
  11 C11            2.6657    -0.5170    -3.6076 C.ar    
  12 C12            2.3328    -0.0851    -2.3415 C.ar    
  13 C13            1.7346    -0.9516    -1.4397 C.ar    
  14 C14            2.7549    -2.3062    -5.3424 C.ar    
  15 C15            2.3657    -1.5669    -6.4710 C.ar    
  16 C16            2.7057    -2.0223    -7.7442 C.ar    
  17 C17            3.4222    -3.1962    -7.8892 C.ar    
  18 C18            3.8051    -3.9240    -6.7750 C.ar    
  19 C19            3.4804    -3.4822    -5.5061 C.ar    
  20 O20            0.6058     1.2545    -5.3918 O.3     
  21 N21            1.2154     0.2276    -5.1795 N.2     
  22 C22            1.5976    -0.3098    -6.3097 C.2     
  23 N23            1.1604     0.4975    -7.3032 N.2     
  24 C24            0.5354     1.4819    -6.7071 C.2     
  25 C25           -0.1375     2.6514    -7.3783 C.3     
  26 F26            2.3350    -1.3175    -8.8356 F       
  27 Cl27           4.7037    -5.3960    -6.9728 Cl      
  28 C28           -1.1349     3.4517     0.0262 C.3     
  29 C29           -0.4003     3.9401    -1.2239 C.3     
  30 C30           -2.5565     4.0172     0.0360 C.3     
  31 C31           -0.3885     3.9266     1.2745 C.3     
  32 H32           -0.8313    -0.5005     0.0073 H       
  33 H33            2.0356    -0.1581     0.5366 H       
  34 H34            2.0331    -2.4529     1.0786 H       
  35 H35            0.2753    -2.1541     1.2883 H       
  36 H36            1.2572    -3.9829    -0.5391 H       
  37 H37           -0.2574    -3.0700    -0.8129 H       
  38 H38            1.5913    -3.7216    -3.3607 H       
  39 H39            3.1316     0.1620    -4.3064 H       
  40 H40            2.5392     0.9342    -2.0505 H       
  41 H41            3.6842    -3.5474    -8.8763 H       
  42 H42            3.7862    -4.0525    -4.6414 H       
  43 H43           -0.5707     3.3049    -6.6210 H       
  44 H44            0.5967     3.2076    -7.9611 H       
  45 H45           -0.9253     2.2878    -8.0380 H       
  46 H46           -0.9321     3.6018    -2.1132 H       
  47 H47           -0.3581     5.0293    -1.2182 H       
  48 H48            0.6125     3.5373    -1.2309 H       
  49 H49           -3.0798     3.6692     0.9266 H       
  50 H50           -2.5142     5.1064     0.0417 H       
  51 H51           -3.0883     3.6789    -0.8533 H       
  52 H52            0.6243     3.5237     1.2675 H       
  53 H53           -0.3462     5.0157     1.2802 H       
  54 H54           -0.9118     3.5786     2.1651 H       
@<TRIPOS>BOND
   1    1    2 am
   2    1    3 2
   3    1    4 1
   4    2    5 1
   5    2   32 1
   6    4   28 1
   7    5    6 1
   8    5   13 1
   9    5   33 1
  10    6    7 1
  11    6   34 1
  12    6   35 1
  13    7    8 1
  14    7   36 1
  15    7   37 1
  16    8    9 ar
  17    8   13 ar
  18    9   10 ar
  19    9   38 1
  20   10   11 ar
  21   10   14 1
  22   11   12 ar
  23   11   39 1
  24   12   13 ar
  25   12   40 1
  26   14   15 ar
  27   14   19 ar
  28   15   16 ar
  29   15   22 1
  30   16   17 ar
  31   16   26 1
  32   17   18 ar
  33   17   41 1
  34   18   19 ar
  35   18   27 1
  36   19   42 1
  37   20   21 1
  38   20   24 1
  39   21   22 2
  40   22   23 1
  41   23   24 2
  42   24   25 1
  43   25   43 1
  44   25   44 1
  45   25   45 1
  46   28   29 1
  47   28   31 1
  48   28   30 1
  49   29   46 1
  50   29   47 1
  51   29   48 1
  52   30   49 1
  53   30   50 1
  54   30   51 1
  55   31   52 1
  56   31   53 1
  57   31   54 1

#	End of record

