#	Name: ASD10410245
#	Creating user name:	WinNT
#	Creation time:	15. 06. 2019 21:27

#	Modifying user name:	WinNT
#	Modification time:	15. 06. 2019 21:27

#	Program:	/corina/corina34_cracker 3.40 0067  02.08.2006

@<TRIPOS>MOLECULE
ASD10410245
  64   69    0    0    0
SMALL
NO_CHARGES


@<TRIPOS>ATOM
   1 C1             0.0471     1.2884     0.5345 C.ar    
   2 C2             0.0015    -0.0026     0.0293 C.ar    
   3 C3             1.1473    -0.5852    -0.4920 C.ar    
   4 C4             2.3346     0.1199    -0.5085 C.ar    
   5 C5             2.3811     1.4127    -0.0034 C.ar    
   6 C6             1.2334     1.9951     0.5183 C.ar    
   7 O7            -1.1672    -0.6979     0.0456 O.3     
   8 N8             3.5843     2.1280    -0.0193 N.pl3   
   9 C9             3.5673     3.5192    -0.1174 C.2     
  10 N10            4.6177     4.3008    -0.0408 N.2     
  11 N11            2.4773     4.2712    -0.3106 N.2     
  12 C12            2.8174     5.5415    -0.3540 C.2     
  13 N13            4.1589     5.6197    -0.1888 N.pl3   
  14 C14            4.9325     6.7811    -0.1691 C.ar    
  15 N15            1.9577     6.6074    -0.5394 N.pl3   
  16 C16            6.1515     6.7812     0.5032 C.ar    
  17 C17           -1.1418    -2.0221    -0.4908 C.3     
  18 C18           -2.5371    -2.6413    -0.3870 C.3     
  19 N19           -3.4693    -1.8937    -1.2415 N.3     
  20 C20           -4.7608    -2.5959    -1.3552 C.3     
  21 C21           -5.8564    -1.6174    -0.8827 C.3     
  22 C22           -5.1881    -0.2294    -1.0661 C.3     
  23 C23           -3.7155    -0.5403    -0.6997 C.3     
  24 N24            4.4982     7.8644    -0.7946 N.ar    
  25 C25            5.1965     8.9835    -0.8146 C.ar    
  26 C26            6.4237     9.0555    -0.1696 C.ar    
  27 C27            6.9062     7.9355     0.5142 C.ar    
  28 C28            7.2355    10.2937    -0.1766 C.ar    
  29 C29            8.5793    10.2267     0.1872 C.ar    
  30 C30            9.2002     8.9029     0.5444 C.3     
  31 C31            8.2020     8.0106     1.2703 C.3     
  32 C32            6.6710    11.5134    -0.5379 C.ar    
  33 C33            7.4441    12.6573    -0.5216 C.ar    
  34 C34            8.7738    12.5900    -0.1458 C.ar    
  35 C35            9.3400    11.3786     0.2078 C.ar    
  36 H36           -0.8465     1.7427     0.9364 H       
  37 H37            1.1110    -1.5906    -0.8848 H       
  38 H38            3.2269    -0.3341    -0.9138 H       
  39 H39            1.2685     3.0006     0.9111 H       
  40 H40            4.4298     1.6561     0.0379 H       
  41 H41            1.0072     6.4500    -0.6517 H       
  42 H42            2.3048     7.5130    -0.5571 H       
  43 H43            6.5002     5.8924     1.0080 H       
  44 H44           -0.8378    -1.9847    -1.5369 H       
  45 H45           -0.4324    -2.6286     0.0722 H       
  46 H46           -2.4986    -3.6805    -0.7135 H       
  47 H47           -2.8778    -2.5978     0.6475 H       
  48 H48           -4.9388    -2.8791    -2.3927 H       
  49 H49           -4.7576    -3.4830    -0.7218 H       
  50 H50           -6.7452    -1.7028    -1.5080 H       
  51 H51           -6.1027    -1.7911     0.1648 H       
  52 H52           -5.2702     0.1102    -2.0986 H       
  53 H53           -5.6147     0.5030    -0.3808 H       
  54 H54           -3.5844    -0.5351     0.3824 H       
  55 H55           -3.0473     0.1829    -1.1672 H       
  56 H56            4.8117     9.8478    -1.3355 H       
  57 H57            9.5265     8.4024    -0.3673 H       
  58 H58           10.0638     9.0738     1.1872 H       
  59 H59            8.0123     8.4180     2.2633 H       
  60 H60            8.6208     7.0090     1.3680 H       
  61 H61            5.6326    11.5649    -0.8302 H       
  62 H62            7.0103    13.6056    -0.8029 H       
  63 H63            9.3731    13.4883    -0.1285 H       
  64 H64           10.3786    11.3338     0.5004 H       
@<TRIPOS>BOND
   1    1    2 ar
   2    1    6 ar
   3    1   36 1
   4    2    3 ar
   5    2    7 1
   6    3    4 ar
   7    3   37 1
   8    4    5 ar
   9    4   38 1
  10    5    6 ar
  11    5    8 1
  12    6   39 1
  13    7   17 1
  14    8    9 1
  15    8   40 1
  16    9   10 2
  17    9   11 1
  18   10   13 1
  19   11   12 2
  20   12   13 1
  21   12   15 1
  22   13   14 1
  23   14   16 ar
  24   14   24 ar
  25   15   41 1
  26   15   42 1
  27   16   27 ar
  28   16   43 1
  29   17   18 1
  30   17   44 1
  31   17   45 1
  32   18   19 1
  33   18   46 1
  34   18   47 1
  35   19   20 1
  36   19   23 1
  37   20   21 1
  38   20   48 1
  39   20   49 1
  40   21   22 1
  41   21   50 1
  42   21   51 1
  43   22   23 1
  44   22   52 1
  45   22   53 1
  46   23   54 1
  47   23   55 1
  48   24   25 ar
  49   25   26 ar
  50   25   56 1
  51   26   27 ar
  52   26   28 1
  53   27   31 1
  54   28   29 ar
  55   28   32 ar
  56   29   30 1
  57   29   35 ar
  58   30   31 1
  59   30   57 1
  60   30   58 1
  61   31   59 1
  62   31   60 1
  63   32   33 ar
  64   32   61 1
  65   33   34 ar
  66   33   62 1
  67   34   35 ar
  68   34   63 1
  69   35   64 1

#	End of record

