#	Name: ASD14290001
#	Creating user name:	WinNT
#	Creation time:	15. 06. 2019 21:31

#	Modifying user name:	WinNT
#	Modification time:	15. 06. 2019 21:31

#	Program:	/corina/corina34_cracker 3.40 0067  02.08.2006

@<TRIPOS>MOLECULE
ASD14290001
  68   71    0    0    0
SMALL
NO_CHARGES


@<TRIPOS>ATOM
   1 O1            -0.2895     1.1562    -0.4860 O.3     
   2 O2             0.4345     3.3201     0.0029 O.3     
   3 O3             0.5858    -2.1555     0.8124 O.3     
   4 O4             1.6098    -0.4090     2.8398 O.3     
   5 O5             2.2281     2.2416     1.9437 O.3     
   6 O6            -2.0934    -0.0284    -1.7633 O.3     
   7 O7             0.9921     5.4530    -0.7960 O.3     
   8 O8            -2.3036     2.2875    -3.4074 O.3     
   9 O9            -2.7943     6.6490    -3.4157 O.3     
  10 O10           -2.3605     2.8824    -5.5373 O.2     
  11 O11           -1.4603     8.1546    -2.4690 O.2     
  12 O12           -2.3008    -4.0813    -6.0482 O.3     
  13 O13           -4.4964    -5.0193    -4.6746 O.3     
  14 C14            0.2518    -0.7674     0.8731 C.3     
  15 C15            1.4168     0.0111     1.4877 C.3     
  16 C16           -0.0211    -0.2463    -0.5393 C.3     
  17 C17            1.1016     1.5081     1.4587 C.3     
  18 C18            0.7940     1.9366     0.0228 C.3     
  19 C19           -1.2318    -0.9744    -1.1269 C.3     
  20 C20            0.9911     4.0450    -1.0961 C.3     
  21 C21           -1.0740     4.5416    -2.5973 C.3     
  22 C22            0.1904     3.7617    -2.3376 C.2     
  23 C23           -2.1170    -0.1306    -3.1884 C.3     
  24 C24           -1.4149     4.4855    -4.0877 C.3     
  25 C25           -0.8574     5.9729    -2.1805 C.2     
  26 C26           -2.9283     1.0286    -3.7707 C.3     
  27 C27            0.1252     6.3015    -1.3391 C.2     
  28 C28            0.5881     2.8460    -3.1858 C.2     
  29 C29           -2.7514    -1.4379    -3.5877 C.ar    
  30 C30           -2.0614     3.1592    -4.3998 C.2     
  31 C31           -1.7083     6.9838    -2.6884 C.2     
  32 C32            0.6129     3.1465    -4.6623 C.3     
  33 C33           -2.2300    -2.1639    -4.6423 C.ar    
  34 C34           -3.8501    -1.9114    -2.8948 C.ar    
  35 C35           -2.8122    -3.3661    -5.0107 C.ar    
  36 C36           -4.4357    -3.1101    -3.2571 C.ar    
  37 C37           -3.9215    -3.8399    -4.3169 C.ar    
  38 C38           -3.6085     7.7204    -3.8967 C.3     
  39 H39           -0.6385    -0.6344     1.4878 H       
  40 H40            2.3241    -0.1804     0.9148 H       
  41 H41            0.8512    -0.4262    -1.1677 H       
  42 H42            0.2371     1.7097     2.0911 H       
  43 H43            1.6761     1.7827    -0.5991 H       
  44 H44           -1.7744    -1.4802    -0.3282 H       
  45 H45           -0.8945    -1.7084    -1.8586 H       
  46 H46            2.0200     3.7122    -1.2528 H       
  47 H47           -1.8934     4.1153    -2.0191 H       
  48 H48            0.7718    -2.5533     1.6740 H       
  49 H49            2.3341     0.0439     3.2928 H       
  50 H50            2.0989     3.1998     1.9534 H       
  51 H51           -1.0977    -0.0895    -3.5724 H       
  52 H52           -2.1038     5.2933    -4.3342 H       
  53 H53           -0.5023     4.5926    -4.6741 H       
  54 H54           -3.9425     0.9982    -3.3726 H       
  55 H55           -2.9614     0.9395    -4.8565 H       
  56 H56            0.2241     7.3447    -1.0774 H       
  57 H57            0.8982     1.8757    -2.8269 H       
  58 H58            0.8950     4.1880    -4.8164 H       
  59 H59            1.3380     2.4973    -5.1531 H       
  60 H60           -0.3763     2.9716    -5.0854 H       
  61 H61           -1.3692    -1.7938    -5.1793 H       
  62 H62           -4.2516    -1.3437    -2.0684 H       
  63 H63           -5.2936    -3.4780    -2.7140 H       
  64 H64           -3.9876     8.2959    -3.0522 H       
  65 H65           -3.0134     8.3684    -4.5402 H       
  66 H66           -4.4455     7.3140    -4.4645 H       
  67 H67           -1.6199    -4.7173    -5.7897 H       
  68 H68           -4.1298    -5.7896    -4.2193 H       
@<TRIPOS>BOND
   1    1   16 1
   2    1   18 1
   3    2   18 1
   4    2   20 1
   5    3   48 1
   6    3   14 1
   7    4   49 1
   8    4   15 1
   9    5   50 1
  10    5   17 1
  11    6   19 1
  12    6   23 1
  13    7   20 1
  14    7   27 1
  15    8   26 1
  16    8   30 1
  17    9   31 1
  18    9   38 1
  19   10   30 2
  20   11   31 2
  21   12   35 1
  22   12   67 1
  23   13   37 1
  24   13   68 1
  25   14   15 1
  26   14   39 1
  27   14   16 1
  28   15   17 1
  29   15   40 1
  30   16   19 1
  31   16   41 1
  32   17   18 1
  33   17   42 1
  34   18   43 1
  35   19   44 1
  36   19   45 1
  37   20   22 1
  38   20   46 1
  39   21   22 1
  40   21   24 1
  41   21   25 1
  42   21   47 1
  43   22   28 2
  44   23   26 1
  45   23   29 1
  46   23   51 1
  47   24   30 1
  48   24   52 1
  49   24   53 1
  50   25   27 2
  51   25   31 1
  52   26   54 1
  53   26   55 1
  54   27   56 1
  55   28   32 1
  56   28   57 1
  57   29   33 ar
  58   29   34 ar
  59   32   58 1
  60   32   59 1
  61   32   60 1
  62   33   35 ar
  63   33   61 1
  64   34   36 ar
  65   34   62 1
  66   35   37 ar
  67   36   37 ar
  68   36   63 1
  69   38   64 1
  70   38   65 1
  71   38   66 1

#	End of record

