#	Name: ASD10610139
#	Creating user name:	WinNT
#	Creation time:	15. 06. 2019 21:28

#	Modifying user name:	WinNT
#	Modification time:	15. 06. 2019 21:28

#	Program:	/corina/corina34_cracker 3.40 0067  02.08.2006

@<TRIPOS>MOLECULE
ASD10610139
  55   58    0    0    0
SMALL
NO_CHARGES


@<TRIPOS>ATOM
   1 C1             0.0114     1.4959     0.0352 C.3     
   2 C2             0.1964    -0.0204    -0.0515 C.3     
   3 C3             1.4188     0.8960     0.0320 C.3     
   4 C4            -0.4418     2.2139    -1.2099 C.2     
   5 O5            -0.2341     1.7262    -2.3007 O.2     
   6 N6            -1.0779     3.3980    -1.1112 N.am    
   7 C7            -2.5383     6.3097    -2.6158 C.ar    
   8 C8            -2.5974     5.0484    -2.0332 C.ar    
   9 C9            -1.4209     4.1484    -2.3218 C.3     
  10 C10           -0.2014     4.9783    -2.7683 C.3     
  11 S11           -1.0219     6.4297    -3.5297 S.3     
  12 C12           -3.7150     4.7378    -1.2542 C.ar    
  13 C13           -4.7299     5.6461    -1.0693 C.ar    
  14 C14           -4.6646     6.9072    -1.6599 C.ar    
  15 C15           -3.5546     7.2340    -2.4344 C.ar    
  16 O16           -7.0258     7.7722    -0.6877 O.3     
  17 B17           -5.8238     7.9452    -1.4517 Du      
  18 O18           -5.9131     9.2749    -1.9832 O.3     
  19 C19           -6.4731    10.0605    -0.9100 C.3     
  20 C20           -7.2276     9.0417    -0.0316 C.3     
  21 C21           -8.7179     9.3837     0.0210 C.3     
  22 C22           -6.6359     9.0127     1.3791 C.3     
  23 C23           -5.3599    10.7358    -0.1065 C.3     
  24 C24           -7.4419    11.1068    -1.4646 C.3     
  25 N25           -0.4869     2.0454     1.2985 N.am    
  26 C26           -1.7309     1.7439     1.7205 C.2     
  27 O27           -2.4045     0.9471     1.1022 O.2     
  28 C28           -2.2848     2.3968     2.9606 C.3     
  29 F29           -3.5821     1.9282     3.1946 F       
  30 F30           -1.4716     2.0842     4.0552 F       
  31 F31           -2.3151     3.7842     2.7833 F       
  32 H32           -0.0525    -0.6091     0.8314 H       
  33 H33           -0.0096    -0.4986    -1.0091 H       
  34 H34            2.0170     1.0206    -0.8707 H       
  35 H35            1.9741     0.9102     0.9698 H       
  36 H36           -1.3087     3.7534    -0.2386 H       
  37 H37           -1.6886     3.4495    -3.1142 H       
  38 H38            0.4058     5.2747    -1.9130 H       
  39 H39            0.3952     4.4355    -3.5015 H       
  40 H40           -3.7828     3.7655    -0.7889 H       
  41 H41           -5.5835     5.3811    -0.4630 H       
  42 H42           -3.4884     8.2067    -2.8991 H       
  43 H43           -9.2452     8.6230     0.5968 H       
  44 H44           -8.8511    10.3558     0.4957 H       
  45 H45           -9.1193     9.4159    -0.9919 H       
  46 H46           -5.5717     8.7838     1.3221 H       
  47 H47           -6.7735     9.9857     1.8508 H       
  48 H48           -7.1409     8.2481     1.9693 H       
  49 H49           -4.8002    11.4090    -0.7560 H       
  50 H50           -5.7975    11.3036     0.7146 H       
  51 H51           -4.6888     9.9761     0.2941 H       
  52 H52           -8.2364    10.6081    -2.0198 H       
  53 H53           -7.8752    11.6737    -0.6405 H       
  54 H54           -6.9044    11.7839    -2.1285 H       
  55 H55            0.0785     2.6263     1.8313 H       
@<TRIPOS>BOND
   1    1    2 1
   2    1    3 1
   3    1    4 1
   4    1   25 1
   5    2    3 1
   6    2   32 1
   7    2   33 1
   8    3   34 1
   9    3   35 1
  10    4    5 2
  11    4    6 am
  12    6    9 1
  13    6   36 1
  14    7    8 ar
  15    7   11 1
  16    7   15 ar
  17    8    9 1
  18    8   12 ar
  19    9   10 1
  20    9   37 1
  21   10   11 1
  22   10   38 1
  23   10   39 1
  24   12   13 ar
  25   12   40 1
  26   13   14 ar
  27   13   41 1
  28   14   15 ar
  29   14   17 1
  30   15   42 1
  31   16   17 1
  32   16   20 1
  33   17   18 1
  34   18   19 1
  35   19   20 1
  36   19   23 1
  37   19   24 1
  38   20   21 1
  39   20   22 1
  40   21   43 1
  41   21   44 1
  42   21   45 1
  43   22   46 1
  44   22   47 1
  45   22   48 1
  46   23   49 1
  47   23   50 1
  48   23   51 1
  49   24   52 1
  50   24   53 1
  51   24   54 1
  52   25   26 am
  53   25   55 1
  54   26   27 2
  55   26   28 1
  56   28   29 1
  57   28   30 1
  58   28   31 1

#	End of record

