#	Name: ASD10220038
#	Creating user name:	WinNT
#	Creation time:	15. 06. 2019 21:26

#	Modifying user name:	WinNT
#	Modification time:	15. 06. 2019 21:26

#	Program:	/corina/corina34_cracker 3.40 0067  02.08.2006

@<TRIPOS>MOLECULE
ASD10220038
  29   31    0    0    0
SMALL
NO_CHARGES


@<TRIPOS>ATOM
   1 C1            -0.0063     1.4618    -0.1708 C.2     
   2 C2             0.0236     0.0549    -0.3187 C.2     
   3 C3            -1.1137    -0.6726    -0.3753 C.2     
   4 C4            -2.4363    -0.0543    -0.2883 C.2     
   5 C5            -2.5497     1.3191    -0.1424 C.2     
   6 C6            -1.3372     2.1499    -0.0694 C.2     
   7 O7            -3.6789    -0.5722    -0.3212 O.3     
   8 C8            -4.6083     0.3784    -0.2056 C.2     
   9 C9            -3.9875     1.6051    -0.0878 C.2     
  10 O10           -1.4107     3.3539     0.0585 O.2     
  11 O11            1.0259     2.1009    -0.1217 O.2     
  12 C12           -4.6315     2.9214     0.0621 C.2     
  13 O13           -3.9535     3.9104     0.2653 O.2     
  14 C14           -6.1015     3.0403    -0.0343 C.ar    
  15 C15           -6.8279     2.1417    -0.8186 C.ar    
  16 C16           -8.1996     2.2584    -0.9042 C.ar    
  17 C17           -8.8561     3.2630    -0.2152 C.ar    
  18 C18           -8.1425     4.1568     0.5638 C.ar    
  19 C19           -6.7710     4.0481     0.6630 C.ar    
  20 Br20           1.6921    -0.8267    -0.4404 Br      
  21 Br21          -0.9914    -2.5491    -0.5741 Br      
  22 N22          -10.3283     3.3823    -0.3122 N.pl3   
  23 O23          -10.9590     2.5973    -0.9974 O.2     
  24 O24          -10.9089     4.2655     0.2931 O.2     
  25 H25           -5.6757     0.2141    -0.2050 H       
  26 H26           -6.3168     1.3574    -1.3572 H       
  27 H27           -8.7626     1.5643    -1.5107 H       
  28 H28           -8.6611     4.9385     1.0990 H       
  29 H29           -6.2153     4.7464     1.2713 H       
@<TRIPOS>BOND
   1    1    2 1
   2    1   11 2
   3    1    6 1
   4    2    3 2
   5    2   20 1
   6    3    4 1
   7    3   21 1
   8    4    5 2
   9    4    7 1
  10    5    6 1
  11    5    9 1
  12    6   10 2
  13    7    8 1
  14    8    9 2
  15    8   25 1
  16    9   12 1
  17   12   13 2
  18   12   14 1
  19   14   15 ar
  20   14   19 ar
  21   15   16 ar
  22   15   26 1
  23   16   17 ar
  24   16   27 1
  25   17   18 ar
  26   17   22 1
  27   18   19 ar
  28   18   28 1
  29   19   29 1
  30   22   23 2
  31   22   24 2

#	End of record

