#	Name: ASD11000048
#	Creating user name:	WinNT
#	Creation time:	15. 06. 2019 21:28

#	Modifying user name:	WinNT
#	Modification time:	15. 06. 2019 21:28

#	Program:	/corina/corina34_cracker 3.40 0067  02.08.2006

@<TRIPOS>MOLECULE
ASD11000048
  52   54    0    0    0
SMALL
NO_CHARGES


@<TRIPOS>ATOM
   1 C1            -3.6271    -5.0314     0.0371 C.ar    
   2 C2            -2.4590    -4.3303     0.2788 C.ar    
   3 C3            -2.4663    -2.9508     0.2789 C.ar    
   4 C4            -3.6558    -2.2623     0.0339 C.ar    
   5 C5            -4.8307    -2.9758    -0.2097 C.ar    
   6 C6            -4.8084    -4.3552    -0.2116 C.ar    
   7 C7            -3.6712    -0.7845     0.0329 C.2     
   8 O8            -2.6279    -0.1659     0.1101 O.2     
   9 N9            -4.8422    -0.1228    -0.0537 N.am    
  10 C10           -6.1648    -0.7343    -0.2653 C.3     
  11 C11           -7.1178     0.4772    -0.2793 C.3     
  12 N12           -6.2326     1.6319    -0.0753 N.2     
  13 C13           -5.0073     1.2380     0.0463 C.2     
  14 S14           -3.6648     2.3496     0.3047 S.3     
  15 C15           -4.5584     3.9235     0.3195 C.3     
  16 C16           -3.6115    -6.5383     0.0387 C.3     
  17 C17           -3.1522    -7.0422     1.4083 C.3     
  18 C18           -5.0189    -7.0632    -0.2521 C.3     
  19 C19           -2.6476    -7.0394    -1.0387 C.3     
  20 C20           -3.5835     5.0527     0.5332 C.ar    
  21 C21           -2.9876     5.6661    -0.5529 C.ar    
  22 C22           -2.0933     6.7018    -0.3570 C.ar    
  23 C23           -1.7952     7.1244     0.9250 C.ar    
  24 C24           -2.3918     6.5115     2.0110 C.ar    
  25 C25           -3.2894     5.4787     1.8149 C.ar    
  26 C26           -0.8195     8.2528     1.1387 C.3     
  27 H27           -1.5395    -4.8643     0.4682 H       
  28 H28           -1.5540    -2.4048     0.4683 H       
  29 H29           -5.7543    -2.4492    -0.3995 H       
  30 H30           -5.7165    -4.9084    -0.4002 H       
  31 H31           -6.1971    -1.2600    -1.2196 H       
  32 H32           -6.4122    -1.4086     0.5547 H       
  33 H33           -7.6267     0.5514    -1.2404 H       
  34 H34           -7.8416     0.4029     0.5323 H       
  35 H35           -5.0695     4.0602    -0.6335 H       
  36 H36           -5.2906     3.9181     1.1270 H       
  37 H37           -3.8389    -6.6852     2.1758 H       
  38 H38           -3.1409    -8.1321     1.4094 H       
  39 H39           -2.1495    -6.6682     1.6155 H       
  40 H40           -5.3462    -6.7043    -1.2279 H       
  41 H41           -5.0076    -8.1532    -0.2510 H       
  42 H42           -5.7056    -6.7062     0.5154 H       
  43 H43           -1.6449    -6.6655    -0.8315 H       
  44 H44           -2.6363    -8.1294    -1.0376 H       
  45 H45           -2.9748    -6.6805    -2.0144 H       
  46 H46           -3.2206     5.3360    -1.5545 H       
  47 H47           -1.6273     7.1807    -1.2054 H       
  48 H48           -2.1586     6.8414     3.0126 H       
  49 H49           -3.7555     4.9999     2.6634 H       
  50 H50           -1.3569     9.2011     1.1470 H       
  51 H51           -0.3090     8.1162     2.0920 H       
  52 H52           -0.0869     8.2574     0.3316 H       
@<TRIPOS>BOND
   1    1    2 ar
   2    1   16 1
   3    1    6 ar
   4    2    3 ar
   5    2   27 1
   6    3    4 ar
   7    3   28 1
   8    4    5 ar
   9    4    7 1
  10    5    6 ar
  11    5   29 1
  12    6   30 1
  13    7    8 2
  14    7    9 am
  15    9   10 1
  16    9   13 1
  17   10   11 1
  18   10   31 1
  19   10   32 1
  20   11   12 1
  21   11   33 1
  22   11   34 1
  23   12   13 2
  24   13   14 1
  25   14   15 1
  26   15   20 1
  27   15   35 1
  28   15   36 1
  29   16   17 1
  30   16   18 1
  31   16   19 1
  32   17   37 1
  33   17   38 1
  34   17   39 1
  35   18   40 1
  36   18   41 1
  37   18   42 1
  38   19   43 1
  39   19   44 1
  40   19   45 1
  41   20   21 ar
  42   20   25 ar
  43   21   22 ar
  44   21   46 1
  45   22   23 ar
  46   22   47 1
  47   23   24 ar
  48   23   26 1
  49   24   25 ar
  50   24   48 1
  51   25   49 1
  52   26   50 1
  53   26   51 1
  54   26   52 1

#	End of record

