#	Name: ASD10160119
#	Creating user name:	WinNT
#	Creation time:	15. 06. 2019 21:25

#	Modifying user name:	WinNT
#	Modification time:	15. 06. 2019 21:25

#	Program:	/corina/corina34_cracker 3.40 0067  02.08.2006

@<TRIPOS>MOLECULE
ASD10160119
  42   44    0    0    0
SMALL
NO_CHARGES


@<TRIPOS>ATOM
   1 C1            -0.3992     1.1094    -1.9470 C.2     
   2 C2            -0.2790    -0.2701    -1.4403 C.ar    
   3 C3             0.9049    -0.9906    -1.6393 C.ar    
   4 C4             1.0122    -2.2814    -1.1625 C.ar    
   5 C5            -0.0519    -2.8646    -0.4871 C.ar    
   6 C6            -1.2303    -2.1513    -0.2880 C.ar    
   7 C7            -1.3446    -0.8606    -0.7546 C.ar    
   8 O8             0.5307     1.6230    -2.5388 O.2     
   9 N9            -1.5418     1.7991    -1.7592 N.am    
  10 S10           -1.6768     3.3484    -2.3283 S.o2    
  11 O11           -2.9793     3.7551    -1.9315 O.2     
  12 O12           -0.5202     4.0067    -1.8302 O.2     
  13 C13           -1.5850     3.1777    -4.1319 C.3     
  14 F14            1.9399    -0.4237    -2.2971 F       
  15 O15            0.0574    -4.1341    -0.0202 O.3     
  16 C16            1.5445    -5.5235    -1.2616 C.ar    
  17 C17            1.2594    -4.7564    -0.1395 C.ar    
  18 C18            2.2189    -4.6317     0.8613 C.ar    
  19 C19            3.4301    -5.2822     0.6986 C.ar    
  20 C20            3.6461    -6.0354    -0.4551 C.ar    
  21 N21            2.7064    -6.1301    -1.3869 N.ar    
  22 C22            4.9391    -6.7370    -0.6425 C.ar    
  23 C23            4.9773    -7.9740    -1.2836 C.ar    
  24 C24            6.1835    -8.6221    -1.4556 C.ar    
  25 C25            7.3532    -8.0463    -0.9932 C.ar    
  26 C26            7.3213    -6.8191    -0.3558 C.ar    
  27 C27            6.1215    -6.1592    -0.1833 C.ar    
  28 Cl28           4.6637    -5.1616     1.9140 Cl      
  29 Cl29          -2.5562    -2.8876     0.5568 Cl      
  30 H30            1.9247    -2.8387    -1.3151 H       
  31 H31           -2.2580    -0.3068    -0.5950 H       
  32 H32           -2.2850     1.3880    -1.2906 H       
  33 H33           -2.4013     2.5441    -4.4789 H       
  34 H34           -1.6666     4.1613    -4.5945 H       
  35 H35           -0.6320     2.7251    -4.4059 H       
  36 H36            0.8021    -5.6274    -2.0391 H       
  37 H37            2.0232    -4.0410     1.7440 H       
  38 H38            4.0647    -8.4246    -1.6447 H       
  39 H39            6.2143    -9.5808    -1.9519 H       
  40 H40            8.2949    -8.5571    -1.1300 H       
  41 H41            8.2375    -6.3745     0.0039 H       
  42 H42            6.0983    -5.1988     0.3101 H       
@<TRIPOS>BOND
   1    1    2 1
   2    1    8 2
   3    1    9 am
   4    2    3 ar
   5    2    7 ar
   6    3    4 ar
   7    3   14 1
   8    4    5 ar
   9    4   30 1
  10    5    6 ar
  11    5   15 1
  12    6    7 ar
  13    6   29 1
  14    7   31 1
  15    9   10 am
  16    9   32 1
  17   10   11 2
  18   10   12 2
  19   10   13 1
  20   13   33 1
  21   13   34 1
  22   13   35 1
  23   15   17 1
  24   16   17 ar
  25   16   21 ar
  26   16   36 1
  27   17   18 ar
  28   18   19 ar
  29   18   37 1
  30   19   20 ar
  31   19   28 1
  32   20   21 ar
  33   20   22 1
  34   22   23 ar
  35   22   27 ar
  36   23   24 ar
  37   23   38 1
  38   24   25 ar
  39   24   39 1
  40   25   26 ar
  41   25   40 1
  42   26   27 ar
  43   26   41 1
  44   27   42 1

#	End of record

