#	Name: ASD10160236
#	Creating user name:	WinNT
#	Creation time:	15. 06. 2019 21:25

#	Modifying user name:	WinNT
#	Modification time:	15. 06. 2019 21:25

#	Program:	/corina/corina34_cracker 3.40 0067  02.08.2006

@<TRIPOS>MOLECULE
ASD10160236
  38   40    0    0    0
SMALL
NO_CHARGES


@<TRIPOS>ATOM
   1 C1            -0.1351     1.4672     0.0331 C.2     
   2 C2            -0.0842    -0.0063     0.0190 C.ar    
   3 C3             1.1408    -0.6651    -0.1385 C.ar    
   4 C4             1.1833    -2.0447    -0.1506 C.ar    
   5 C5             0.0132    -2.7784    -0.0073 C.ar    
   6 C6            -1.2075    -2.1268     0.1496 C.ar    
   7 C7            -1.2588    -0.7499     0.1686 C.ar    
   8 O8             0.8883     2.1121    -0.0922 O.2     
   9 N9            -1.3163     2.0994     0.1792 N.am    
  10 S10           -1.3734     3.7544     0.1951 S.o2    
  11 O11           -2.7485     4.0558     0.3888 O.2     
  12 O12           -0.3984     4.1294     1.1584 O.2     
  13 C13           -0.8434     4.2415    -1.4700 C.3     
  14 O14            0.0593    -4.1349    -0.0206 O.3     
  15 C15           -0.1493    -8.2109    -2.5953 C.ar    
  16 N16            0.1619    -8.8903    -1.5164 N.ar    
  17 C17            0.3771    -8.3131    -0.3423 C.ar    
  18 C18            0.2881    -6.9637    -0.1772 C.ar    
  19 C19           -0.0409    -6.1686    -1.2885 C.ar    
  20 C20           -0.1520    -4.7684    -1.2030 C.ar    
  21 C21           -0.4754    -4.0516    -2.3221 C.ar    
  22 C22           -0.6958    -4.6876    -3.5408 C.ar    
  23 C23           -0.5962    -6.0411    -3.6577 C.ar    
  24 C24           -0.2659    -6.8127    -2.5324 C.ar    
  25 F25           -2.3427    -2.8459     0.2886 F       
  26 F26            2.2796     0.0482    -0.2789 F       
  27 H27            2.1278    -2.5542    -0.2720 H       
  28 H28           -2.2056    -0.2458     0.2949 H       
  29 H29           -2.1331     1.5850     0.2752 H       
  30 H30           -1.5257     3.8179    -2.2069 H       
  31 H31           -0.8512     5.3285    -1.5503 H       
  32 H32            0.1651     3.8709    -1.6533 H       
  33 H33           -0.3111    -8.7257    -3.5309 H       
  34 H34            0.6298    -8.9301     0.5073 H       
  35 H35            0.4667    -6.5139     0.7883 H       
  36 H36           -0.5614    -2.9769    -2.2594 H       
  37 H37           -0.9505    -4.0975    -4.4088 H       
  38 H38           -0.7709    -6.5181    -4.6108 H       
@<TRIPOS>BOND
   1    1    2 1
   2    1    8 2
   3    1    9 am
   4    2    3 ar
   5    2    7 ar
   6    3    4 ar
   7    3   26 1
   8    4    5 ar
   9    4   27 1
  10    5    6 ar
  11    5   14 1
  12    6    7 ar
  13    6   25 1
  14    7   28 1
  15    9   10 am
  16    9   29 1
  17   10   11 2
  18   10   12 2
  19   10   13 1
  20   13   30 1
  21   13   31 1
  22   13   32 1
  23   14   20 1
  24   15   16 ar
  25   15   24 ar
  26   15   33 1
  27   16   17 ar
  28   17   18 ar
  29   17   34 1
  30   18   19 ar
  31   18   35 1
  32   19   20 ar
  33   19   24 ar
  34   20   21 ar
  35   21   22 ar
  36   21   36 1
  37   22   23 ar
  38   22   37 1
  39   23   24 ar
  40   23   38 1

#	End of record

