#	Name: ASD15010001
#	Creating user name:	WinNT
#	Creation time:	15. 06. 2019 21:31

#	Modifying user name:	WinNT
#	Modification time:	15. 06. 2019 21:31

#	Program:	/corina/corina34_cracker 3.40 0067  02.08.2006

@<TRIPOS>MOLECULE
ASD15010001
 185  190    0    0    0
SMALL
NO_CHARGES


@<TRIPOS>ATOM
   1 N1             4.1129     4.3680     1.6636 N.3     
   2 C2             3.8156     3.0931     0.9972 C.3     
   3 C3             3.8414     1.9614     2.0266 C.3     
   4 C4             3.5317     0.6335     1.3325 C.3     
   5 C5             3.5575    -0.4982     2.3618 C.3     
   6 C6             3.2478    -1.8261     1.6678 C.3     
   7 O7             3.2719    -2.8830     2.6292 O.3     
   8 C8             2.9936    -4.1733     2.0815 C.3     
   9 O9             4.0871    -4.5883     1.2603 O.3     
  10 C10            5.3382    -4.6600     1.9471 C.3     
  11 C11            5.2394    -5.6861     3.0790 C.3     
  12 C12            4.1005    -5.2862     4.0221 C.3     
  13 C13            2.8006    -5.1798     3.2188 C.3     
  14 O14            4.9734    -6.9784     2.5301 O.3     
  15 C15            6.1479    -7.7297     2.2167 C.3     
  16 O16            3.9531    -6.2775     5.0408 O.3     
  17 O17            1.7453    -4.7369     4.0745 O.3     
  18 C18            6.0059    -9.1517     2.7657 C.3     
  19 C19            4.8190    -9.8382     2.0829 C.3     
  20 C20            5.0356    -9.8194     0.5666 C.3     
  21 C21            5.2151    -8.3716     0.1025 C.3     
  22 O22            6.3154    -7.7825     0.7985 O.3     
  23 O23            5.5354    -6.9949    -1.8578 O.3     
  24 O24            6.2053   -10.5733     0.2420 O.3     
  25 C25            6.1590   -11.1927    -1.0450 C.3     
  26 O26            4.7238   -11.1903     2.5354 O.3     
  27 N27            7.2314    -9.9065     2.4926 N.am    
  28 C28            7.5033   -11.8644    -1.3370 C.3     
  29 C29            7.7515   -12.9645    -0.3004 C.3     
  30 C30            6.5855   -13.9573    -0.3367 C.3     
  31 C31            5.2766   -13.2047    -0.0833 C.3     
  32 O32            5.1226   -12.1763    -1.0635 O.3     
  33 O33            7.4761   -12.4384    -2.6454 O.3     
  34 O34            8.9692   -13.6458    -0.6086 O.3     
  35 O35            6.5340   -14.5867    -1.6186 O.3     
  36 C36            6.0099   -15.9159    -1.5928 C.3     
  37 C37            5.8847   -16.4432    -3.0245 C.3     
  38 C38            7.2765   -16.5046    -3.6613 C.3     
  39 C39            8.1837   -17.3839    -2.7952 C.3     
  40 C40            8.2201   -16.8203    -1.3722 C.3     
  41 O41            6.8911   -16.7613    -0.8505 O.3     
  42 O42            9.2354   -17.1240     0.7997 O.3     
  43 O43            7.6711   -18.7175    -2.7675 O.3     
  44 C44            8.3620   -19.6237    -3.6298 C.3     
  45 O45            7.1781   -17.0647    -4.9722 O.3     
  46 N46            5.2967   -17.7849    -3.0025 N.am    
  47 O47            9.5008   -20.1547    -2.9491 O.3     
  48 C48            9.1869   -20.8479    -1.7396 C.3     
  49 C49            8.2830   -22.0419    -2.0573 C.3     
  50 C50            7.0198   -21.5421    -2.7650 C.3     
  51 C51            7.4250   -20.7686    -4.0235 C.3     
  52 O52            8.9786   -22.9540    -2.9096 O.3     
  53 C53            9.7223   -23.9526    -2.2085 C.3     
  54 O54            6.2580   -20.2356    -4.6529 O.3     
  55 O55            6.2040   -22.6568    -3.1309 O.3     
  56 O56            8.8201   -24.8683    -1.5843 O.3     
  57 C57            7.9389   -25.5305    -2.4936 C.3     
  58 C58            8.7601   -26.3517    -3.4911 C.3     
  59 C59            9.7342   -25.4244    -4.2242 C.3     
  60 C60           10.6152   -24.7104    -3.1945 C.3     
  61 O61            6.1583   -25.6811    -0.8665 O.3     
  62 O62            9.4942   -27.3582    -2.7910 O.3     
  63 O63           10.5558   -26.1939    -5.1046 O.3     
  64 N64           11.5007   -23.7653    -3.8791 N.am    
  65 C65            5.4918    -8.3486    -1.4021 C.3     
  66 C66            9.0764   -17.7270    -0.4860 C.3     
  67 C67            7.0053   -26.4592    -1.7145 C.3     
  68 C68            6.4178    -5.0783     0.9824 C.2     
  69 O69            6.1361    -5.3404    -0.1629 O.2     
  70 O70            7.6923    -5.1596     1.3956 O.3     
  71 S71            0.3882    -5.3439     3.7488 S.o2    
  72 O72           -0.5624    -4.6539     4.5485 O.2     
  73 O73            0.3086    -5.4116     2.3316 O.2     
  74 O74            0.4064    -6.7818     4.2475 O.3     
  75 S75            5.8060    -6.8521    -3.3487 S.o2    
  76 O76            6.0146    -5.4669    -3.5877 O.2     
  77 O77            6.7610    -7.8505    -3.6806 O.2     
  78 O78            4.5229    -7.2255    -4.0773 O.3     
  79 O79            6.8867   -11.2294     4.2399 O.2     
  80 C80            7.5840   -10.9317     3.2933 C.2     
  81 C81            8.8446   -11.7082     3.0124 C.3     
  82 S82            8.0558   -11.5393    -3.7280 S.o2    
  83 O83            7.7688   -12.1693    -4.9690 O.2     
  84 O84            7.6432   -10.2162    -3.4143 O.2     
  85 O85            9.5696   -11.5656    -3.5727 O.3     
  86 C86            4.1188   -14.1649    -0.1760 C.2     
  87 O87            3.2982   -14.0387    -1.0538 O.2     
  88 O88            3.9993   -15.1603     0.7165 O.3     
  89 S89           10.1716   -17.8839     1.7284 S.o2    
  90 O90           10.0873   -17.2442     2.9945 O.2     
  91 O91            9.8951   -19.2643     1.5352 O.2     
  92 O92           11.5895   -17.6551     1.2248 O.3     
  93 O93            3.6340   -17.1542    -4.3289 O.2     
  94 C94            4.1875   -18.0465    -3.7220 C.2     
  95 C95            3.6351   -19.4477    -3.7723 C.3     
  96 C96           10.4587   -21.3375    -1.0963 C.2     
  97 O97           11.5157   -21.1981    -1.6647 O.2     
  98 O98           10.4172   -21.9284     0.1082 O.3     
  99 S99            6.3023   -20.2749    -6.1738 S.o2    
 100 O100           5.1236   -19.6232    -6.6265 O.2     
 101 O101           7.6101   -19.8639    -6.5479 O.2     
 102 O102           6.1743   -21.7331    -6.5907 O.3     
 103 S103           5.1829   -26.5068    -0.0399 S.o2    
 104 O104           4.2989   -25.5824     0.5792 O.2     
 105 O105           4.7391   -27.5633    -0.8802 O.2     
 106 O106           5.9805   -27.1561     1.0820 O.3     
 107 O107          12.9851   -23.8588    -2.2329 O.2     
 108 C108          12.6679   -23.4027    -3.3110 C.2     
 109 C109          13.5788   -22.4304    -4.0153 C.3     
 110 H110           4.9951     4.3240     2.1513 H       
 111 H111           4.1019     5.1318     1.0044 H       
 112 H112           2.8282     3.1445     0.5384 H       
 113 H113           4.5641     2.9018     0.2282 H       
 114 H114           4.8287     1.9100     2.4854 H       
 115 H115           3.0929     2.1526     2.7956 H       
 116 H116           2.5443     0.6849     0.8737 H       
 117 H117           4.2802     0.4423     0.5635 H       
 118 H118           4.5448    -0.5496     2.8207 H       
 119 H119           2.8090    -0.3070     3.1308 H       
 120 H120           2.2604    -1.7746     1.2089 H       
 121 H121           3.9963    -2.0173     0.8988 H       
 122 H122           2.0856    -4.1250     1.4806 H       
 123 H123           5.5812    -3.6821     2.3629 H       
 124 H124           6.1785    -5.7103     3.6317 H       
 125 H125           4.3267    -4.3228     4.4790 H       
 126 H126           2.5485    -6.1553     2.8030 H       
 127 H127           7.0169    -7.2508     2.6680 H       
 128 H128           3.2480    -6.0881     5.6748 H       
 129 H129           5.8339    -9.1114     3.8413 H       
 130 H130           3.9000    -9.3051     2.3266 H       
 131 H131           4.1697   -10.2566     0.0695 H       
 132 H132           4.3070    -7.8069     0.3140 H       
 133 H133           5.9573   -10.4375    -1.8047 H       
 134 H134           4.5926   -11.2774     3.4895 H       
 135 H135           7.7891    -9.6684     1.7355 H       
 136 H136           8.3008   -11.1235    -1.2798 H       
 137 H137           7.8217   -12.5206     0.6926 H       
 138 H138           6.7266   -14.7131     0.4359 H       
 139 H139           5.3003   -12.7588     0.9110 H       
 140 H140           9.7497   -13.0749    -0.6102 H       
 141 H141           5.0276   -15.9102    -1.1203 H       
 142 H142           5.2480   -15.7750    -3.6044 H       
 143 H143           7.6939   -15.4996    -3.7230 H       
 144 H144           9.1913   -17.3885    -3.2110 H       
 145 H145           8.6488   -15.8183    -1.3891 H       
 146 H146           8.6877   -19.0958    -4.5261 H       
 147 H147           6.6120   -16.5615    -5.5734 H       
 148 H148           5.7058   -18.4849    -2.4700 H       
 149 H149           8.6708   -20.1726    -1.0571 H       
 150 H150           8.0064   -22.5461    -1.1313 H       
 151 H151           6.4632   -20.8851    -2.0966 H       
 152 H152           7.9382   -21.4386    -4.7133 H       
 153 H153          10.3419   -23.4774    -1.4480 H       
 154 H154           5.3854   -22.4131    -3.5844 H       
 155 H155           7.3482   -24.7894    -3.0322 H       
 156 H156           8.0922   -26.8223    -4.2126 H       
 157 H157           9.1734   -24.6868    -4.7983 H       
 158 H158          11.2126   -25.4450    -2.6545 H       
 159 H159           8.9395   -27.9791    -2.2992 H       
 160 H160          10.0619   -26.6791    -5.7797 H       
 161 H161          11.2470   -23.4004    -4.7414 H       
 162 H162           6.4486    -8.8306    -1.6029 H       
 163 H163           4.6989    -8.8829    -1.9255 H       
 164 H164           8.5866   -18.6945    -0.3754 H       
 165 H165          10.0549   -17.8656    -0.9459 H       
 166 H166           6.3941   -27.0299    -2.4137 H       
 167 H167           7.5976   -27.1436    -1.1072 H       
 168 H168           8.3594    -5.3591     0.7246 H       
 169 H169          -0.4169    -7.2636     4.0887 H       
 170 H170           4.5866    -7.1680    -5.0405 H       
 171 H171           9.3345   -11.2984     2.1290 H       
 172 H172           9.5159   -11.6330     3.8678 H       
 173 H173           8.5953   -12.7547     2.8370 H       
 174 H174          10.0408   -11.0214    -4.2184 H       
 175 H175           3.2401   -15.7508     0.6165 H       
 176 H176          12.2697   -18.0989     1.7496 H       
 177 H177           4.2571   -20.1055    -3.1653 H       
 178 H178           2.6165   -19.4508    -3.3844 H       
 179 H179           3.6322   -19.8002    -4.8037 H       
 180 H180          11.2464   -22.2920     0.4476 H       
 181 H181           6.1912   -21.8715    -7.5476 H       
 182 H182           5.4504   -27.7089     1.6725 H       
 183 H183          13.3265   -21.4134    -3.7151 H       
 184 H184          14.6137   -22.6423    -3.7468 H       
 185 H185          13.4550   -22.5323    -5.0934 H       
@<TRIPOS>BOND
   1    1    2 1
   2    1  110 1
   3    1  111 1
   4    2    3 1
   5    2  112 1
   6    2  113 1
   7    3    4 1
   8    3  114 1
   9    3  115 1
  10    4    5 1
  11    4  116 1
  12    4  117 1
  13    5    6 1
  14    5  118 1
  15    5  119 1
  16    6    7 1
  17    6  120 1
  18    6  121 1
  19    7    8 1
  20    8    9 1
  21    8   13 1
  22    8  122 1
  23    9   10 1
  24   10   68 1
  25   10   11 1
  26   10  123 1
  27   11   12 1
  28   11   14 1
  29   11  124 1
  30   12   13 1
  31   12   16 1
  32   12  125 1
  33   13   17 1
  34   13  126 1
  35   14   15 1
  36   15   18 1
  37   15   22 1
  38   15  127 1
  39   16  128 1
  40   17   71 1
  41   18   19 1
  42   18   27 1
  43   18  129 1
  44   19   20 1
  45   19   26 1
  46   19  130 1
  47   20   21 1
  48   20   24 1
  49   20  131 1
  50   21   22 1
  51   21   65 1
  52   21  132 1
  53   23   75 1
  54   23   65 1
  55   24   25 1
  56   25   28 1
  57   25   32 1
  58   25  133 1
  59   26  134 1
  60   27   80 am
  61   27  135 1
  62   28   29 1
  63   28   33 1
  64   28  136 1
  65   29   30 1
  66   29   34 1
  67   29  137 1
  68   30   31 1
  69   30   35 1
  70   30  138 1
  71   31   86 1
  72   31   32 1
  73   31  139 1
  74   33   82 1
  75   34  140 1
  76   35   36 1
  77   36   37 1
  78   36   41 1
  79   36  141 1
  80   37   38 1
  81   37   46 1
  82   37  142 1
  83   38   39 1
  84   38   45 1
  85   38  143 1
  86   39   40 1
  87   39   43 1
  88   39  144 1
  89   40   41 1
  90   40   66 1
  91   40  145 1
  92   42   89 1
  93   42   66 1
  94   43   44 1
  95   44   47 1
  96   44   51 1
  97   44  146 1
  98   45  147 1
  99   46   94 am
 100   46  148 1
 101   47   48 1
 102   48   96 1
 103   48   49 1
 104   48  149 1
 105   49   50 1
 106   49   52 1
 107   49  150 1
 108   50   51 1
 109   50   55 1
 110   50  151 1
 111   51   54 1
 112   51  152 1
 113   52   53 1
 114   53   56 1
 115   53   60 1
 116   53  153 1
 117   54   99 1
 118   55  154 1
 119   56   57 1
 120   57   58 1
 121   57   67 1
 122   57  155 1
 123   58   59 1
 124   58   62 1
 125   58  156 1
 126   59   60 1
 127   59   63 1
 128   59  157 1
 129   60   64 1
 130   60  158 1
 131   61  103 1
 132   61   67 1
 133   62  159 1
 134   63  160 1
 135   64  108 am
 136   64  161 1
 137   65  162 1
 138   65  163 1
 139   66  164 1
 140   66  165 1
 141   67  166 1
 142   67  167 1
 143   68   69 2
 144   68   70 1
 145   70  168 1
 146   71   72 2
 147   71   73 2
 148   71   74 1
 149   74  169 1
 150   75   76 2
 151   75   77 2
 152   75   78 1
 153   78  170 1
 154   79   80 2
 155   80   81 1
 156   81  171 1
 157   81  172 1
 158   81  173 1
 159   82   83 2
 160   82   84 2
 161   82   85 1
 162   85  174 1
 163   86   87 2
 164   86   88 1
 165   88  175 1
 166   89   90 2
 167   89   91 2
 168   89   92 1
 169   92  176 1
 170   93   94 2
 171   94   95 1
 172   95  177 1
 173   95  178 1
 174   95  179 1
 175   96   97 2
 176   96   98 1
 177   98  180 1
 178   99  100 2
 179   99  101 2
 180   99  102 1
 181  102  181 1
 182  103  104 2
 183  103  105 2
 184  103  106 1
 185  106  182 1
 186  107  108 2
 187  108  109 1
 188  109  183 1
 189  109  184 1
 190  109  185 1

#	End of record

