#	Name: ASD10220166
#	Creating user name:	WinNT
#	Creation time:	15. 06. 2019 21:26

#	Modifying user name:	WinNT
#	Modification time:	15. 06. 2019 21:26

#	Program:	/corina/corina34_cracker 3.40 0067  02.08.2006

@<TRIPOS>MOLECULE
ASD10220166
  28   30    0    0    0
SMALL
NO_CHARGES


@<TRIPOS>ATOM
   1 C1            -0.0046     1.4325    -0.1583 C.ar    
   2 C2             0.0246     0.0489    -0.2955 C.ar    
   3 C3            -1.1469    -0.6754    -0.3522 C.ar    
   4 C4            -2.3717    -0.0247    -0.2718 C.ar    
   5 C5            -2.4009     1.3705    -0.1329 C.ar    
   6 C6            -1.2159     2.0953    -0.0714 C.ar    
   7 O7            -3.6493    -0.4603    -0.2984 O.3     
   8 C8            -4.5128     0.5548    -0.1865 C.2     
   9 C9            -3.8322     1.7309    -0.0785 C.2     
  10 C10           -4.4036     3.0770     0.0625 C.2     
  11 O11           -3.6735     4.0303     0.2590 O.2     
  12 C12           -5.8659     3.2734    -0.0343 C.ar    
  13 O13            1.1588     2.1341    -0.1037 O.3     
  14 C14           -6.4803     4.3188     0.6577 C.ar    
  15 C15           -7.8449     4.4967     0.5626 C.ar    
  16 C16           -8.6046     3.6414    -0.2159 C.ar    
  17 C17           -8.0020     2.6033    -0.9043 C.ar    
  18 C18           -6.6376     2.4177    -0.8226 C.ar    
  19 H19            0.9736    -0.4628    -0.3586 H       
  20 H20           -1.1125    -1.7495    -0.4597 H       
  21 H21           -1.2410     3.1697     0.0356 H       
  22 H22           -5.5884     0.4573    -0.1825 H       
  23 H23            1.4841     2.4240    -0.9670 H       
  24 H24           -5.8886     4.9866     1.2662 H       
  25 H25           -8.3215     5.3050     1.0973 H       
  26 H26           -9.6728     3.7846    -0.2864 H       
  27 H27           -8.6008     1.9391    -1.5099 H       
  28 H28           -6.1684     1.6072    -1.3607 H       
@<TRIPOS>BOND
   1    1    2 ar
   2    1   13 1
   3    1    6 ar
   4    2    3 ar
   5    2   19 1
   6    3    4 ar
   7    3   20 1
   8    4    5 ar
   9    4    7 1
  10    5    6 ar
  11    5    9 1
  12    6   21 1
  13    7    8 1
  14    8    9 2
  15    8   22 1
  16    9   10 1
  17   10   11 2
  18   10   12 1
  19   12   14 ar
  20   12   18 ar
  21   13   23 1
  22   14   15 ar
  23   14   24 1
  24   15   16 ar
  25   15   25 1
  26   16   17 ar
  27   16   26 1
  28   17   18 ar
  29   17   27 1
  30   18   28 1

#	End of record

