#	Name: ASD14640006
#	Creating user name:	WinNT
#	Creation time:	15. 06. 2019 21:31

#	Modifying user name:	WinNT
#	Modification time:	15. 06. 2019 21:31

#	Program:	/corina/corina34_cracker 3.40 0067  02.08.2006

@<TRIPOS>MOLECULE
ASD14640006
  94   97    0    0    0
SMALL
NO_CHARGES


@<TRIPOS>ATOM
   1 C1            -0.0571     1.3244     0.1406 C.ar    
   2 C2             0.0528    -0.0425    -0.0343 C.ar    
   3 C3             1.2950    -0.6166    -0.2297 C.ar    
   4 C4             2.4273     0.1761    -0.2507 C.ar    
   5 C5             2.3173     1.5431    -0.0767 C.ar    
   6 C6             1.0752     2.1170     0.1201 C.ar    
   7 C7            -1.1816    -0.9067    -0.0114 C.3     
   8 C8            -1.7452    -1.0285    -1.4286 C.3     
   9 N9            -2.2140     0.2833    -1.8822 N.am    
  10 C10           -2.8962    -2.0012    -1.4296 C.2     
  11 O11           -4.0372    -1.5905    -1.4497 O.2     
  12 N12           -2.6577    -3.3275    -1.4080 N.am    
  13 C13           -1.3481     1.1524    -2.4402 C.2     
  14 C14           -1.8303     2.5018    -2.9067 C.3     
  15 O15           -0.1808     0.8485    -2.5669 O.2     
  16 N16           -0.6906     3.4152    -3.0201 N.am    
  17 C17            0.3249     3.1251    -3.8573 C.2     
  18 C18            1.4973     4.0648    -3.9739 C.3     
  19 O19            0.2952     2.1077    -4.5169 O.2     
  20 C20           -2.5063     2.3578    -4.2718 C.3     
  21 C21           -3.1053     3.7026    -4.6886 C.3     
  22 C22           -3.7812     3.5586    -6.0536 C.3     
  23 C23           -4.3802     4.9033    -6.4704 C.3     
  24 N24           -5.0292     4.7651    -7.7810 N.3     
  25 C25            1.1341     5.2455    -4.8955 C.3     
  26 C26            2.1423     5.1556    -6.0758 C.3     
  27 N27            2.6461     3.3642    -4.5968 N.3     
  28 C28            1.4704     4.3128    -7.1622 C.3     
  29 C29            2.4946     3.8329    -8.1873 C.3     
  30 C30            3.5162     2.9390    -7.4755 C.3     
  31 C31            4.2594     3.7869    -6.4435 C.3     
  32 C32            3.3091     4.3839    -5.4327 C.3     
  33 H33            2.4470     6.1379    -6.4369 H       
  34 H34            3.8621     5.0569    -4.7775 H       
  35 C35           -5.8162     5.9618    -8.1076 C.3     
  36 C36           -4.0411     4.4823    -8.8306 C.3     
  37 C37           -6.4754     5.7808    -9.4764 C.3     
  38 C38           -6.8970     6.1673    -7.0442 C.3     
  39 C39           -1.2023    -4.8545    -2.6347 C.3     
  40 C40           -1.2839    -3.8424    -1.4876 C.3     
  41 C41           -3.7661    -4.2858    -1.2984 C.3     
  42 C42           -3.6618    -5.2938    -2.4473 C.3     
  43 C43           -2.2725    -5.9354    -2.4331 C.3     
  44 H44           -1.0280     1.7735     0.2888 H       
  45 H45            1.3809    -1.6846    -0.3657 H       
  46 H46            3.3978    -0.2725    -0.4027 H       
  47 H47            3.2019     2.1624    -0.0927 H       
  48 H48            0.9894     3.1850     0.2565 H       
  49 H49           -0.9247    -1.8973     0.3638 H       
  50 H50           -1.9298    -0.4544     0.6395 H       
  51 H51           -0.9653    -1.3878    -2.1001 H       
  52 H52           -3.1475     0.5263    -1.7809 H       
  53 H53           -2.5455     2.9006    -2.1874 H       
  54 H54           -0.6669     4.2289    -2.4926 H       
  55 H55            1.7752     4.4356    -2.9874 H       
  56 H56           -1.7693     2.0436    -5.0108 H       
  57 H57           -3.2981     1.6114    -4.2082 H       
  58 H58           -3.8423     4.0167    -3.9495 H       
  59 H59           -2.3135     4.4489    -4.7522 H       
  60 H60           -3.0442     3.2444    -6.7927 H       
  61 H61           -4.5730     2.8122    -5.9900 H       
  62 H62           -5.1172     5.2175    -5.7314 H       
  63 H63           -3.5884     5.6497    -6.5340 H       
  64 H64            0.1124     5.1412    -5.2607 H       
  65 H65            1.2537     6.1907    -4.3658 H       
  66 H66            3.2762     3.0073    -3.8941 H       
  67 H67            0.9923     3.4485    -6.7012 H       
  68 H68            0.7136     4.9142    -7.6658 H       
  69 H69            1.9913     3.2631    -8.9684 H       
  70 H70            3.0027     4.6913    -8.6265 H       
  71 H71            3.0012     2.1190    -6.9750 H       
  72 H72            4.2243     2.5400    -8.2017 H       
  73 H73            4.9853     3.1612    -5.9241 H       
  74 H74            4.7863     4.5917    -6.9561 H       
  75 H75           -5.1607     6.8322    -8.1323 H       
  76 H76           -3.5205     3.5532    -8.5987 H       
  77 H77           -4.5484     4.3848    -9.7904 H       
  78 H78           -3.3212     5.2992    -8.8815 H       
  79 H79           -7.1310     4.9103    -9.4517 H       
  80 H80           -7.0594     6.6687    -9.7187 H       
  81 H81           -5.7055     5.6344   -10.2339 H       
  82 H82           -6.4273     6.2962    -6.0691 H       
  83 H83           -7.4809     7.0552    -7.2865 H       
  84 H84           -7.5525     5.2968    -7.0195 H       
  85 H85           -1.3754    -4.3449    -3.5825 H       
  86 H86           -0.2145    -5.3152    -2.6438 H       
  87 H87           -0.5954    -3.0190    -1.6772 H       
  88 H88           -1.0222    -4.3316    -0.5493 H       
  89 H89           -3.7026    -4.8104    -0.3451 H       
  90 H90           -4.7158    -3.7549    -1.3632 H       
  91 H91           -4.4206    -6.0664    -2.3233 H       
  92 H92           -3.8159    -4.7807    -3.3965 H       
  93 H93           -2.2012    -6.6709    -3.2344 H       
  94 H94           -2.1150    -6.4278    -1.4735 H       
@<TRIPOS>BOND
   1    1    2 ar
   2    1    6 ar
   3    1   44 1
   4    2    3 ar
   5    2    7 1
   6    3    4 ar
   7    3   45 1
   8    4    5 ar
   9    4   46 1
  10    5    6 ar
  11    5   47 1
  12    6   48 1
  13    7    8 1
  14    7   49 1
  15    7   50 1
  16    8    9 1
  17    8   10 1
  18    8   51 1
  19    9   13 am
  20    9   52 1
  21   10   11 2
  22   10   12 am
  23   12   41 1
  24   12   40 1
  25   13   14 1
  26   13   15 2
  27   14   16 1
  28   14   20 1
  29   14   53 1
  30   16   17 am
  31   16   54 1
  32   17   19 2
  33   17   18 1
  34   18   25 1
  35   18   27 1
  36   18   55 1
  37   20   21 1
  38   20   56 1
  39   20   57 1
  40   21   22 1
  41   21   58 1
  42   21   59 1
  43   22   23 1
  44   22   60 1
  45   22   61 1
  46   23   24 1
  47   23   62 1
  48   23   63 1
  49   24   35 1
  50   24   36 1
  51   25   26 1
  52   25   64 1
  53   25   65 1
  54   26   32 1
  55   26   33 1
  56   26   28 1
  57   27   32 1
  58   27   66 1
  59   28   29 1
  60   28   67 1
  61   28   68 1
  62   29   30 1
  63   29   69 1
  64   29   70 1
  65   30   31 1
  66   30   71 1
  67   30   72 1
  68   31   32 1
  69   31   73 1
  70   31   74 1
  71   32   34 1
  72   35   37 1
  73   35   38 1
  74   35   75 1
  75   36   76 1
  76   36   77 1
  77   36   78 1
  78   37   79 1
  79   37   80 1
  80   37   81 1
  81   38   82 1
  82   38   83 1
  83   38   84 1
  84   39   40 1
  85   39   43 1
  86   39   85 1
  87   39   86 1
  88   40   87 1
  89   40   88 1
  90   41   42 1
  91   41   89 1
  92   41   90 1
  93   42   43 1
  94   42   91 1
  95   42   92 1
  96   43   93 1
  97   43   94 1

#	End of record

