#	Name: ASD10950054
#	Creating user name:	WinNT
#	Creation time:	15. 06. 2019 21:28

#	Modifying user name:	WinNT
#	Modification time:	15. 06. 2019 21:28

#	Program:	/corina/corina34_cracker 3.40 0067  02.08.2006

@<TRIPOS>MOLECULE
ASD10950054
  62   66    0    0    0
SMALL
NO_CHARGES


@<TRIPOS>ATOM
   1 C1             1.5442     1.3425     1.7288 C.3     
   2 O2             1.2879    -0.0553     1.4309 O.3     
   3 C3             0.0008    -0.4216     1.2763 C.2     
   4 O4            -0.8832     0.4041     1.3872 O.2     
   5 C5            -0.3356    -1.8275     0.9717 C.ar    
   6 C6            -1.6686    -2.2106     0.8108 C.ar    
   7 C7            -1.9756    -3.5250     0.5266 C.ar    
   8 C8            -0.9661    -4.4630     0.4009 C.ar    
   9 C9             0.3569    -4.0902     0.5591 C.ar    
  10 C10            0.6785    -2.7780     0.8379 C.ar    
  11 C11           -1.3093    -5.8973     0.0908 C.3     
  12 N12           -0.4642    -6.3934    -1.0016 N.am    
  13 C13           -0.4090    -5.8533    -2.3623 C.3     
  14 C14            0.6600    -4.7611    -2.4345 C.3     
  15 C15            0.7168    -4.2055    -3.8342 C.2     
  16 C16            0.0082    -3.1701    -4.3117 C.2     
  17 C17           -0.9882    -2.3645    -3.5185 C.3     
  18 N18            0.3253    -2.9541    -5.6251 N.pl3   
  19 C19            1.2696    -3.8684    -6.0351 C.ar    
  20 C20            1.5603    -4.6888    -4.9300 C.ar    
  21 C21            2.4960    -5.7178    -5.0533 C.ar    
  22 C22            3.1254    -5.9226    -6.2485 C.ar    
  23 C23            2.8424    -5.1154    -7.3420 C.ar    
  24 C24            1.9253    -4.0926    -7.2416 C.ar    
  25 C25            0.2515    -7.4315    -0.5323 C.2     
  26 O26            1.0538    -8.0747    -1.1795 O.2     
  27 C27           -0.0822    -7.6735     0.8874 C.2     
  28 C28           -1.0109    -6.7728     1.2855 C.2     
  29 C29           -1.6109    -6.6668     2.6187 C.2     
  30 O30           -0.9247    -6.3470     3.5710 O.2     
  31 C31           -3.0503    -6.9487     2.8061 C.ar    
  32 C32           -3.6457    -6.8065     4.0657 C.ar    
  33 C33           -4.9961    -7.0823     4.1875 C.ar    
  34 C34           -5.7082    -7.4858     3.0722 C.ar    
  35 N35           -5.1208    -7.6112     1.8971 N.ar    
  36 C36           -3.8404    -7.3556     1.7289 C.ar    
  37 O37            0.4545    -8.6418     1.6647 O.3     
  38 H38            2.6179     1.5019     1.8283 H       
  39 H39            1.1582     1.9631     0.9200 H       
  40 H40            1.0489     1.6120     2.6616 H       
  41 H41           -2.4575    -1.4795     0.9090 H       
  42 H42           -3.0063    -3.8228     0.4023 H       
  43 H43            1.1400    -4.8274     0.4601 H       
  44 H44            1.7116    -2.4883     0.9611 H       
  45 H45           -2.3613    -5.9799    -0.1821 H       
  46 H46           -0.1598    -6.6523    -3.0606 H       
  47 H47           -1.3787    -5.4305    -2.6250 H       
  48 H48            0.4108    -3.9621    -1.7363 H       
  49 H49            1.6297    -5.1839    -2.1718 H       
  50 H50           -0.4802    -1.5264    -3.0413 H       
  51 H51           -1.7636    -1.9874    -4.1852 H       
  52 H52           -1.4414    -2.9970    -2.7551 H       
  53 H53           -0.0582    -2.2604    -6.1841 H       
  54 H54            2.7218    -6.3493    -4.2067 H       
  55 H55            3.8492    -6.7186    -6.3433 H       
  56 H56            3.3484    -5.2895    -8.2801 H       
  57 H57            1.7120    -3.4701    -8.0980 H       
  58 H58           -3.0657    -6.4902     4.9201 H       
  59 H59           -5.4891    -6.9840     5.1434 H       
  60 H60           -6.7623    -7.7020     3.1647 H       
  61 H61           -3.3954    -7.4696     0.7515 H       
  62 H62            1.1047    -9.1953     1.2109 H       
@<TRIPOS>BOND
   1    1    2 1
   2    1   38 1
   3    1   39 1
   4    1   40 1
   5    2    3 1
   6    3    4 2
   7    3    5 1
   8    5    6 ar
   9    5   10 ar
  10    6    7 ar
  11    6   41 1
  12    7    8 ar
  13    7   42 1
  14    8    9 ar
  15    8   11 1
  16    9   10 ar
  17    9   43 1
  18   10   44 1
  19   11   12 1
  20   11   28 1
  21   11   45 1
  22   12   13 1
  23   12   25 am
  24   13   14 1
  25   13   46 1
  26   13   47 1
  27   14   15 1
  28   14   48 1
  29   14   49 1
  30   15   16 2
  31   15   20 1
  32   16   17 1
  33   16   18 1
  34   17   50 1
  35   17   51 1
  36   17   52 1
  37   18   19 1
  38   18   53 1
  39   19   20 ar
  40   19   24 ar
  41   20   21 ar
  42   21   22 ar
  43   21   54 1
  44   22   23 ar
  45   22   55 1
  46   23   24 ar
  47   23   56 1
  48   24   57 1
  49   25   26 2
  50   25   27 1
  51   27   28 2
  52   27   37 1
  53   28   29 1
  54   29   30 2
  55   29   31 1
  56   31   32 ar
  57   31   36 ar
  58   32   33 ar
  59   32   58 1
  60   33   34 ar
  61   33   59 1
  62   34   35 ar
  63   34   60 1
  64   35   36 ar
  65   36   61 1
  66   37   62 1

#	End of record

