#	Name: ASD10108002
#	Creating user name:	WinNT
#	Creation time:	15. 06. 2019 21:24

#	Modifying user name:	WinNT
#	Modification time:	15. 06. 2019 21:24

#	Program:	/corina/corina34_cracker 3.40 0067  02.08.2006

@<TRIPOS>MOLECULE
ASD10108002
  28   29    0    0    0
SMALL
NO_CHARGES


@<TRIPOS>ATOM
   1 C1            -0.0161     1.3337     0.0094 C.2     
   2 N2             0.0021    -0.0041     0.0020 N.am    
   3 C3             1.1568    -0.7031    -0.0128 C.2     
   4 C4             2.4532     0.0846    -0.0210 C.3     
   5 C5             2.3197     1.5957    -0.0116 C.2     
   6 N6             1.0723     2.1117     0.0032 N.am    
   7 O7            -1.1001     1.8821     0.0174 O.2     
   8 O8             1.1578    -1.9154    -0.0189 O.2     
   9 C9             0.9055     3.5672     0.0126 C.3     
  10 C10            0.8619     4.0585     1.4366 C.ar    
  11 C11            2.0312     4.4203     2.0790 C.ar    
  12 C12            1.9912     4.8710     3.3852 C.ar    
  13 C13            0.7818     4.9604     4.0488 C.ar    
  14 C14           -0.3876     4.5994     3.4061 C.ar    
  15 C15           -0.3480     4.1529     2.0985 C.ar    
  16 O16            3.2968     2.3133    -0.0167 O.2     
  17 N17            3.2368    -0.3123     1.1565 N.3     
  18 H18           -0.8397    -0.4861     0.0078 H       
  19 H19            3.0177    -0.2004    -0.9088 H       
  20 H20            1.7433     4.0323    -0.5067 H       
  21 H21           -0.0250     3.8295    -0.4909 H       
  22 H22            2.9760     4.3505     1.5606 H       
  23 H23            2.9048     5.1530     3.8874 H       
  24 H24            0.7507     5.3118     5.0696 H       
  25 H25           -1.3324     4.6689     3.9247 H       
  26 H26           -1.2621     3.8744     1.5951 H       
  27 H27            3.4444    -1.2995     1.1367 H       
  28 H28            4.0822     0.2336     1.2291 H       
@<TRIPOS>BOND
   1    1    2 am
   2    1    6 am
   3    1    7 2
   4    2    3 am
   5    2   18 1
   6    3    4 1
   7    3    8 2
   8    4    5 1
   9    4   17 1
  10    4   19 1
  11    5    6 am
  12    5   16 2
  13    6    9 1
  14    9   10 1
  15    9   20 1
  16    9   21 1
  17   10   11 ar
  18   10   15 ar
  19   11   12 ar
  20   11   22 1
  21   12   13 ar
  22   12   23 1
  23   13   14 ar
  24   13   24 1
  25   14   15 ar
  26   14   25 1
  27   15   26 1
  28   17   27 1
  29   17   28 1

#	End of record

