#	Name: ASD11030054
#	Creating user name:	WinNT
#	Creation time:	15. 06. 2019 21:29

#	Modifying user name:	WinNT
#	Modification time:	15. 06. 2019 21:29

#	Program:	/corina/corina34_cracker 3.40 0067  02.08.2006

@<TRIPOS>MOLECULE
ASD11030054
  84   89    0    0    0
SMALL
NO_CHARGES


@<TRIPOS>ATOM
   1 C1             0.9224     4.5187     6.1043 C.ar    
   2 C2             0.9283     3.3860     6.8988 C.ar    
   3 C3             2.0125     2.5267     6.8809 C.ar    
   4 C4             3.0954     2.7945     6.0692 C.ar    
   5 C5             3.0957     3.9351     5.2650 C.ar    
   6 C6             1.9991     4.7981     5.2881 C.ar    
   7 C7             4.2532     4.2286     4.3929 C.2     
   8 C8             4.1791     4.6257     3.0973 C.2     
   9 C9             5.5009     4.8007     2.6216 C.ar    
  10 C10            6.3641     4.4900     3.6919 C.ar    
  11 N11            5.5730     4.1475     4.7693 N.pl3   
  12 C12            6.0329     5.1936     1.3849 C.ar    
  13 C13            7.3813     5.2747     1.2183 C.ar    
  14 C14            8.2478     4.9671     2.2775 C.ar    
  15 C15            7.7360     4.5748     3.5127 C.ar    
  16 C16            6.0595     3.7531     6.0936 C.3     
  17 C17            2.9149     4.8414     2.3059 C.3     
  18 C18            9.7075     5.0589     2.0827 C.2     
  19 N19           10.2055     5.4377     0.8890 N.am    
  20 O20           10.4610     4.7927     2.9992 O.2     
  21 C21           11.6493     5.6230     0.7232 C.3     
  22 C22           12.4270     4.3436     0.8950 C.2     
  23 N23           11.9024     3.1747     0.4767 N.am    
  24 O24           13.5249     4.3659     1.4097 O.2     
  25 C25           12.5739     1.9788     0.7295 C.ar    
  26 C26           13.3355     1.8427     1.8877 C.ar    
  27 C27           13.9973     0.6768     2.1458 C.ar    
  28 C28           13.9138    -0.3920     1.2447 C.ar    
  29 C29           13.1458    -0.2583     0.0742 C.ar    
  30 C30           12.4757     0.9264    -0.1724 C.ar    
  31 C31           12.0281     6.4088    -0.5432 C.3     
  32 C32           13.0973     7.1130     0.3086 C.3     
  33 C33           12.2160     6.8017     1.5320 C.3     
  34 C34           14.6245    -1.6451     1.5202 C.2     
  35 C35           15.3629    -1.7704     2.6469 C.2     
  36 C36            2.8395     6.2995     1.8201 C.3     
  37 C37            2.8061     6.2493     0.2786 C.3     
  38 C38            2.2587     4.8366    -0.0436 C.3     
  39 C39            2.9246     3.9560     1.0427 C.3     
  40 O40           13.0581    -1.2876    -0.8056 O.3     
  41 C41           12.2807    -2.3390    -2.8380 C.3     
  42 C42           12.2596    -1.0778    -1.9720 C.3     
  43 C43           16.0489    -2.9798     2.9129 C.2     
  44 O44           15.9744    -3.9066     2.1281 O.2     
  45 O45           16.7854    -3.1047     4.0368 O.3     
  46 H46            0.0712     5.1833     6.1197 H       
  47 H47            0.0830     3.1719     7.5360 H       
  48 H48            2.0112     1.6446     7.5040 H       
  49 H49            3.9413     2.1231     6.0564 H       
  50 H50            1.9930     5.6822     4.6679 H       
  51 H51            5.3723     5.4314     0.5642 H       
  52 H52            7.7867     5.5777     0.2643 H       
  53 H53            8.4052     4.3386     4.3269 H       
  54 H54            6.1628     4.6383     6.7213 H       
  55 H55            5.3496     3.0641     6.5512 H       
  56 H56            7.0283     3.2635     5.9938 H       
  57 H57            2.0455     4.6072     2.9202 H       
  58 H58            9.6081     5.5877     0.1398 H       
  59 H59           11.0577     3.1653    -0.0001 H       
  60 H60           13.4032     2.6643     2.5854 H       
  61 H61           14.5863     0.5787     3.0458 H       
  62 H62           11.8837     1.0362    -1.0690 H       
  63 H63           12.4421     5.7859    -1.3361 H       
  64 H64           11.2410     7.0758    -0.8950 H       
  65 H65           14.0567     6.5958     0.3203 H       
  66 H66           13.1920     8.1782     0.0974 H       
  67 H67           11.4799     7.5760     1.7483 H       
  68 H68           12.7825     6.4972     2.4121 H       
  69 H69           14.5584    -2.4678     0.8236 H       
  70 H70           15.4290    -0.9477     3.3435 H       
  71 H71            1.9332     6.7726     2.1979 H       
  72 H72            3.7173     6.8511     2.1567 H       
  73 H73            2.1380     7.0159    -0.1137 H       
  74 H74            3.8097     6.3716    -0.1289 H       
  75 H75            1.1731     4.8121     0.0513 H       
  76 H76            2.5676     4.5206    -1.0400 H       
  77 H77            3.9473     3.7080     0.7586 H       
  78 H78            2.3430     3.0491     1.2080 H       
  79 H79           13.3063    -2.5590    -3.1345 H       
  80 H80           11.8792    -3.1774    -2.2688 H       
  81 H81           11.6716    -2.1790    -3.7277 H       
  82 H82           11.2341    -0.8578    -1.6755 H       
  83 H83           12.6611    -0.2394    -2.5412 H       
  84 H84           17.2160    -3.9654     4.1312 H       
@<TRIPOS>BOND
   1    1    2 ar
   2    1    6 ar
   3    1   46 1
   4    2    3 ar
   5    2   47 1
   6    3    4 ar
   7    3   48 1
   8    4    5 ar
   9    4   49 1
  10    5    6 ar
  11    5    7 1
  12    6   50 1
  13    7    8 2
  14    7   11 1
  15    8    9 1
  16    8   17 1
  17    9   10 ar
  18    9   12 ar
  19   10   11 1
  20   10   15 ar
  21   11   16 1
  22   12   13 ar
  23   12   51 1
  24   13   14 ar
  25   13   52 1
  26   14   15 ar
  27   14   18 1
  28   15   53 1
  29   16   54 1
  30   16   55 1
  31   16   56 1
  32   17   36 1
  33   17   39 1
  34   17   57 1
  35   18   19 am
  36   18   20 2
  37   19   21 1
  38   19   58 1
  39   21   22 1
  40   21   31 1
  41   21   33 1
  42   22   23 am
  43   22   24 2
  44   23   25 1
  45   23   59 1
  46   25   26 ar
  47   25   30 ar
  48   26   27 ar
  49   26   60 1
  50   27   28 ar
  51   27   61 1
  52   28   29 ar
  53   28   34 1
  54   29   30 ar
  55   29   40 1
  56   30   62 1
  57   31   32 1
  58   31   63 1
  59   31   64 1
  60   32   33 1
  61   32   65 1
  62   32   66 1
  63   33   67 1
  64   33   68 1
  65   34   35 2
  66   34   69 1
  67   35   43 1
  68   35   70 1
  69   36   37 1
  70   36   71 1
  71   36   72 1
  72   37   38 1
  73   37   73 1
  74   37   74 1
  75   38   39 1
  76   38   75 1
  77   38   76 1
  78   39   77 1
  79   39   78 1
  80   40   42 1
  81   41   42 1
  82   41   79 1
  83   41   80 1
  84   41   81 1
  85   42   82 1
  86   42   83 1
  87   43   44 2
  88   43   45 1
  89   45   84 1

#	End of record

