#	Name: ASD10100020
#	Creating user name:	WinNT
#	Creation time:	15. 06. 2019 21:24

#	Modifying user name:	WinNT
#	Modification time:	15. 06. 2019 21:24

#	Program:	/corina/corina34_cracker 3.40 0067  02.08.2006

@<TRIPOS>MOLECULE
ASD10100020
  45   47    0    0    0
SMALL
NO_CHARGES


@<TRIPOS>ATOM
   1 O1             0.6041    -2.8183     0.6165 O.2     
   2 C2            -0.6516     0.7382    -0.5190 C.3     
   3 O3             0.6293    -2.5167    -1.5000 O.2     
   4 N4             1.6899    -2.1533     2.4429 N.am    
   5 C5             1.0847    -1.9040     1.2651 C.2     
   6 C6             1.0110    -0.5829     0.7880 C.2     
   7 N7             0.3799    -0.2995    -0.4454 N.am    
   8 S8             0.8068    -1.1406    -1.8065 S.o2    
   9 C9             2.5363    -0.9031    -2.0454 C.ar    
  10 C10            3.4399    -1.7773    -1.4707 C.ar    
  11 C11            4.7968    -1.5909    -1.6580 C.ar    
  12 O12            2.7649    -1.3999     4.2250 O.2     
  13 C13            2.2232    -1.1513     3.1649 C.2     
  14 N14            2.1670     0.1218     2.7326 N.am    
  15 C15            1.5588     0.4241     1.5354 C.2     
  16 O16            0.1593    -0.4970    -2.8955 O.2     
  17 C17            2.9894     0.1542    -2.8121 C.ar    
  18 C18            4.3463     0.3405    -2.9994 C.ar    
  19 C19            5.2501    -0.5306    -2.4204 C.ar    
  20 C20            2.7562     1.1921     3.5409 C.3     
  21 N21            1.5016     1.7265     1.0945 N.pl3   
  22 C22            4.5248     2.2777     2.1420 C.ar    
  23 C23            4.1975     1.3852     3.1450 C.ar    
  24 C24            5.1920     0.6698     3.7858 C.ar    
  25 C25            5.8479     2.4549     1.7787 C.ar    
  26 C26            6.8424     1.7387     2.4196 C.ar    
  27 C27            6.5141     0.8465     3.4232 C.ar    
  28 Br28           6.2964     3.6755     0.4058 Br      
  29 H29           -0.2023     1.6743    -0.8506 H       
  30 H30           -1.4227     0.4344    -1.2270 H       
  31 H31           -1.0973     0.8780     0.4659 H       
  32 H32            1.7380    -3.0634     2.7752 H       
  33 H33            3.0857    -2.6056    -0.8750 H       
  34 H34            5.5027    -2.2735    -1.2084 H       
  35 H35            2.2834     0.8344    -3.2650 H       
  36 H36            4.7003     1.1663    -3.5987 H       
  37 H37            6.3101    -0.3849    -2.5665 H       
  38 H38            2.2063     2.1183     3.3738 H       
  39 H39            2.7021     0.9227     4.5956 H       
  40 H40            0.8546     1.9817     0.4184 H       
  41 H41            2.1084     2.3892     1.4599 H       
  42 H42            3.7475     2.8335     1.6387 H       
  43 H43            4.9359    -0.0271     4.5702 H       
  44 H44            7.8754     1.8767     2.1364 H       
  45 H45            7.2907     0.2877     3.9242 H       
@<TRIPOS>BOND
   1    1    5 2
   2    2    7 1
   3    2   29 1
   4    2   30 1
   5    2   31 1
   6    3    8 2
   7    4    5 am
   8    4   13 am
   9    4   32 1
  10    5    6 1
  11    6    7 1
  12    6   15 2
  13    7    8 am
  14    8    9 1
  15    8   16 2
  16    9   10 ar
  17    9   17 ar
  18   10   11 ar
  19   10   33 1
  20   11   19 ar
  21   11   34 1
  22   12   13 2
  23   13   14 am
  24   14   15 1
  25   14   20 1
  26   15   21 1
  27   17   18 ar
  28   17   35 1
  29   18   19 ar
  30   18   36 1
  31   19   37 1
  32   20   23 1
  33   20   38 1
  34   20   39 1
  35   21   40 1
  36   21   41 1
  37   22   23 ar
  38   22   25 ar
  39   22   42 1
  40   23   24 ar
  41   24   27 ar
  42   24   43 1
  43   25   26 ar
  44   25   28 1
  45   26   27 ar
  46   26   44 1
  47   27   45 1

#	End of record

