#	Name: ASD10410254
#	Creating user name:	WinNT
#	Creation time:	15. 06. 2019 21:27

#	Modifying user name:	WinNT
#	Modification time:	15. 06. 2019 21:27

#	Program:	/corina/corina34_cracker 3.40 0067  02.08.2006

@<TRIPOS>MOLECULE
ASD10410254
  75   80    0    0    0
SMALL
NO_CHARGES


@<TRIPOS>ATOM
   1 C1            -0.0359     1.4331    -0.0297 C.ar    
   2 C2            -0.0311     0.0486     0.0800 C.ar    
   3 C3             1.1736    -0.6370     0.1657 C.ar    
   4 C4             2.3665     0.0577     0.1415 C.ar    
   5 C5             2.3618     1.4421     0.0314 C.ar    
   6 C6             1.1571     2.1278    -0.0539 C.ar    
   7 N7             3.5718     2.1467     0.0073 N.pl3   
   8 C8             3.6647     3.3384    -0.6899 C.2     
   9 N9             4.7478     4.1692    -0.7085 N.pl3   
  10 N10            2.7286     3.8574    -1.4492 N.2     
  11 C11            3.1649     5.0199    -1.9692 C.2     
  12 C12            4.4198     5.2395    -1.5247 C.2     
  13 N13            2.4399     5.8582    -2.8294 N.pl3   
  14 N14           -1.2403    -0.6555     0.1045 N.3     
  15 C15           -1.0056    -2.1012     0.2250 C.3     
  16 C16           -2.3492    -2.8267     0.3283 C.3     
  17 N17           -3.1587    -2.5247    -0.8605 N.3     
  18 C18           -3.3935    -1.0790    -0.9809 C.3     
  19 C19           -2.0498    -0.3536    -1.0843 C.3     
  20 C20           -4.4280    -3.2638    -0.8347 C.3     
  21 C21            5.9489     3.9781    -0.0375 C.ar    
  22 N22            5.9664     3.6684     1.2511 N.ar    
  23 C23            7.1840     4.1028    -0.7118 C.ar    
  24 C24            8.3753     3.8951     0.0285 C.ar    
  25 N25            8.2790     3.5906     1.3310 N.ar    
  26 C26            7.1031     3.4830     1.9029 C.ar    
  27 C27            7.2578     4.4216    -2.0743 C.ar    
  28 C28            8.4793     4.5290    -2.6753 C.ar    
  29 C29            9.6586     4.3239    -1.9444 C.ar    
  30 C30            9.6143     4.0119    -0.6144 C.ar    
  31 C31           -5.2942    -2.8312    -2.0194 C.3     
  32 C32           -6.6161    -3.6010    -1.9926 C.3     
  33 C33           -6.3344    -5.1018    -2.0880 C.3     
  34 C34           -5.4682    -5.5345    -0.9033 C.3     
  35 C35           -4.1462    -4.7646    -0.9301 C.3     
  36 O36           10.8609     4.4364    -2.5666 O.3     
  37 C37           12.0267     4.2163    -1.7701 C.3     
  38 O38            8.5531     4.8378    -3.9974 O.3     
  39 C39            7.3173     5.0344    -4.6877 C.3     
  40 H40           -0.9726     1.9659    -0.1006 H       
  41 H41            1.1772    -1.7136     0.2517 H       
  42 H42            3.3033    -0.4755     0.2086 H       
  43 H43            1.1534     3.2044    -0.1399 H       
  44 H44            4.3447     1.7995     0.4794 H       
  45 H45            5.0475     6.0863    -1.7599 H       
  46 H46            1.5399     5.6158    -3.0981 H       
  47 H47            2.8386     6.6802    -3.1554 H       
  48 H48           -0.4670    -2.4566    -0.6536 H       
  49 H49           -0.4150    -2.3004     1.1192 H       
  50 H50           -2.1785    -3.9015     0.3886 H       
  51 H51           -2.8759    -2.4911     1.2217 H       
  52 H52           -3.9841    -0.8798    -1.8752 H       
  53 H53           -3.9320    -0.7236    -0.1024 H       
  54 H54           -2.2206     0.7213    -1.1446 H       
  55 H55           -1.5231    -0.6891    -1.9777 H       
  56 H56           -4.9534    -3.0513     0.0963 H       
  57 H57            7.0610     3.2366     2.9536 H       
  58 H58            6.3549     4.5809    -2.6452 H       
  59 H59           10.5293     3.8563    -0.0623 H       
  60 H60           -5.4949    -1.7620    -1.9514 H       
  61 H61           -4.7688    -3.0438    -2.9504 H       
  62 H62           -7.1415    -3.3885    -1.0615 H       
  63 H63           -7.2333    -3.2928    -2.8365 H       
  64 H64           -7.2762    -5.6503    -2.0689 H       
  65 H65           -5.8090    -5.3144    -3.0190 H       
  66 H66           -5.9936    -5.3219     0.0277 H       
  67 H67           -5.2674    -6.6037    -0.9713 H       
  68 H68           -3.6208    -4.9772    -1.8612 H       
  69 H69           -3.5291    -5.0728    -0.0862 H       
  70 H70           12.0507     4.9383    -0.9538 H       
  71 H71           12.0020     3.2062    -1.3612 H       
  72 H72           12.9168     4.3365    -2.3878 H       
  73 H73            6.7214     4.1234    -4.6325 H       
  74 H74            6.7695     5.8554    -4.2253 H       
  75 H75            7.5185     5.2743    -5.7317 H       
@<TRIPOS>BOND
   1    1    2 ar
   2    1    6 ar
   3    1   40 1
   4    2    3 ar
   5    2   14 1
   6    3    4 ar
   7    3   41 1
   8    4    5 ar
   9    4   42 1
  10    5    6 ar
  11    5    7 1
  12    6   43 1
  13    7    8 1
  14    7   44 1
  15    8    9 1
  16    8   10 2
  17    9   21 1
  18    9   12 1
  19   10   11 1
  20   11   12 2
  21   11   13 1
  22   12   45 1
  23   13   46 1
  24   13   47 1
  25   14   15 1
  26   14   19 1
  27   15   16 1
  28   15   48 1
  29   15   49 1
  30   16   17 1
  31   16   50 1
  32   16   51 1
  33   17   18 1
  34   17   20 1
  35   18   19 1
  36   18   52 1
  37   18   53 1
  38   19   54 1
  39   19   55 1
  40   20   31 1
  41   20   35 1
  42   20   56 1
  43   21   22 ar
  44   21   23 ar
  45   22   26 ar
  46   23   24 ar
  47   23   27 ar
  48   24   25 ar
  49   24   30 ar
  50   25   26 ar
  51   26   57 1
  52   27   28 ar
  53   27   58 1
  54   28   29 ar
  55   28   38 1
  56   29   30 ar
  57   29   36 1
  58   30   59 1
  59   31   32 1
  60   31   60 1
  61   31   61 1
  62   32   33 1
  63   32   62 1
  64   32   63 1
  65   33   34 1
  66   33   64 1
  67   33   65 1
  68   34   35 1
  69   34   66 1
  70   34   67 1
  71   35   68 1
  72   35   69 1
  73   36   37 1
  74   37   70 1
  75   37   71 1
  76   37   72 1
  77   38   39 1
  78   39   73 1
  79   39   74 1
  80   39   75 1

#	End of record

