#	Name: ASD10160022
#	Creating user name:	WinNT
#	Creation time:	15. 06. 2019 21:25

#	Modifying user name:	WinNT
#	Modification time:	15. 06. 2019 21:25

#	Program:	/corina/corina34_cracker 3.40 0067  02.08.2006

@<TRIPOS>MOLECULE
ASD10160022
  46   48    0    0    0
SMALL
NO_CHARGES


@<TRIPOS>ATOM
   1 C1             1.7601    -1.5462     3.5509 C.ar    
   2 C2             1.3276    -2.1546     2.3692 C.ar    
   3 C3             2.8110    -0.6263     3.5148 C.ar    
   4 C4             3.4172    -0.3219     2.3160 C.ar    
   5 C5             2.9847    -0.9280     1.1427 C.ar    
   6 C6             1.1043    -1.8702     4.8328 C.2     
   7 N7             1.5227    -1.2826     5.9713 N.am    
   8 O8             0.1865    -2.6672     4.8618 O.2     
   9 S9             0.7868    -1.6461     7.4096 S.o2    
  10 O10            1.4611    -0.8362     8.3628 O.2     
  11 O11           -0.5989    -1.4705     7.1485 O.2     
  12 O12            3.5843    -0.6250    -0.0364 O.3     
  13 C13            4.6716     0.1914    -0.0086 C.ar    
  14 C14            5.9504    -0.3319     0.1475 C.ar    
  15 C15            4.5311     1.5683    -0.1413 C.ar    
  16 N16            5.6110     2.3318    -0.1100 N.ar    
  17 C17            6.8136     1.7994     0.0453 C.ar    
  18 N18            6.9851     0.4921     0.1696 N.ar    
  19 N19            7.9220     2.6315     0.0732 N.3     
  20 C20            1.9387    -1.8451     1.1739 C.ar    
  21 Cl21           1.4025    -2.5993    -0.2949 Cl      
  22 C22            9.1568     1.8573     0.2526 C.3     
  23 C23           10.3658     2.7880     0.1331 C.3     
  24 C24           10.2683     3.8828     1.1991 C.3     
  25 C25            8.9511     4.6427     1.0201 C.3     
  26 C26            7.7831     3.6583     1.1138 C.3     
  27 C27            1.1661    -3.3990     7.6817 C.3     
  28 H28            0.5157    -2.8664     2.3932 H       
  29 H29            3.1476    -0.1541     4.4259 H       
  30 H30            4.2296     0.3892     2.2879 H       
  31 H31            2.2549    -0.6467     5.9482 H       
  32 H32            6.0970    -1.3970     0.2497 H       
  33 H33            3.5532     2.0087    -0.2687 H       
  34 H34            9.1533     1.3911     1.2379 H       
  35 H35            9.2159     1.0850    -0.5142 H       
  36 H36           11.2816     2.2158     0.2818 H       
  37 H37           10.3777     3.2440    -0.8568 H       
  38 H38           10.2957     3.4298     2.1902 H       
  39 H39           11.1048     4.5731     1.0899 H       
  40 H40            8.8561     5.3957     1.8024 H       
  41 H41            8.9407     5.1279     0.0441 H       
  42 H42            6.8444     4.1940     0.9725 H       
  43 H43            7.7861     3.1837     2.0951 H       
  44 H44            2.2466    -3.5334     7.7321 H       
  45 H45            0.7151    -3.7272     8.6182 H       
  46 H46            0.7645    -3.9898     6.8584 H       
@<TRIPOS>BOND
   1    1    2 ar
   2    1    3 ar
   3    1    6 1
   4    2   20 ar
   5    2   28 1
   6    3    4 ar
   7    3   29 1
   8    4    5 ar
   9    4   30 1
  10    5   20 ar
  11    5   12 1
  12    6    7 am
  13    6    8 2
  14    7    9 am
  15    7   31 1
  16    9   10 2
  17    9   11 2
  18    9   27 1
  19   12   13 1
  20   13   14 ar
  21   13   15 ar
  22   14   18 ar
  23   14   32 1
  24   15   16 ar
  25   15   33 1
  26   16   17 ar
  27   17   18 ar
  28   17   19 1
  29   19   22 1
  30   19   26 1
  31   20   21 1
  32   22   23 1
  33   22   34 1
  34   22   35 1
  35   23   24 1
  36   23   36 1
  37   23   37 1
  38   24   25 1
  39   24   38 1
  40   24   39 1
  41   25   26 1
  42   25   40 1
  43   25   41 1
  44   26   42 1
  45   26   43 1
  46   27   44 1
  47   27   45 1
  48   27   46 1

#	End of record

