#	Name: ASD13750002
#	Creating user name:	WinNT
#	Creation time:	15. 06. 2019 21:30

#	Modifying user name:	WinNT
#	Modification time:	15. 06. 2019 21:30

#	Program:	/corina/corina34_cracker 3.40 0067  02.08.2006

@<TRIPOS>MOLECULE
ASD13750002
  31   33    0    0    0
SMALL
NO_CHARGES


@<TRIPOS>ATOM
   1 C1            -0.0164     1.3565     0.0095 C.ar    
   2 C2             0.0021    -0.0041     0.0020 C.ar    
   3 C3             1.2040    -0.7052    -0.0128 C.ar    
   4 C4             2.4014    -0.0186    -0.0206 C.ar    
   5 C5             2.3983     1.3698    -0.0136 C.ar    
   6 C6             1.1893     2.0880     0.0019 C.ar    
   7 S7             3.6884     2.5742    -0.0187 S.3     
   8 N8             2.6820     3.9352    -0.0020 N.am    
   9 C9             1.4132     3.5272     0.0080 C.2     
  10 C10            3.1102     5.2653     0.0012 C.ar    
  11 C11            3.4117     5.9027    -1.1962 C.ar    
  12 C12            3.8341     7.2172    -1.1894 C.ar    
  13 C13            3.9576     7.8995     0.0074 C.ar    
  14 C14            3.6589     7.2682     1.2008 C.ar    
  15 C15            3.2299     5.9553     1.2010 C.ar    
  16 O16            0.4864     4.3189     0.0214 O.2     
  17 C17            3.7960     8.0153     2.5024 C.3     
  18 C18            3.2783     5.1600    -2.5006 C.3     
  19 F19            1.1989    -2.0561    -0.0191 F       
  20 H20           -0.9611     1.8799     0.0168 H       
  21 H21           -0.9307    -0.5483     0.0080 H       
  22 H22            3.3365    -0.5589    -0.0318 H       
  23 H23            4.0686     7.7132    -2.1197 H       
  24 H24            4.2886     8.9275     0.0099 H       
  25 H25            2.9924     5.4642     2.1331 H       
  26 H26            2.8538     8.5099     2.7384 H       
  27 H27            4.0481     7.3148     3.2986 H       
  28 H28            4.5853     8.7615     2.4116 H       
  29 H29            2.2706     5.2944    -2.8939 H       
  30 H30            4.0025     5.5493    -3.2162 H       
  31 H31            3.4653     4.0989    -2.3353 H       
@<TRIPOS>BOND
   1    1    2 ar
   2    1    6 ar
   3    1   20 1
   4    2    3 ar
   5    2   21 1
   6    3    4 ar
   7    3   19 1
   8    4    5 ar
   9    4   22 1
  10    5    7 1
  11    5    6 ar
  12    6    9 1
  13    7    8 1
  14    8    9 am
  15    8   10 1
  16    9   16 2
  17   10   11 ar
  18   10   15 ar
  19   11   12 ar
  20   11   18 1
  21   12   13 ar
  22   12   23 1
  23   13   14 ar
  24   13   24 1
  25   14   15 ar
  26   14   17 1
  27   15   25 1
  28   17   26 1
  29   17   27 1
  30   17   28 1
  31   18   29 1
  32   18   30 1
  33   18   31 1

#	End of record

