#	Name: ASD10340014
#	Creating user name:	WinNT
#	Creation time:	15. 06. 2019 21:26

#	Modifying user name:	WinNT
#	Modification time:	15. 06. 2019 21:26

#	Program:	/corina/corina34_cracker 3.40 0067  02.08.2006

@<TRIPOS>MOLECULE
ASD10340014
  61   64    0    0    0
SMALL
NO_CHARGES


@<TRIPOS>ATOM
   1 C1            -0.0167     1.3779     0.0096 C.ar    
   2 C2             0.0021    -0.0041     0.0020 C.ar    
   3 C3             1.2086    -0.6790    -0.0132 C.ar    
   4 C4             2.3961     0.0283    -0.0212 C.ar    
   5 C5             2.3773     1.4107    -0.0145 C.ar    
   6 C6             1.1711     2.0854     0.0021 C.ar    
   7 C7            -1.3319     2.1136     0.0199 C.3     
   8 N8            -1.7515     2.3445     1.4044 N.pl3   
   9 N9            -1.4274     3.4672     2.1726 N.2     
  10 C10           -1.9574     3.3631     3.3625 C.2     
  11 C11           -2.6872     2.0960     3.4137 C.ar    
  12 C12           -2.5289     1.4971     2.1503 C.ar    
  13 C13           -3.1259     0.2645     1.8944 C.ar    
  14 C14           -3.8673    -0.3572     2.8732 C.ar    
  15 C15           -4.0303     0.2306     4.1203 C.ar    
  16 C16           -3.4415     1.4476     4.4017 C.ar    
  17 C17            3.6720     2.1819    -0.0223 C.3     
  18 N18            4.0794     2.4383    -1.4060 N.am    
  19 C19            5.2156     3.1176    -1.6591 C.2     
  20 C20            5.6347     3.3813    -3.0824 C.3     
  21 O21            5.9008     3.5165    -0.7413 O.2     
  22 C22            4.9390     4.6447    -3.5931 C.3     
  23 C23            7.1512     3.5755    -3.1399 C.3     
  24 O24            5.2654     2.2701    -3.9014 O.3     
  25 N25           -1.8468     4.2937     4.3989 N.am    
  26 S26           -0.9781     5.6854     4.1729 S.o2    
  27 O27           -1.0844     6.4254     5.3814 O.2     
  28 O28            0.2657     5.2947     3.6077 O.2     
  29 C29           -1.8121     6.6261     2.9384 C.2     
  30 C30           -2.7645     7.5294     3.1733 C.2     
  31 C31           -3.2762     8.1454     2.0436 C.2     
  32 C32           -2.7380     7.7410     0.8908 C.2     
  33 S33           -1.5101     6.5225     1.2088 S.3     
  34 Cl34          -3.1775     8.3326    -0.6810 Cl      
  35 O35           -3.6050     2.0200     5.6224 O.3     
  36 C36           -4.3865     1.2994     6.5773 C.3     
  37 H37           -0.9258    -0.5567     0.0083 H       
  38 H38            1.2233    -1.7589    -0.0184 H       
  39 H39            3.3386    -0.4989    -0.0324 H       
  40 H40            1.1565     3.1653     0.0081 H       
  41 H41           -1.2169     3.0705    -0.4893 H       
  42 H42           -2.0859     1.5170    -0.4937 H       
  43 H43           -3.0071    -0.2029     0.9280 H       
  44 H44           -4.3276    -1.3126     2.6688 H       
  45 H45           -4.6159    -0.2700     4.8772 H       
  46 H46            3.5333     3.1300     0.4972 H       
  47 H47            4.4441     1.6008     0.4820 H       
  48 H48            3.5313     2.1192    -2.1400 H       
  49 H49            5.2207     5.4924    -2.9684 H       
  50 H50            5.2421     4.8355    -4.6226 H       
  51 H51            3.8586     4.5064    -3.5521 H       
  52 H52            7.6468     2.6755    -2.7761 H       
  53 H53            7.4543     3.7663    -4.1694 H       
  54 H54            7.4329     4.4232    -2.5152 H       
  55 H55            5.6705     1.4334    -3.6351 H       
  56 H56           -2.2788     4.1246     5.2507 H       
  57 H57           -3.1108     7.7627     4.1693 H       
  58 H58           -4.0517     8.8954     2.0915 H       
  59 H59           -4.4377     1.8663     7.5069 H       
  60 H60           -5.3931     1.1518     6.1859 H       
  61 H61           -3.9250     0.3305     6.7676 H       
@<TRIPOS>BOND
   1    1    2 ar
   2    1    6 ar
   3    1    7 1
   4    2    3 ar
   5    2   37 1
   6    3    4 ar
   7    3   38 1
   8    4    5 ar
   9    4   39 1
  10    5    6 ar
  11    5   17 1
  12    6   40 1
  13    7    8 1
  14    7   41 1
  15    7   42 1
  16    8    9 1
  17    8   12 1
  18    9   10 2
  19   10   11 1
  20   10   25 1
  21   11   16 ar
  22   11   12 ar
  23   12   13 ar
  24   13   14 ar
  25   13   43 1
  26   14   15 ar
  27   14   44 1
  28   15   16 ar
  29   15   45 1
  30   16   35 1
  31   17   18 1
  32   17   46 1
  33   17   47 1
  34   18   19 am
  35   18   48 1
  36   19   20 1
  37   19   21 2
  38   20   22 1
  39   20   23 1
  40   20   24 1
  41   22   49 1
  42   22   50 1
  43   22   51 1
  44   23   52 1
  45   23   53 1
  46   23   54 1
  47   24   55 1
  48   25   26 am
  49   25   56 1
  50   26   27 2
  51   26   28 2
  52   26   29 1
  53   29   30 2
  54   29   33 1
  55   30   31 1
  56   30   57 1
  57   31   32 2
  58   31   58 1
  59   32   33 1
  60   32   34 1
  61   35   36 1
  62   36   59 1
  63   36   60 1
  64   36   61 1

#	End of record

