#	Name: ASD14640012
#	Creating user name:	WinNT
#	Creation time:	15. 06. 2019 21:31

#	Modifying user name:	WinNT
#	Modification time:	15. 06. 2019 21:31

#	Program:	/corina/corina34_cracker 3.40 0067  02.08.2006

@<TRIPOS>MOLECULE
ASD14640012
  35   37    0    0    0
SMALL
NO_CHARGES


@<TRIPOS>ATOM
   1 C1            -0.0178     1.4642     0.0101 C.3     
   2 N2             0.0021    -0.0041     0.0020 N.3     
   3 C3             0.6689    -0.5327     1.1988 C.3     
   4 C4             2.1246    -0.0613     1.2235 C.3     
   5 C5             2.1603     1.4695     1.2306 C.3     
   6 C6             1.4174     1.9953    -0.0008 C.3     
   7 C7             2.8129    -0.5941     2.4818 C.3     
   8 C8             2.8823    -2.0981     2.4177 C.ar    
   9 C9             3.9223    -2.7122     1.7554 C.ar    
  10 C10            1.9046    -2.8626     3.0289 C.ar    
  11 C11            1.9734    -4.2424     2.9674 C.ar    
  12 C12            3.0093    -4.8593     2.2974 C.ar    
  13 C13            6.0329    -3.4115     0.9066 C.3     
  14 C14            5.1304    -2.1605     1.0235 C.3     
  15 C15            3.9982    -4.0969     1.6802 C.ar    
  16 O16            5.0868    -4.4927     0.9649 O.3     
  17 H17           -0.5453     1.8252    -0.8729 H       
  18 H18           -0.5283     1.8156     0.9068 H       
  19 H19           -0.9309    -0.3779    -0.0869 H       
  20 H20            0.1552    -0.1719     2.0900 H       
  21 H21            0.6402    -1.6221     1.1793 H       
  22 H22            2.6426    -0.4332     0.3395 H       
  23 H23            1.6765     1.8409     2.1340 H       
  24 H24            3.1954     1.8099     1.2044 H       
  25 H25            1.9242     1.6557    -0.9040 H       
  26 H26            1.4024     3.0849     0.0210 H       
  27 H27            3.8217    -0.1862     2.5445 H       
  28 H28            2.2442    -0.2938     3.3618 H       
  29 H29            1.0905    -2.3835     3.5525 H       
  30 H30            1.2123    -4.8401     3.4468 H       
  31 H31            3.0558    -5.9375     2.2544 H       
  32 H32            6.5660    -3.4157    -0.0441 H       
  33 H33            6.7308    -3.4637     1.7422 H       
  34 H34            4.8519    -1.7877     0.0378 H       
  35 H35            5.6184    -1.3815     1.6093 H       
@<TRIPOS>BOND
   1    1    2 1
   2    1    6 1
   3    1   17 1
   4    1   18 1
   5    2    3 1
   6    2   19 1
   7    3    4 1
   8    3   20 1
   9    3   21 1
  10    4    5 1
  11    4    7 1
  12    4   22 1
  13    5    6 1
  14    5   23 1
  15    5   24 1
  16    6   25 1
  17    6   26 1
  18    7    8 1
  19    7   27 1
  20    7   28 1
  21    8   10 ar
  22    8    9 ar
  23    9   15 ar
  24    9   14 1
  25   10   11 ar
  26   10   29 1
  27   11   12 ar
  28   11   30 1
  29   12   15 ar
  30   12   31 1
  31   13   14 1
  32   13   16 1
  33   13   32 1
  34   13   33 1
  35   14   34 1
  36   14   35 1
  37   15   16 1

#	End of record

