#	Name: ASD10310001
#	Creating user name:	WinNT
#	Creation time:	15. 06. 2019 21:26

#	Modifying user name:	WinNT
#	Modification time:	15. 06. 2019 21:26

#	Program:	/corina/corina34_cracker 3.40 0067  02.08.2006

@<TRIPOS>MOLECULE
ASD10310001
  66   70    0    0    0
SMALL
NO_CHARGES


@<TRIPOS>ATOM
   1 C1            -0.1749     1.4749    -0.5686 C.2     
   2 C2            -0.1527    -0.0034    -0.5721 C.ar    
   3 C3             0.8972    -0.6841    -1.1843 C.ar    
   4 C4             0.9100    -2.0798    -1.1828 C.ar    
   5 C5            -0.1307    -2.7841    -0.5671 C.ar    
   6 C6            -1.1669    -2.1014     0.0365 C.ar    
   7 C7            -1.1816    -0.7202     0.0435 C.ar    
   8 O8             0.7236     2.0975    -1.1003 O.2     
   9 N9            -1.1942     2.1321     0.0193 N.am    
  10 C10           -1.1619     3.5266     0.1193 C.ar    
  11 C11           -2.3380     4.2591     0.0198 C.ar    
  12 C12           -2.3027     5.6359     0.1189 C.ar    
  13 C13           -1.0980     6.2858     0.3170 C.ar    
  14 C14            0.0745     5.5597     0.4165 C.ar    
  15 C15            0.0453     4.1818     0.3240 C.ar    
  16 C16           -3.5781     6.4313     0.0105 C.3     
  17 F17           -4.6552     5.5608    -0.1869 F       
  18 F18           -3.7759     7.1582     1.1894 F       
  19 F19           -3.4870     7.3135    -1.0714 F       
  20 C20           -1.0631     7.7886     0.4243 C.3     
  21 N21           -1.4625     8.1922     1.7791 N.3     
  22 C22           -1.2152     9.6244     1.9963 C.3     
  23 C23           -1.7167    10.0208     3.3869 C.3     
  24 N24           -1.0291     9.2107     4.4021 N.3     
  25 C25           -1.2764     7.7785     4.1848 C.3     
  26 C26           -0.7749     7.3821     2.7942 C.3     
  27 C27           -1.4285     9.6144     5.7569 C.3     
  28 C28           -0.1200    -4.2911    -0.5637 C.3     
  29 C29            1.9846    -2.7888    -1.8099 C.1     
  30 C30            2.8655    -3.3700    -2.3240 C.1     
  31 C31            5.2540    -5.6802    -3.7140 C.2     
  32 C32            5.6537    -7.0096    -3.9410 C.2     
  33 C33            4.8746    -8.0266    -3.4764 C.2     
  34 C34            3.6916    -7.7460    -2.7825 C.2     
  35 N35            3.3163    -6.5123    -2.5686 N.2     
  36 N36            4.0892    -5.4426    -3.0299 N.pl3   
  37 N37            5.7952    -4.5131    -4.0458 N.2     
  38 C38            5.0312    -3.5244    -3.5996 C.2     
  39 C39            3.9401    -4.0790    -2.9511 C.2     
  40 H40            1.6972    -0.1345    -1.6581 H       
  41 H41           -1.9678    -2.6497     0.5100 H       
  42 H42           -1.9934    -0.1928     0.5225 H       
  43 H43           -1.9502     1.6379     0.3730 H       
  44 H44           -3.2790     3.7522    -0.1353 H       
  45 H45            1.0136     6.0702     0.5713 H       
  46 H46            0.9609     3.6150     0.4063 H       
  47 H47           -0.0526     8.1439     0.2223 H       
  48 H48           -1.7520     8.2207    -0.3016 H       
  49 H49           -0.1460     9.8238     1.9248 H       
  50 H50           -1.7449    10.2037     1.2400 H       
  51 H51           -1.5081    11.0763     3.5615 H       
  52 H52           -2.7909     9.8469     3.4494 H       
  53 H53           -0.7467     7.1992     4.9412 H       
  54 H54           -2.3456     7.5791     4.2563 H       
  55 H55           -0.9835     6.3266     2.6196 H       
  56 H56            0.2993     7.5560     2.7318 H       
  57 H57           -2.5040     9.4814     5.8733 H       
  58 H58           -0.9049     8.9990     6.4885 H       
  59 H59           -1.1728    10.6622     5.9140 H       
  60 H60            0.4029    -4.6487     0.3232 H       
  61 H61           -1.1451    -4.6617    -0.5553 H       
  62 H62            0.3897    -4.6529    -1.4567 H       
  63 H63            6.5667    -7.2218    -4.4774 H       
  64 H64            5.1704    -9.0516    -3.6442 H       
  65 H65            3.0813    -8.5595    -2.4188 H       
  66 H66            5.2249    -2.4692    -3.7234 H       
@<TRIPOS>BOND
   1    1    2 1
   2    1    8 2
   3    1    9 am
   4    2    3 ar
   5    2    7 ar
   6    3    4 ar
   7    3   40 1
   8    4    5 ar
   9    4   29 1
  10    5    6 ar
  11    5   28 1
  12    6    7 ar
  13    6   41 1
  14    7   42 1
  15    9   10 1
  16    9   43 1
  17   10   11 ar
  18   10   15 ar
  19   11   12 ar
  20   11   44 1
  21   12   13 ar
  22   12   16 1
  23   13   14 ar
  24   13   20 1
  25   14   15 ar
  26   14   45 1
  27   15   46 1
  28   16   17 1
  29   16   18 1
  30   16   19 1
  31   20   21 1
  32   20   47 1
  33   20   48 1
  34   21   22 1
  35   21   26 1
  36   22   23 1
  37   22   49 1
  38   22   50 1
  39   23   24 1
  40   23   51 1
  41   23   52 1
  42   24   25 1
  43   24   27 1
  44   25   26 1
  45   25   53 1
  46   25   54 1
  47   26   55 1
  48   26   56 1
  49   27   57 1
  50   27   58 1
  51   27   59 1
  52   28   60 1
  53   28   61 1
  54   28   62 1
  55   29   30 3
  56   30   39 1
  57   31   32 1
  58   31   36 1
  59   31   37 2
  60   32   33 2
  61   32   63 1
  62   33   34 1
  63   33   64 1
  64   34   35 2
  65   34   65 1
  66   35   36 1
  67   36   39 1
  68   37   38 1
  69   38   39 2
  70   38   66 1

#	End of record

