#	Name: ASD10420100
#	Creating user name:	WinNT
#	Creation time:	15. 06. 2019 21:27

#	Modifying user name:	WinNT
#	Modification time:	15. 06. 2019 21:27

#	Program:	/corina/corina34_cracker 3.40 0067  02.08.2006

@<TRIPOS>MOLECULE
ASD10420100
  57   61    0    0    0
SMALL
NO_CHARGES


@<TRIPOS>ATOM
   1 N1            -0.1971     0.2126    -0.6675 N.pl3   
   2 C2            -0.6219    -1.0121    -1.1106 C.2     
   3 C3            -2.0285    -0.9932    -1.1669 C.2     
   4 C4            -2.4409     0.2697    -0.7478 C.2     
   5 C5            -1.3032     1.0015    -0.4376 C.2     
   6 N6             1.1733     0.4639    -0.5193 N.2     
   7 C7             2.0585    -0.4540    -0.7977 C.2     
   8 C8             1.6623    -1.7221    -1.2546 C.2     
   9 C9             0.3202    -2.0035    -1.4120 C.2     
  10 C10           -1.2821     2.3386     0.0285 C.2     
  11 O11           -1.3118     2.5672     1.2246 O.2     
  12 C12           -3.8649     0.7521    -0.6447 C.3     
  13 C13           -4.3927     0.4677     0.7379 C.ar    
  14 C14           -4.5669     1.5027     1.6372 C.ar    
  15 C15           -4.7078    -0.8273     1.1043 C.ar    
  16 C16           -5.1922    -1.0897     2.3724 C.ar    
  17 C17           -5.3623    -0.0573     3.2749 C.ar    
  18 C18           -2.9058    -2.1076    -1.5925 C.ar    
  19 C19           -2.9570    -3.2838    -0.8441 C.ar    
  20 C20           -3.7768    -4.3184    -1.2457 C.ar    
  21 C21           -4.5466    -4.1913    -2.3882 C.ar    
  22 C22           -4.4999    -3.0275    -3.1350 C.ar    
  23 C23           -3.6888    -1.9834    -2.7404 C.ar    
  24 C24           -4.2296     2.9154     1.2353 C.3     
  25 C25           -5.0518     1.2412     2.9073 C.ar    
  26 F26           -5.2173     2.2514     3.7890 F       
  27 O27            2.5949    -2.6659    -1.5404 O.3     
  28 N28           -1.2293     3.3582    -0.8513 N.am    
  29 C29           -1.3164     4.7539    -0.3956 C.3     
  30 C30           -0.1449     5.5367    -0.9982 C.3     
  31 N31           -0.1397     5.3587    -2.4564 N.3     
  32 C32            0.0791     3.9525    -2.8207 C.3     
  33 C33           -1.0770     3.1049    -2.2921 C.3     
  34 H34            3.1092    -0.2358    -0.6756 H       
  35 H35            0.0013    -2.9741    -1.7621 H       
  36 H36           -3.8995     1.8251    -0.8333 H       
  37 H37           -4.4784     0.2337    -1.3816 H       
  38 H38           -4.5758    -1.6348     0.3993 H       
  39 H39           -5.4380    -2.1020     2.6576 H       
  40 H40           -5.7413    -0.2624     4.2652 H       
  41 H41           -2.3559    -3.3845     0.0475 H       
  42 H42           -3.8173    -5.2295    -0.6672 H       
  43 H43           -5.1865    -5.0040    -2.6987 H       
  44 H44           -5.1027    -2.9345    -4.0262 H       
  45 H45           -3.6531    -1.0754    -3.3241 H       
  46 H46           -5.0789     3.3576     0.7145 H       
  47 H47           -4.0036     3.5024     2.1255 H       
  48 H48           -3.3623     2.9081     0.5751 H       
  49 H49           -2.2581     5.1899    -0.7289 H       
  50 H50           -1.2585     4.7881     0.6924 H       
  51 H51           -0.2546     6.5950    -0.7614 H       
  52 H52            0.7922     5.1659    -0.5831 H       
  53 H53           -0.9919     5.7101    -2.8666 H       
  54 H54            0.1320     3.8618    -3.9056 H       
  55 H55            1.0131     3.6037    -2.3802 H       
  56 H56           -0.8610     2.0494    -2.4575 H       
  57 H57           -1.9953     3.3793    -2.8112 H       
@<TRIPOS>BOND
   1    1    2 1
   2    1    6 1
   3    1    5 1
   4    2    3 2
   5    2    9 1
   6    3    4 1
   7    3   18 1
   8    4    5 2
   9    4   12 1
  10    5   10 1
  11    6    7 2
  12    7    8 1
  13    7   34 1
  14    8    9 2
  15    8   27 1
  16    9   35 1
  17   10   11 2
  18   10   28 am
  19   12   13 1
  20   12   36 1
  21   12   37 1
  22   13   14 ar
  23   13   15 ar
  24   14   24 1
  25   14   25 ar
  26   15   16 ar
  27   15   38 1
  28   16   17 ar
  29   16   39 1
  30   17   25 ar
  31   17   40 1
  32   18   19 ar
  33   18   23 ar
  34   19   20 ar
  35   19   41 1
  36   20   21 ar
  37   20   42 1
  38   21   22 ar
  39   21   43 1
  40   22   23 ar
  41   22   44 1
  42   23   45 1
  43   24   46 1
  44   24   47 1
  45   24   48 1
  46   25   26 1
  47   28   29 1
  48   28   33 1
  49   29   30 1
  50   29   49 1
  51   29   50 1
  52   30   31 1
  53   30   51 1
  54   30   52 1
  55   31   32 1
  56   31   53 1
  57   32   33 1
  58   32   54 1
  59   32   55 1
  60   33   56 1
  61   33   57 1

#	End of record

