#	Name: ASD10610182
#	Creating user name:	WinNT
#	Creation time:	15. 06. 2019 21:28

#	Modifying user name:	WinNT
#	Modification time:	15. 06. 2019 21:28

#	Program:	/corina/corina34_cracker 3.40 0067  02.08.2006

@<TRIPOS>MOLECULE
ASD10610182
  48   50    0    0    0
SMALL
NO_CHARGES


@<TRIPOS>ATOM
   1 O1            -0.7164     1.6339     0.8808 O.3     
   2 C2            -0.6953     0.2015     0.8292 C.3     
   3 C3             0.7261     0.2434     1.4038 C.3     
   4 C4             0.7085     1.6185     0.7250 C.3     
   5 C5             0.7924     0.2883     2.9087 C.2     
   6 O6            -0.1396     0.7344     3.5437 O.2     
   7 N7             1.8874    -0.1673     3.5489 N.am    
   8 C8             1.9519    -0.1236     5.0118 C.3     
   9 C9             2.4432     1.2544     5.4597 C.3     
  10 C10            2.9055    -1.1814     5.5044 C.ar    
  11 C11            2.5436    -1.9803     6.5770 C.ar    
  12 C12            3.4248    -2.9519     7.0253 C.ar    
  13 C13            4.6521    -3.0858     6.3704 C.ar    
  14 C14            4.9404    -2.2427     5.2992 C.ar    
  15 N15            4.0697    -1.3364     4.9046 N.ar    
  16 F16            1.3458    -1.8139     7.1794 F       
  17 C17            5.6325    -4.1088     6.8092 C.ar    
  18 C18            5.2618    -5.4552     6.8709 C.ar    
  19 C19            6.1840    -6.4052     7.2821 C.ar    
  20 C20            7.4663    -6.0208     7.6298 C.ar    
  21 C21            7.8359    -4.6880     7.5699 C.ar    
  22 C22            6.9280    -3.7326     7.1559 C.ar    
  23 O23            4.0014    -5.8315     6.5295 O.3     
  24 C24            3.7773    -6.1834     5.1628 C.3     
  25 C25            2.3394    -6.6778     4.9927 C.3     
  26 F26            2.1329    -7.7994     5.8029 F       
  27 F27            1.4505    -5.6636     5.3649 F       
  28 Cl28           9.4479    -4.2166     8.0092 Cl      
  29 Cl29           5.7287    -8.0786     7.3611 Cl      
  30 N30            1.6562    -0.7222     0.8035 N.3     
  31 H31           -1.4185    -0.2663     1.4972 H       
  32 H32           -0.7406    -0.1957    -0.1848 H       
  33 H33            1.0298     1.5913    -0.3162 H       
  34 H34            1.2153     2.3923     1.3017 H       
  35 H35            2.6328    -0.5240     3.0410 H       
  36 H36            0.9601    -0.3077     5.4249 H       
  37 H37            1.7534     2.0196     5.1035 H       
  38 H38            2.4912     1.2869     6.5482 H       
  39 H39            3.4349     1.4385     5.0467 H       
  40 H40            3.1696    -3.5887     7.8593 H       
  41 H41            5.8854    -2.3360     4.7847 H       
  42 H42            8.1822    -6.7635     7.9496 H       
  43 H43            7.2210    -2.6944     7.1057 H       
  44 H44            3.9381    -5.3095     4.5315 H       
  45 H45            4.4698    -6.9736     4.8727 H       
  46 H46            2.1684    -6.9462     3.9501 H       
  47 H47            2.5724    -0.6486     1.2198 H       
  48 H48            1.2993    -1.6630     0.8789 H       
@<TRIPOS>BOND
   1    1    2 1
   2    1    4 1
   3    2    3 1
   4    2   31 1
   5    2   32 1
   6    3    4 1
   7    3    5 1
   8    3   30 1
   9    4   33 1
  10    4   34 1
  11    5    6 2
  12    5    7 am
  13    7    8 1
  14    7   35 1
  15    8    9 1
  16    8   10 1
  17    8   36 1
  18    9   37 1
  19    9   38 1
  20    9   39 1
  21   10   11 ar
  22   10   15 ar
  23   11   12 ar
  24   11   16 1
  25   12   13 ar
  26   12   40 1
  27   13   14 ar
  28   13   17 1
  29   14   15 ar
  30   14   41 1
  31   17   18 ar
  32   17   22 ar
  33   18   19 ar
  34   18   23 1
  35   19   20 ar
  36   19   29 1
  37   20   21 ar
  38   20   42 1
  39   21   22 ar
  40   21   28 1
  41   22   43 1
  42   23   24 1
  43   24   25 1
  44   24   44 1
  45   24   45 1
  46   25   26 1
  47   25   27 1
  48   25   46 1
  49   30   47 1
  50   30   48 1

#	End of record

