#	Name: ASD15280028
#	Creating user name:	WinNT
#	Creation time:	15. 06. 2019 21:31

#	Modifying user name:	WinNT
#	Modification time:	15. 06. 2019 21:31

#	Program:	/corina/corina34_cracker 3.40 0067  02.08.2006

@<TRIPOS>MOLECULE
ASD15280028
  47   50    0    0    0
SMALL
NO_CHARGES


@<TRIPOS>ATOM
   1 C1             0.1059     1.4594     0.7300 C.3     
   2 N2             0.0906     0.0358     0.3845 N.am    
   3 C3            -1.1650    -0.6624     0.0592 C.3     
   4 H4            -1.1383    -0.9949    -0.9785 H       
   5 C5            -1.3216    -1.8730     0.9791 C.3     
   6 C6            -0.2155    -2.8955     0.7200 C.3     
   7 H7            -0.2134    -3.1700    -0.3348 H       
   8 N8             1.0857    -2.3047     1.0771 N.am    
   9 S9             1.4946    -0.8627     0.3356 S.o2    
  10 O10            1.7479    -1.1562    -1.0315 O.2     
  11 O11            2.4289    -0.2127     1.1864 O.2     
  12 C12           -0.4588    -4.1235     1.5591 C.2     
  13 C13           -1.0040    -5.2592     1.1179 C.2     
  14 C14           -1.1301    -6.2549     2.0671 C.2     
  15 C15           -0.6820    -5.9235     3.2929 C.2     
  16 S16           -0.0603    -4.2784     3.2649 S.3     
  17 C17           -0.7039    -6.8090     4.4796 C.2     
  18 C18           -1.1858    -8.1331     4.5225 C.2     
  19 N19           -1.0355    -8.5807     5.7409 N.2     
  20 N20           -0.4569    -7.5706     6.5188 N.pl3   
  21 H21           -0.2357    -7.6349     7.4610 H       
  22 C22           -0.2554    -6.4940     5.7306 C.2     
  23 C23           -2.3281     0.2751     0.2574 C.2     
  24 O24           -2.3243     1.0589     1.1831 O.2     
  25 N25           -3.3725     0.2427    -0.5939 N.am    
  26 C26           -4.5065     1.0242    -0.3409 C.ar    
  27 C27           -5.2325     1.5578    -1.3970 C.ar    
  28 C28           -6.3514     2.3283    -1.1460 C.ar    
  29 C29           -6.7494     2.5687     0.1578 C.ar    
  30 F30           -7.8442     3.3220     0.4010 F       
  31 C31           -6.0263     2.0371     1.2141 C.ar    
  32 Cl32          -6.5279     2.3396     2.8483 Cl      
  33 C33           -4.9096     1.2615     0.9666 C.ar    
  34 H34            1.1371     1.7972     0.8331 H       
  35 H35           -0.3862     2.0298    -0.0578 H       
  36 H36           -0.4218     1.6105     1.6717 H       
  37 H37           -1.2705    -1.5441     2.0171 H       
  38 H38           -2.2904    -2.3385     0.7981 H       
  39 H39            1.6796    -2.7349     1.7121 H       
  40 H40           -1.3233    -5.3899     0.0945 H       
  41 H41           -1.5547    -7.2225     1.8439 H       
  42 H42           -1.6065    -8.6819     3.6929 H       
  43 H43            0.1794    -5.5532     6.0344 H       
  44 H44           -3.3385    -0.3220    -1.3818 H       
  45 H45           -4.9225     1.3711    -2.4146 H       
  46 H46           -6.9159     2.7437    -1.9677 H       
  47 H47           -4.3487     0.8435     1.7894 H       
@<TRIPOS>BOND
   1    1    2 1
   2    1   34 1
   3    1   35 1
   4    1   36 1
   5    2    9 am
   6    2    3 1
   7    3    4 1
   8    3    5 1
   9    3   23 1
  10    5    6 1
  11    5   37 1
  12    5   38 1
  13    6    7 1
  14    6    8 1
  15    6   12 1
  16    8    9 am
  17    8   39 1
  18    9   10 2
  19    9   11 2
  20   12   16 1
  21   12   13 2
  22   13   14 1
  23   13   40 1
  24   14   15 2
  25   14   41 1
  26   15   16 1
  27   15   17 1
  28   17   22 2
  29   17   18 1
  30   18   19 2
  31   18   42 1
  32   19   20 1
  33   20   21 1
  34   20   22 1
  35   22   43 1
  36   23   24 2
  37   23   25 am
  38   25   26 1
  39   25   44 1
  40   26   33 ar
  41   26   27 ar
  42   27   28 ar
  43   27   45 1
  44   28   29 ar
  45   28   46 1
  46   29   30 1
  47   29   31 ar
  48   31   32 1
  49   31   33 ar
  50   33   47 1

#	End of record

