#	Name: ASD10160451
#	Creating user name:	WinNT
#	Creation time:	15. 06. 2019 21:26

#	Modifying user name:	WinNT
#	Modification time:	15. 06. 2019 21:26

#	Program:	/corina/corina34_cracker 3.40 0067  02.08.2006

@<TRIPOS>MOLECULE
ASD10160451
  30   31    0    0    0
SMALL
NO_CHARGES


@<TRIPOS>ATOM
   1 C1             0.3719     1.1013     1.9606 C.2     
   2 C2             0.2891    -0.2768     1.4386 C.ar    
   3 C3             1.3728    -0.8325     0.7529 C.ar    
   4 C4             1.2917    -2.1194     0.2677 C.ar    
   5 C5             0.1327    -2.8650     0.4599 C.ar    
   6 C6            -0.9464    -2.3152     1.1413 C.ar    
   7 C7            -0.8706    -1.0311     1.6338 C.ar    
   8 O8             1.3837     1.7546     1.7943 O.2     
   9 N9            -0.6762     1.6374     2.6167 N.am    
  10 O10            0.0558    -4.1322    -0.0197 O.3     
  11 C11           -1.3959    -5.5714     1.2041 C.ar    
  12 C12           -1.1307    -4.7866     0.0933 C.ar    
  13 C13           -2.0942    -4.6760    -0.9055 C.ar    
  14 C14           -3.2882    -5.3596    -0.7482 C.ar    
  15 C15           -3.4831    -6.1277     0.3934 C.ar    
  16 N16           -2.5450    -6.2093     1.3213 N.ar    
  17 O17           -4.6503    -6.8016     0.5578 O.3     
  18 C18           -4.7909    -7.5738     1.7519 C.3     
  19 Cl19          -4.5258    -5.2578    -1.9612 Cl      
  20 Cl20           2.6365    -2.8111    -0.5847 Cl      
  21 H21            2.2724    -0.2539     0.6033 H       
  22 H22           -1.8443    -2.8970     1.2885 H       
  23 H23           -1.7082    -0.6064     2.1671 H       
  24 H24           -1.4849     1.1176     2.7459 H       
  25 H25           -0.6218     2.5431     2.9598 H       
  26 H26           -0.6515    -5.6657     1.9809 H       
  27 H27           -1.9149    -4.0711    -1.7820 H       
  28 H28           -4.0078    -8.3310     1.7893 H       
  29 H29           -4.7057    -6.9198     2.6197 H       
  30 H30           -5.7666    -8.0597     1.7576 H       
@<TRIPOS>BOND
   1    1    2 1
   2    1    8 2
   3    1    9 am
   4    2    3 ar
   5    2    7 ar
   6    3    4 ar
   7    3   21 1
   8    4    5 ar
   9    4   20 1
  10    5    6 ar
  11    5   10 1
  12    6    7 ar
  13    6   22 1
  14    7   23 1
  15    9   24 1
  16    9   25 1
  17   10   12 1
  18   11   12 ar
  19   11   16 ar
  20   11   26 1
  21   12   13 ar
  22   13   14 ar
  23   13   27 1
  24   14   15 ar
  25   14   19 1
  26   15   16 ar
  27   15   17 1
  28   17   18 1
  29   18   28 1
  30   18   29 1
  31   18   30 1

#	End of record

