#	Name: ASD13760003
#	Creating user name:	WinNT
#	Creation time:	15. 06. 2019 21:30

#	Modifying user name:	WinNT
#	Modification time:	15. 06. 2019 21:30

#	Program:	/corina/corina34_cracker 3.40 0067  02.08.2006

@<TRIPOS>MOLECULE
ASD13760003
  53   55    0    0    0
SMALL
NO_CHARGES


@<TRIPOS>ATOM
   1 C1            -0.4342     1.2921    -0.4804 C.ar    
   2 C2            -0.5798    -0.0910    -0.6003 C.ar    
   3 C3             0.5275    -0.8804    -0.8327 C.ar    
   4 C4             1.7801    -0.3040    -0.9470 C.ar    
   5 C5             1.9315     1.0662    -0.8287 C.ar    
   6 C6             0.8324     1.8671    -0.5967 C.ar    
   7 C7            -1.6170     2.1447    -0.2374 C.2     
   8 O8            -2.7297     1.6548    -0.2370 O.2     
   9 Br9           -0.6973     6.3810     0.3199 Br      
  10 C10           -2.4312     5.6350     0.2074 C.2     
  11 C11           -2.5858     4.2923     0.1001 C.2     
  12 N12           -1.4619     3.4652    -0.0164 N.am    
  13 C13           -3.6114     6.5107     0.2364 C.ar    
  14 C14           -3.7598     7.5280    -0.7198 C.ar    
  15 C15           -4.8762     8.3471    -0.6824 C.ar    
  16 C16           -5.8391     8.1630     0.2920 C.ar    
  17 C17           -5.6972     7.1613     1.2377 C.ar    
  18 C18           -4.5963     6.3321     1.2130 C.ar    
  19 O19           -2.8134     7.7083    -1.6760 O.3     
  20 C20           -2.9760     8.8301    -2.5462 C.3     
  21 C21           -3.9305     3.7061     0.1060 C.2     
  22 N22           -4.6175     3.5842    -1.0471 N.am    
  23 O23           -4.4256     3.3297     1.1521 O.2     
  24 C24           -5.9202     2.9052    -1.0740 C.3     
  25 C25           -6.9498     3.8392    -1.7179 C.3     
  26 C26           -6.4425     4.2808    -3.0926 C.3     
  27 C27           -5.1285     5.0485    -2.9310 C.3     
  28 C28           -4.0809     4.1332    -2.2998 C.3     
  29 N29            2.9637    -1.1572    -1.1964 N.pl3   
  30 O30            2.8337    -2.3637    -1.3006 O.2     
  31 O31            4.0677    -0.6527    -1.2974 O.2     
  32 H32           -1.5569    -0.5421    -0.5110 H       
  33 H33            0.4163    -1.9506    -0.9253 H       
  34 H34            2.9121     1.5097    -0.9182 H       
  35 H35            0.9518     2.9366    -0.5053 H       
  36 H36           -0.5718     3.8426     0.0620 H       
  37 H37           -4.9943     9.1311    -1.4157 H       
  38 H38           -6.7074     8.8046     0.3162 H       
  39 H39           -6.4550     7.0262     1.9953 H       
  40 H40           -4.4922     5.5491     1.9496 H       
  41 H41           -2.8954     9.7517    -1.9698 H       
  42 H42           -2.2003     8.8114    -3.3118 H       
  43 H43           -3.9561     8.7828    -3.0208 H       
  44 H44           -5.8425     1.9886    -1.6586 H       
  45 H45           -6.2292     2.6669    -0.0563 H       
  46 H46           -7.8975     3.3128    -1.8317 H       
  47 H47           -7.0930     4.7146    -1.0846 H       
  48 H48           -6.2759     3.4032    -3.7173 H       
  49 H49           -7.1844     4.9258    -3.5634 H       
  50 H50           -4.7799     5.3828    -3.9081 H       
  51 H51           -5.2889     5.9125    -2.2862 H       
  52 H52           -3.1753     4.7031    -2.0921 H       
  53 H53           -3.8517     3.3149    -2.9825 H       
@<TRIPOS>BOND
   1    1    2 ar
   2    1    6 ar
   3    1    7 1
   4    2    3 ar
   5    2   32 1
   6    3    4 ar
   7    3   33 1
   8    4    5 ar
   9    4   29 1
  10    5    6 ar
  11    5   34 1
  12    6   35 1
  13    7    8 2
  14    7   12 am
  15    9   10 1
  16   10   11 2
  17   10   13 1
  18   11   12 1
  19   11   21 1
  20   12   36 1
  21   13   14 ar
  22   13   18 ar
  23   14   15 ar
  24   14   19 1
  25   15   16 ar
  26   15   37 1
  27   16   17 ar
  28   16   38 1
  29   17   18 ar
  30   17   39 1
  31   18   40 1
  32   19   20 1
  33   20   41 1
  34   20   42 1
  35   20   43 1
  36   21   22 am
  37   21   23 2
  38   22   24 1
  39   22   28 1
  40   24   25 1
  41   24   44 1
  42   24   45 1
  43   25   26 1
  44   25   46 1
  45   25   47 1
  46   26   27 1
  47   26   48 1
  48   26   49 1
  49   27   28 1
  50   27   50 1
  51   27   51 1
  52   28   52 1
  53   28   53 1
  54   29   30 2
  55   29   31 2

#	End of record

