#	Name: ASD10420046
#	Creating user name:	WinNT
#	Creation time:	15. 06. 2019 21:27

#	Modifying user name:	WinNT
#	Modification time:	15. 06. 2019 21:27

#	Program:	/corina/corina34_cracker 3.40 0067  02.08.2006

@<TRIPOS>MOLECULE
ASD10420046
  51   52    0    0    0
SMALL
NO_CHARGES


@<TRIPOS>ATOM
   1 N1            -0.0859     1.3291    -0.0256 N.am    
   2 C2             0.0925    -0.1305     0.0071 C.3     
   3 C3             1.0750    -0.5257    -1.1004 C.3     
   4 N4             2.3112     0.2546    -0.9553 N.3     
   5 C5             2.0579     1.6912    -1.1284 C.3     
   6 C6             1.1156     2.1773    -0.0220 C.3     
   7 C7            -1.3177     1.8747    -0.0635 C.2     
   8 O8            -2.2952     1.1611    -0.1722 O.2     
   9 O9            -1.4652     3.2104     0.0191 O.3     
  10 C10           -1.2534    -0.8183    -0.2304 C.3     
  11 C11           -1.0621    -2.3360    -0.2048 C.3     
  12 O12           -2.3344    -2.9783    -0.3091 O.3     
  13 C13            3.3426    -0.2145    -1.8902 C.3     
  14 C14            4.4984     0.7525    -1.8896 C.ar    
  15 C15            5.5469     0.5760    -1.0062 C.ar    
  16 C16            6.6071     1.4631    -1.0056 C.ar    
  17 C17            6.6189     2.5265    -1.8888 C.ar    
  18 C18            5.5709     2.7025    -2.7728 C.ar    
  19 C19            4.5128     1.8130    -2.7763 C.ar    
  20 C20           -2.8209     3.7282    -0.0283 C.3     
  21 C21           -3.6276     3.1527     1.1374 C.3     
  22 C22           -2.7881     5.2541     0.0784 C.3     
  23 C23           -3.4755     3.3233    -1.3506 C.3     
  24 H24            0.4934    -0.4288     0.9758 H       
  25 H25            1.3043    -1.5884    -1.0211 H       
  26 H26            0.6279    -0.3213    -2.0732 H       
  27 H27            3.0000     2.2363    -1.0693 H       
  28 H28            1.5971     1.8647    -2.1008 H       
  29 H29            0.8332     3.2130    -0.2104 H       
  30 H30            1.6149     2.1008     0.9439 H       
  31 H31           -1.9535    -0.5271     0.5528 H       
  32 H32           -1.6486    -0.5182    -1.2009 H       
  33 H33           -0.4333    -2.6372    -1.0427 H       
  34 H34           -0.5842    -2.6263     0.7309 H       
  35 H35           -2.2893    -3.9442    -0.2993 H       
  36 H36            3.6927    -1.1993    -1.5807 H       
  37 H37            2.9219    -0.2773    -2.8938 H       
  38 H38            5.5376    -0.2549    -0.3163 H       
  39 H39            7.4259     1.3255    -0.3150 H       
  40 H40            7.4469     3.2200    -1.8878 H       
  41 H41            5.5800     3.5336    -3.4625 H       
  42 H42            3.6957     1.9484    -3.4694 H       
  43 H43           -3.1613     3.4411     2.0794 H       
  44 H44           -4.6454     3.5413     1.1018 H       
  45 H45           -3.6510     2.0656     1.0614 H       
  46 H46           -2.2133     5.6641    -0.7521 H       
  47 H47           -3.8058     5.6428     0.0428 H       
  48 H48           -2.3217     5.5425     1.0204 H       
  49 H49           -3.4988     2.2362    -1.4266 H       
  50 H50           -4.4932     3.7120    -1.3862 H       
  51 H51           -2.9007     3.7333    -2.1811 H       
@<TRIPOS>BOND
   1    1    2 1
   2    1    6 1
   3    1    7 am
   4    2    3 1
   5    2   10 1
   6    2   24 1
   7    3    4 1
   8    3   25 1
   9    3   26 1
  10    4    5 1
  11    4   13 1
  12    5    6 1
  13    5   27 1
  14    5   28 1
  15    6   29 1
  16    6   30 1
  17    7    8 2
  18    7    9 1
  19    9   20 1
  20   10   11 1
  21   10   31 1
  22   10   32 1
  23   11   12 1
  24   11   33 1
  25   11   34 1
  26   12   35 1
  27   13   14 1
  28   13   36 1
  29   13   37 1
  30   14   15 ar
  31   14   19 ar
  32   15   16 ar
  33   15   38 1
  34   16   17 ar
  35   16   39 1
  36   17   18 ar
  37   17   40 1
  38   18   19 ar
  39   18   41 1
  40   19   42 1
  41   20   21 1
  42   20   23 1
  43   20   22 1
  44   21   43 1
  45   21   44 1
  46   21   45 1
  47   22   46 1
  48   22   47 1
  49   22   48 1
  50   23   49 1
  51   23   50 1
  52   23   51 1

#	End of record

