#	Name: ASD10610004
#	Creating user name:	WinNT
#	Creation time:	15. 06. 2019 21:27

#	Modifying user name:	WinNT
#	Modification time:	15. 06. 2019 21:27

#	Program:	/corina/corina34_cracker 3.40 0067  02.08.2006

@<TRIPOS>MOLECULE
ASD10610004
  56   58    0    0    0
SMALL
NO_CHARGES


@<TRIPOS>ATOM
   1 C1            -1.1511    -1.7140     0.0064 C.ar    
   2 C2            -1.6764    -3.0195    -0.0190 C.ar    
   3 C3            -0.8062    -4.1120    -0.0233 C.ar    
   4 C4             0.5595    -3.9053    -0.0025 C.ar    
   5 C5             1.0730    -2.6202     0.0229 C.ar    
   6 C6             0.2275    -1.5281     0.0270 C.ar    
   7 C7            -2.0609    -0.5444     0.0051 C.ar    
   8 C8            -1.8949     0.4722     0.9447 C.ar    
   9 C9            -2.7464     1.5607     0.9380 C.ar    
  10 C10           -3.7632     1.6413    -0.0002 C.ar    
  11 C11           -3.9309     0.6350    -0.9336 C.ar    
  12 C12           -3.0825    -0.4538    -0.9395 C.ar    
  13 C13           -3.1349    -3.2323    -0.0406 C.2     
  14 O14           -3.7227    -3.3049    -1.1015 O.2     
  15 O15           -3.8163    -3.3464     1.1164 O.3     
  16 C16           -4.6898     2.8298    -0.0029 C.3     
  17 C17           -4.0297     3.9894    -0.7515 C.3     
  18 N18           -5.9441     2.4696    -0.6687 N.am    
  19 C19           -7.0960     3.0669    -0.3044 C.2     
  20 O20           -7.1105     3.8351     0.6339 O.2     
  21 O21           -9.7789     2.3424     0.3860 O.3     
  22 C22           -9.1205     1.5299    -0.5945 C.3     
  23 C23           -8.3661     2.7803    -1.0632 C.3     
  24 C24           -9.6165     3.4621    -0.4942 C.3     
  25 N25           -8.2177     2.8930    -2.5163 N.am    
  26 C26           -7.9461     4.0890    -3.0751 C.2     
  27 O27           -7.9131     5.0867    -2.3863 O.2     
  28 C28           -7.6836     4.1867    -4.5559 C.3     
  29 C29           -7.2860     5.6211    -4.9098 C.3     
  30 F30           -6.0766     5.9382    -4.2821 F       
  31 F31           -7.1357     5.7347    -6.2961 F       
  32 F32           -8.2821     6.5019    -4.4750 F       
  33 F33           -2.5877     2.5471     1.8473 F       
  34 Cl34          -1.4402    -5.7278    -0.0539 Cl      
  35 C35           -5.2500    -3.5546     1.0192 C.3     
  36 H36            1.2305    -4.7516    -0.0058 H       
  37 H37            2.1425    -2.4704     0.0393 H       
  38 H38            0.6369    -0.5289     0.0466 H       
  39 H39           -1.1030     0.4091     1.6763 H       
  40 H40           -4.7250     0.7030    -1.6625 H       
  41 H41           -3.2126    -1.2367    -1.6720 H       
  42 H42           -4.8970     3.1312     1.0239 H       
  43 H43           -3.8225     3.6880    -1.7783 H       
  44 H44           -4.6999     4.8490    -0.7534 H       
  45 H45           -3.0965     4.2574    -0.2562 H       
  46 H46           -5.9455     1.8012    -1.3717 H       
  47 H47           -8.4708     0.7697    -0.1609 H       
  48 H48           -9.7976     1.1256    -1.3469 H       
  49 H49          -10.4232     3.5623    -1.2204 H       
  50 H50           -9.4014     4.3948     0.0273 H       
  51 H51           -8.3148     2.1069    -3.0762 H       
  52 H52           -6.8748     3.5081    -4.8270 H       
  53 H53           -8.5857     3.9140    -5.1036 H       
  54 H54           -5.6750    -3.6293     2.0202 H       
  55 H55           -5.7044    -2.7149     0.4933 H       
  56 H56           -5.4470    -4.4761     0.4713 H       
@<TRIPOS>BOND
   1    1    2 ar
   2    1    6 ar
   3    1    7 1
   4    2    3 ar
   5    2   13 1
   6    3    4 ar
   7    3   34 1
   8    4    5 ar
   9    4   36 1
  10    5    6 ar
  11    5   37 1
  12    6   38 1
  13    7    8 ar
  14    7   12 ar
  15    8    9 ar
  16    8   39 1
  17    9   10 ar
  18    9   33 1
  19   10   11 ar
  20   10   16 1
  21   11   12 ar
  22   11   40 1
  23   12   41 1
  24   13   14 2
  25   13   15 1
  26   15   35 1
  27   16   17 1
  28   16   18 1
  29   16   42 1
  30   17   43 1
  31   17   44 1
  32   17   45 1
  33   18   19 am
  34   18   46 1
  35   19   20 2
  36   19   23 1
  37   21   22 1
  38   21   24 1
  39   22   23 1
  40   22   47 1
  41   22   48 1
  42   23   24 1
  43   23   25 1
  44   24   49 1
  45   24   50 1
  46   25   26 am
  47   25   51 1
  48   26   27 2
  49   26   28 1
  50   28   29 1
  51   28   52 1
  52   28   53 1
  53   29   30 1
  54   29   31 1
  55   29   32 1
  56   35   54 1
  57   35   55 1
  58   35   56 1

#	End of record

