#	Name: ASD13040002
#	Creating user name:	WinNT
#	Creation time:	15. 06. 2019 21:30

#	Modifying user name:	WinNT
#	Modification time:	15. 06. 2019 21:30

#	Program:	/corina/corina34_cracker 3.40 0067  02.08.2006

@<TRIPOS>MOLECULE
ASD13040002
  55   59    0    0    0
SMALL
NO_CHARGES


@<TRIPOS>ATOM
   1 C1             4.8430     4.1121    -0.1081 C.2     
   2 C2             5.9768     3.4040     0.1108 C.2     
   3 N3             5.6683     2.0850     0.1545 N.pl3   
   4 C4             4.3129     1.9434    -0.0396 C.2     
   5 C5             3.7830     3.2053    -0.2055 C.2     
   6 C6             3.5682     0.6800    -0.0657 C.2     
   7 N7             4.2294    -0.4901    -0.1668 N.am    
   8 O8             2.3533     0.6883     0.0040 O.2     
   9 C9             3.5169    -1.7710    -0.0496 C.3     
  10 C10            3.6068    -2.5255    -1.3823 C.3     
  11 C11            5.0268    -2.4595    -1.8820 C.2     
  12 C12            5.9486    -1.5656    -1.4465 C.2     
  13 C13            5.6853    -0.5179    -0.4040 C.3     
  14 N14            5.6283    -3.2279    -2.8063 N.pl3   
  15 N15            6.8517    -2.8560    -2.9630 N.2     
  16 C16            7.1248    -1.8393    -2.1628 C.2     
  17 C17            8.4149    -1.1303    -2.0453 C.2     
  18 O18            8.5313    -0.2052    -1.2650 O.2     
  19 N19            9.4632    -1.5086    -2.8032 N.am    
  20 C20           10.6536    -0.7755    -2.7661 C.ar    
  21 C21           11.0788    -0.1986    -1.5766 C.ar    
  22 C22           12.2553     0.5244    -1.5433 C.ar    
  23 C23           13.0090     0.6746    -2.6926 C.ar    
  24 C24           12.5884     0.1013    -3.8789 C.ar    
  25 C25           11.4162    -0.6276    -3.9177 C.ar    
  26 C26           13.4131     0.2675    -5.1292 C.3     
  27 C27            4.9863    -4.3280    -3.5301 C.3     
  28 C28            4.3606    -3.7995    -4.7951 C.2     
  29 C29            4.9753    -3.6177    -5.9794 C.2     
  30 N30            4.0727    -3.1332    -6.8453 N.2     
  31 C31            2.9221    -3.0079    -6.2425 C.2     
  32 N32            3.0569    -3.4177    -4.9628 N.pl3   
  33 H33            4.7700     5.1866    -0.1884 H       
  34 H34            6.9653     3.8222     0.2305 H       
  35 H35            6.2979     1.3612     0.2983 H       
  36 H36            2.7448     3.4478    -0.3778 H       
  37 H37            3.9725    -2.3699     0.7390 H       
  38 H38            2.4707    -1.5845     0.1930 H       
  39 H39            3.3200    -3.5664    -1.2330 H       
  40 H40            2.9413    -2.0618    -2.1104 H       
  41 H41            6.0257     0.4544    -0.7602 H       
  42 H42            6.2003    -0.7767     0.5212 H       
  43 H43            9.3920    -2.2893    -3.3744 H       
  44 H44           10.4901    -0.3149    -0.6787 H       
  45 H45           12.5865     0.9733    -0.6185 H       
  46 H46           13.9281     1.2410    -2.6640 H       
  47 H47           11.0882    -1.0749    -4.8444 H       
  48 H48           14.1321    -0.5485    -5.2014 H       
  49 H49           12.7586     0.2533    -6.0007 H       
  50 H50           13.9452     1.2181    -5.0898 H       
  51 H51            5.7323    -5.0820    -3.7812 H       
  52 H52            4.2152    -4.7748    -2.9025 H       
  53 H53            6.0130    -3.8255    -6.1944 H       
  54 H54            2.0120    -2.6407    -6.6933 H       
  55 H55            2.3610    -3.4335    -4.2871 H       
@<TRIPOS>BOND
   1    1    2 2
   2    1    5 1
   3    1   33 1
   4    2    3 1
   5    2   34 1
   6    3    4 1
   7    3   35 1
   8    4    5 2
   9    4    6 1
  10    5   36 1
  11    6    7 am
  12    6    8 2
  13    7    9 1
  14    7   13 1
  15    9   10 1
  16    9   37 1
  17    9   38 1
  18   10   11 1
  19   10   39 1
  20   10   40 1
  21   11   12 2
  22   11   14 1
  23   12   13 1
  24   12   16 1
  25   13   41 1
  26   13   42 1
  27   14   15 1
  28   14   27 1
  29   15   16 2
  30   16   17 1
  31   17   18 2
  32   17   19 am
  33   19   20 1
  34   19   43 1
  35   20   21 ar
  36   20   25 ar
  37   21   22 ar
  38   21   44 1
  39   22   23 ar
  40   22   45 1
  41   23   24 ar
  42   23   46 1
  43   24   25 ar
  44   24   26 1
  45   25   47 1
  46   26   48 1
  47   26   49 1
  48   26   50 1
  49   27   28 1
  50   27   51 1
  51   27   52 1
  52   28   29 2
  53   28   32 1
  54   29   30 1
  55   29   53 1
  56   30   31 2
  57   31   32 1
  58   31   54 1
  59   32   55 1

#	End of record

