#	Name: ASD16430001
#	Creating user name:	WinNT
#	Creation time:	15. 06. 2019 21:31

#	Modifying user name:	WinNT
#	Modification time:	15. 06. 2019 21:31

#	Program:	/corina/corina34_cracker 3.40 0067  02.08.2006

@<TRIPOS>MOLECULE
ASD16430001
  54   57    0    0    0
SMALL
NO_CHARGES


@<TRIPOS>ATOM
   1 C1             0.3594     2.1153     0.5979 C.ar    
   2 C2             0.1852     0.7392     0.5972 C.ar    
   3 C3             1.2393    -0.0941     0.2893 C.ar    
   4 O4            -0.1115    10.6711    -1.6403 O.3     
   5 O5             3.4311    -1.6513    -0.4570 O.2     
   6 O6             5.7214    -1.9404    -1.7046 O.2     
   7 C7             1.7428     6.6276     0.0236 C.2     
   8 C8             1.5011     8.0074    -0.2734 C.1     
   9 C9             1.3030     9.1387    -0.5169 C.1     
  10 C10            1.0545    10.5571    -0.8222 C.3     
  11 C11            3.6173    -0.4543    -0.3540 C.2     
  12 C12            6.4036    -1.8121     0.7562 C.ar    
  13 C13            6.1894    -3.1535     0.8340 C.ar    
  14 C14            6.3968    -3.8471     2.0249 C.ar    
  15 C15            6.8203    -3.2003     3.1454 C.ar    
  16 C16            7.0516    -1.8158     3.1019 C.ar    
  17 C17            7.4901    -1.1099     4.2377 C.ar    
  18 C18            7.6948     0.2357     4.1209 C.ar    
  19 C19            7.4691     0.8700     2.9016 C.ar    
  20 C20            6.8414    -1.1084     1.8921 C.ar    
  21 O21            7.2763    -0.1304    -0.9608 O.2     
  22 S22            6.1403    -0.9612    -0.7641 S.o2    
  23 N23            7.0605     0.2092     1.8454 N.ar    
  24 N24            4.8514     0.0543    -0.5407 N.am    
  25 C25            2.4916     0.4422    -0.0245 C.ar    
  26 C26            1.0412    -1.5880     0.2915 C.3     
  27 C27            2.6769     1.8248    -0.0265 C.ar    
  28 C28            1.6120     2.6647     0.2844 C.ar    
  29 O29           -0.6831     2.9306     0.8962 O.3     
  30 C30           -1.9308     2.3036     1.1997 C.3     
  31 C31            1.7995     4.1298     0.2846 C.2     
  32 S32            0.7597     5.2832    -0.5402 S.3     
  33 C33            2.7729     6.1567     0.7811 C.2     
  34 C34            2.8028     4.7908     0.9231 C.2     
  35 H35           -0.7798     0.3190     0.8391 H       
  36 H36           -0.3357    11.5804    -1.8811 H       
  37 H37            1.9124    10.9702    -1.3528 H       
  38 H38            0.9021    11.1073     0.1063 H       
  39 H39            5.8529    -3.6894    -0.0412 H       
  40 H40            6.2189    -4.9118     2.0593 H       
  41 H41            6.9772    -3.7487     4.0625 H       
  42 H42            7.6598    -1.6178     5.1756 H       
  43 H43            8.0309     0.8073     4.9734 H       
  44 H44            7.6347     1.9344     2.8241 H       
  45 H45            4.9846     1.0151    -0.5441 H       
  46 H46            0.8534    -1.9311    -0.7259 H       
  47 H47            1.9373    -2.0728     0.6788 H       
  48 H48            0.1895    -1.8406     0.9231 H       
  49 H49            3.6434     2.2418    -0.2682 H       
  50 H50           -2.2574     1.7115     0.3448 H       
  51 H51           -1.8096     1.6540     2.0666 H       
  52 H52           -2.6772     3.0670     1.4193 H       
  53 H53            3.5078     6.8059     1.2337 H       
  54 H54            3.5629     4.2815     1.4969 H       
@<TRIPOS>BOND
   1    1    2 ar
   2    1   28 ar
   3    1   29 1
   4    2    3 ar
   5    2   35 1
   6    3   26 1
   7    3   25 ar
   8    4   10 1
   9    4   36 1
  10    5   11 2
  11    6   22 2
  12    7   33 2
  13    7   32 1
  14    7    8 1
  15    8    9 3
  16    9   10 1
  17   10   37 1
  18   10   38 1
  19   11   24 am
  20   11   25 1
  21   12   13 ar
  22   12   20 ar
  23   12   22 1
  24   13   14 ar
  25   13   39 1
  26   14   15 ar
  27   14   40 1
  28   15   41 1
  29   15   16 ar
  30   16   17 ar
  31   16   20 ar
  32   17   42 1
  33   17   18 ar
  34   18   43 1
  35   18   19 ar
  36   19   44 1
  37   19   23 ar
  38   20   23 ar
  39   21   22 2
  40   22   24 am
  41   24   45 1
  42   25   27 ar
  43   26   46 1
  44   26   47 1
  45   26   48 1
  46   27   49 1
  47   27   28 ar
  48   28   31 1
  49   29   30 1
  50   30   50 1
  51   30   51 1
  52   30   52 1
  53   31   32 1
  54   31   34 2
  55   33   34 1
  56   33   53 1
  57   34   54 1

#	End of record

