#	Name: ASD13680033
#	Creating user name:	WinNT
#	Creation time:	15. 06. 2019 21:30

#	Modifying user name:	WinNT
#	Modification time:	15. 06. 2019 21:30

#	Program:	/corina/corina34_cracker 3.40 0067  02.08.2006

@<TRIPOS>MOLECULE
ASD13680033
  46   49    0    0    0
SMALL
NO_CHARGES


@<TRIPOS>ATOM
   1 C1            -0.0193     1.5123     0.0250 C.3     
   2 C2             0.0023    -0.0020     0.0103 C.2     
   3 C3             0.7554    -0.7678     0.8052 C.2     
   4 C4             1.7291    -0.2382     1.8438 C.3     
   5 C5             1.8869     2.2210     1.4608 C.3     
   6 C6             1.4085     2.0563     0.0211 C.3     
   7 C7             1.2750     1.1316     2.3387 C.3     
   8 C8             0.5452    -2.1873     0.5659 C.2     
   9 C9            -0.3625    -2.4431    -0.4223 C.2     
  10 S10           -0.9724    -0.9918    -1.0682 S.3     
  11 N11           -0.7346    -3.7097    -0.8415 N.am    
  12 C12            1.2399    -3.2401     1.3119 C.2     
  13 O13            0.7531    -3.6829     2.3358 O.2     
  14 N14            2.4179    -3.7181     0.8642 N.am    
  15 C15           -1.6418    -3.8536    -1.8278 C.2     
  16 O16           -2.1340    -2.8706    -2.3501 O.2     
  17 C17            3.1307    -4.6401     1.6274 C.ar    
  18 C18            4.2899    -5.2107     1.1129 C.ar    
  19 C19            4.9881    -6.1249     1.8814 C.ar    
  20 C20            4.5012    -6.4386     3.1433 C.ar    
  21 C21            3.3436    -5.8337     3.5908 C.ar    
  22 N22            2.7015    -4.9611     2.8377 N.ar    
  23 C23           -2.0355    -5.1934    -2.2712 C.2     
  24 C24           -2.9412    -5.4680    -3.2575 C.2     
  25 C25           -3.1220    -6.8141    -3.4699 C.2     
  26 C26           -2.3911    -7.6157    -2.6863 C.2     
  27 S27           -1.4130    -6.7056    -1.6252 S.3     
  28 H28           -0.5469     1.8751    -0.8571 H       
  29 H29           -0.5355     1.8580     0.9206 H       
  30 H30            1.7721    -0.9303     2.6849 H       
  31 H31            2.7203    -0.1514     1.3988 H       
  32 H32            2.9737     2.1438     1.4924 H       
  33 H33            1.5836     3.1993     1.8336 H       
  34 H34            2.0624     1.3588    -0.5024 H       
  35 H35            1.4285     3.0229    -0.4821 H       
  36 H36            0.1879     1.1936     2.2892 H       
  37 H37            1.5998     1.2712     3.3698 H       
  38 H38           -0.3424    -4.4931    -0.4252 H       
  39 H39            2.7693    -3.4201     0.0107 H       
  40 H40            4.6401    -4.9440     0.1267 H       
  41 H41            5.8913    -6.5846     1.5081 H       
  42 H42            5.0224    -7.1486     3.7683 H       
  43 H43            2.9611    -6.0745     4.5717 H       
  44 H44           -3.4631    -4.7037    -3.8141 H       
  45 H45           -3.8043    -7.1967    -4.2145 H       
  46 H46           -2.4138    -8.6948    -2.7240 H       
@<TRIPOS>BOND
   1    1    2 1
   2    1    6 1
   3    1   28 1
   4    1   29 1
   5    2   10 1
   6    2    3 2
   7    3    4 1
   8    3    8 1
   9    4    7 1
  10    4   30 1
  11    4   31 1
  12    5    6 1
  13    5    7 1
  14    5   32 1
  15    5   33 1
  16    6   34 1
  17    6   35 1
  18    7   36 1
  19    7   37 1
  20    8    9 2
  21    8   12 1
  22    9   10 1
  23    9   11 1
  24   11   15 am
  25   11   38 1
  26   12   13 2
  27   12   14 am
  28   14   17 1
  29   14   39 1
  30   15   16 2
  31   15   23 1
  32   17   18 ar
  33   17   22 ar
  34   18   19 ar
  35   18   40 1
  36   19   20 ar
  37   19   41 1
  38   20   21 ar
  39   20   42 1
  40   21   22 ar
  41   21   43 1
  42   23   24 2
  43   23   27 1
  44   24   25 1
  45   24   44 1
  46   25   26 2
  47   25   45 1
  48   26   27 1
  49   26   46 1

#	End of record

