#	Name: ASD11000234
#	Creating user name:	WinNT
#	Creation time:	15. 06. 2019 21:29

#	Modifying user name:	WinNT
#	Modification time:	15. 06. 2019 21:29

#	Program:	/corina/corina34_cracker 3.40 0067  02.08.2006

@<TRIPOS>MOLECULE
ASD11000234
  47   50    0    0    0
SMALL
NO_CHARGES


@<TRIPOS>ATOM
   1 N1            -0.0172     1.3214    -0.0112 N.ar    
   2 C2             0.0016    -0.0034    -0.0060 C.ar    
   3 N3             1.1402    -0.6810    -0.0150 N.ar    
   4 C4             2.3025    -0.0498    -0.0301 C.ar    
   5 C5             2.3192     1.3362    -0.0364 C.ar    
   6 C6             1.1099     2.0135    -0.0262 C.ar    
   7 N7            -1.1977    -0.6966     0.0098 N.pl3   
   8 C8            -1.2011    -2.0901    -0.1032 C.ar    
   9 C9            -2.1495    -2.8412     0.5790 C.ar    
  10 C10           -0.2597    -2.7259    -0.9025 C.ar    
  11 C11           -0.2660    -4.1035    -1.0119 C.ar    
  12 C12           -1.2095    -4.8489    -0.3262 C.ar    
  13 C13           -2.1507    -4.2179     0.4658 C.ar    
  14 C14            3.6238     2.0903    -0.0530 C.3     
  15 C15            4.0507     2.3391    -1.5011 C.3     
  16 C16            5.3553     3.0933    -1.5177 C.ar    
  17 C17            6.5340     2.4049    -1.5267 C.ar    
  18 C18            7.7445     3.1060    -1.5421 C.ar    
  19 C19            7.7340     4.5145    -1.5483 C.ar    
  20 C20            6.5161     5.1893    -1.5388 C.ar    
  21 C21            5.3469     4.4824    -1.5295 C.ar    
  22 C22            9.1480     2.7065    -1.5547 C.2     
  23 N23            9.8701     3.7903    -1.5668 N.2     
  24 N24            9.0434     4.9186    -1.5634 N.pl3   
  25 C25           -0.2266    -6.9472     0.5572 C.3     
  26 C26           -1.2144    -6.3510    -0.4477 C.3     
  27 Cl27           0.9099    -4.8997    -2.0104 Cl      
  28 H28            3.2273    -0.6076    -0.0371 H       
  29 H29            1.0881     3.0933    -0.0310 H       
  30 H30           -2.0350    -0.2152     0.0992 H       
  31 H31           -2.8852    -2.3493     1.1980 H       
  32 H32            0.4761    -2.1443    -1.4381 H       
  33 H33           -2.8856    -4.8023     0.9995 H       
  34 H34            3.4983     3.0449     0.4579 H       
  35 H35            4.3890     1.5039     0.4556 H       
  36 H36            4.1762     1.3845    -2.0120 H       
  37 H37            3.2855     2.9256    -2.0097 H       
  38 H38            6.5321     1.3249    -1.5215 H       
  39 H39            6.4956     6.2691    -1.5430 H       
  40 H40            4.4047     5.0101    -1.5222 H       
  41 H41            9.5213     1.6930    -1.5534 H       
  42 H42            9.3481     5.8395    -1.5703 H       
  43 H43           -0.2301    -8.0336     0.4694 H       
  44 H44            0.7746    -6.5691     0.3505 H       
  45 H45           -0.5206    -6.6634     1.5678 H       
  46 H46           -2.2156    -6.7291    -0.2410 H       
  47 H47           -0.9203    -6.6348    -1.4582 H       
@<TRIPOS>BOND
   1    1    2 ar
   2    1    6 ar
   3    2    3 ar
   4    2    7 1
   5    3    4 ar
   6    4    5 ar
   7    4   28 1
   8    5    6 ar
   9    5   14 1
  10    6   29 1
  11    7    8 1
  12    7   30 1
  13    8    9 ar
  14    8   10 ar
  15    9   13 ar
  16    9   31 1
  17   10   11 ar
  18   10   32 1
  19   11   12 ar
  20   11   27 1
  21   12   13 ar
  22   12   26 1
  23   13   33 1
  24   14   15 1
  25   14   34 1
  26   14   35 1
  27   15   16 1
  28   15   36 1
  29   15   37 1
  30   16   17 ar
  31   16   21 ar
  32   17   18 ar
  33   17   38 1
  34   18   19 ar
  35   18   22 1
  36   19   20 ar
  37   19   24 1
  38   20   21 ar
  39   20   39 1
  40   21   40 1
  41   22   23 2
  42   22   41 1
  43   23   24 1
  44   24   42 1
  45   25   26 1
  46   25   43 1
  47   25   44 1
  48   25   45 1
  49   26   46 1
  50   26   47 1

#	End of record

