#	Name: ASD10220009
#	Creating user name:	WinNT
#	Creation time:	15. 06. 2019 21:26

#	Modifying user name:	WinNT
#	Modification time:	15. 06. 2019 21:26

#	Program:	/corina/corina34_cracker 3.40 0067  02.08.2006

@<TRIPOS>MOLECULE
ASD10220009
  35   37    0    0    0
SMALL
NO_CHARGES


@<TRIPOS>ATOM
   1 C1             0.0034     1.5146     0.4063 C.2     
   2 C2             0.0495     0.2247     0.9851 C.2     
   3 C3            -1.0785    -0.4260     1.3490 C.2     
   4 C4            -2.4057     0.1609     1.1674 C.2     
   5 C5            -2.5345     1.4220     0.6073 C.2     
   6 C6            -1.3329     2.1685     0.2020 C.2     
   7 O7            -3.6422    -0.2920     1.4490 O.3     
   8 C8            -4.5765     0.5975     1.1069 C.2     
   9 C9            -3.9734     1.7041     0.5705 C.2     
  10 O10           -1.4197     3.2737    -0.2904 O.2     
  11 O11            1.0269     2.0853     0.0850 O.2     
  12 Cl12           1.5881    -0.5401     1.2331 Cl      
  13 C13           -4.6313     2.9214     0.0641 C.2     
  14 O14           -3.9610     3.8744    -0.2858 O.2     
  15 C15           -6.1031     2.9846    -0.0186 C.ar    
  16 C16           -6.8440     1.8170    -0.2210 C.ar    
  17 C17           -8.2185     1.8778    -0.2975 C.ar    
  18 Cl18          -0.9473    -2.0073     2.0532 Cl      
  19 C19           -8.8706     3.0972    -0.1740 C.ar    
  20 C20           -8.1374     4.2666     0.0280 C.ar    
  21 C21           -6.7603     4.2123     0.1110 C.ar    
  22 O22           -8.7793     5.4595     0.1481 O.3     
  23 C23           -7.9658     6.6162     0.3535 C.3     
  24 O24          -10.2252     3.1518    -0.2506 O.3     
  25 C25          -10.9134     1.9169    -0.4592 C.3     
  26 H26           -5.6409     0.4655     1.2331 H       
  27 H27           -6.3393     0.8671    -0.3177 H       
  28 H28           -8.7898     0.9748    -0.4542 H       
  29 H29           -6.1915     5.1168     0.2678 H       
  30 H30           -7.2831     6.7343    -0.4880 H       
  31 H31           -8.6015     7.4981     0.4323 H       
  32 H32           -7.3922     6.4984     1.2729 H       
  33 H33          -10.6938     1.2353     0.3625 H       
  34 H34          -11.9868     2.1018    -0.5009 H       
  35 H35          -10.5847     1.4719    -1.3983 H       
@<TRIPOS>BOND
   1    1    2 1
   2    1   11 2
   3    1    6 1
   4    2    3 2
   5    2   12 1
   6    3    4 1
   7    3   18 1
   8    4    5 2
   9    4    7 1
  10    5    6 1
  11    5    9 1
  12    6   10 2
  13    7    8 1
  14    8    9 2
  15    8   26 1
  16    9   13 1
  17   13   14 2
  18   13   15 1
  19   15   16 ar
  20   15   21 ar
  21   16   17 ar
  22   16   27 1
  23   17   19 ar
  24   17   28 1
  25   19   20 ar
  26   19   24 1
  27   20   21 ar
  28   20   22 1
  29   21   29 1
  30   22   23 1
  31   23   30 1
  32   23   31 1
  33   23   32 1
  34   24   25 1
  35   25   33 1
  36   25   34 1
  37   25   35 1

#	End of record

