#	Name: ASD10420129
#	Creating user name:	WinNT
#	Creation time:	15. 06. 2019 21:27

#	Modifying user name:	WinNT
#	Modification time:	15. 06. 2019 21:27

#	Program:	/corina/corina34_cracker 3.40 0067  02.08.2006

@<TRIPOS>MOLECULE
ASD10420129
  24   25    0    0    0
SMALL
NO_CHARGES


@<TRIPOS>ATOM
   1 Cl1            3.8358     6.5513     0.0022 Cl      
   2 Cl2           -1.5746     6.4888     0.0541 Cl      
   3 Cl3            3.9206    -0.8292    -0.0398 Cl      
   4 Cl4           -1.4898    -0.8917     0.0121 Cl      
   5 C5            -0.0166     1.3761     0.0096 C.ar    
   6 C6             0.0021    -0.0041     0.0020 C.ar    
   7 C7             1.2134    -0.6833    -0.0132 C.ar    
   8 C8             2.4087     0.0237    -0.0208 C.ar    
   9 C9             2.3957     1.4040    -0.0128 C.ar    
  10 C10            1.1815     2.0881     0.0020 C.ar    
  11 O11            1.2290    -2.0425    -0.0202 O.3     
  12 C12            1.1645     3.5715     0.0106 C.ar    
  13 O13            1.1170     7.7021     0.0352 O.3     
  14 C14            2.3626     4.2835     0.0030 C.ar    
  15 C15            2.3439     5.6637     0.0111 C.ar    
  16 C16            1.1326     6.3429     0.0268 C.ar    
  17 C17           -0.0627     5.6359     0.0344 C.ar    
  18 C18           -0.0498     4.2557     0.0206 C.ar    
  19 H19           -0.9589     1.9039     0.0169 H       
  20 H20            3.3256     1.9533    -0.0187 H       
  21 H21            1.2249    -2.4314    -0.9056 H       
  22 H22            1.1040     8.1008    -0.8457 H       
  23 H23            3.3048     3.7558    -0.0089 H       
  24 H24           -0.9797     3.7064     0.0220 H       
@<TRIPOS>BOND
   1    1   15 1
   2    2   17 1
   3    3    8 1
   4    4    6 1
   5    5    6 ar
   6    5   10 ar
   7    5   19 1
   8    6    7 ar
   9    7    8 ar
  10    7   11 1
  11    8    9 ar
  12    9   10 ar
  13    9   20 1
  14   10   12 1
  15   11   21 1
  16   12   14 ar
  17   12   18 ar
  18   13   16 1
  19   13   22 1
  20   14   15 ar
  21   14   23 1
  22   15   16 ar
  23   16   17 ar
  24   17   18 ar
  25   18   24 1

#	End of record

