#	Name: ASD10160460
#	Creating user name:	WinNT
#	Creation time:	15. 06. 2019 21:26

#	Modifying user name:	WinNT
#	Modification time:	15. 06. 2019 21:26

#	Program:	/corina/corina34_cracker 3.40 0067  02.08.2006

@<TRIPOS>MOLECULE
ASD10160460
  27   28    0    0    0
SMALL
NO_CHARGES


@<TRIPOS>ATOM
   1 C1             2.2819     3.9931     4.8192 C.1     
   2 C2             1.6755     4.3959     3.5861 C.ar    
   3 C3             2.4057     4.3414     2.3953 C.ar    
   4 C4             1.8180     4.7295     1.2110 C.ar    
   5 C5             0.5002     5.1750     1.1999 C.ar    
   6 C6            -0.2281     5.2308     2.3817 C.ar    
   7 C7             0.3504     4.8391     3.5691 C.ar    
   8 N8             2.7630     3.6736     5.7975 N.1     
   9 O9            -0.0756     5.5566     0.0312 O.3     
  10 C10           -2.4397     5.2730    -0.0509 C.ar    
  11 C11           -1.3264     6.0876     0.0793 C.ar    
  12 C12           -1.5042     7.4565     0.2604 C.ar    
  13 C13           -2.7960     7.9533     0.3036 C.ar    
  14 C14           -3.8641     7.0750     0.1657 C.ar    
  15 N15           -3.6568     5.7805    -0.0048 N.ar    
  16 O16           -5.1348     7.5517     0.2071 O.3     
  17 C17           -6.1900     6.5995     0.0594 C.3     
  18 Cl18          -3.0777     9.6516     0.5278 Cl      
  19 Cl19           2.7233     4.6630    -0.2688 Cl      
  20 H20            3.4289     3.9959     2.4037 H       
  21 H21           -1.2508     5.5776     2.3688 H       
  22 H22           -0.2182     4.8787     4.4864 H       
  23 H23           -2.3097     4.2107    -0.1961 H       
  24 H24           -0.6548     8.1152     0.3651 H       
  25 H25           -6.1279     5.8614     0.8591 H       
  26 H26           -7.1510     7.1112     0.1111 H       
  27 H27           -6.0959     6.0995    -0.9046 H       
@<TRIPOS>BOND
   1    1    2 1
   2    1    8 3
   3    2    3 ar
   4    2    7 ar
   5    3    4 ar
   6    3   20 1
   7    4    5 ar
   8    4   19 1
   9    5    6 ar
  10    5    9 1
  11    6    7 ar
  12    6   21 1
  13    7   22 1
  14    9   11 1
  15   10   11 ar
  16   10   15 ar
  17   10   23 1
  18   11   12 ar
  19   12   13 ar
  20   12   24 1
  21   13   14 ar
  22   13   18 1
  23   14   15 ar
  24   14   16 1
  25   16   17 1
  26   17   25 1
  27   17   26 1
  28   17   27 1

#	End of record

