#	Name: ASD11920041
#	Creating user name:	WinNT
#	Creation time:	15. 06. 2019 21:29

#	Modifying user name:	WinNT
#	Modification time:	15. 06. 2019 21:29

#	Program:	/corina/corina34_cracker 3.40 0067  02.08.2006

@<TRIPOS>MOLECULE
ASD11920041
  52   53    0    0    0
SMALL
NO_CHARGES


@<TRIPOS>ATOM
   1 C1             1.2744     1.7350    -1.3517 C.3     
   2 C2             0.2135    -2.8790    -2.9735 C.3     
   3 C3             0.5200    -6.3480    -2.5240 C.3     
   4 C4             5.1505    -6.3317    -0.4260 C.3     
   5 C5             0.9085    -0.1575     0.2448 C.ar    
   6 O6             4.0255    -5.5479    -0.8286 O.3     
   7 C7             2.8012    -5.9184    -0.1917 C.3     
   8 C8             1.6714    -5.0180    -0.6954 C.3     
   9 C9             0.4592    -1.9190    -1.8381 C.ar    
  10 N10            1.4359    -5.2793    -2.1175 N.pl3   
  11 N11            4.0409    -4.2546    -4.5690 N.2     
  12 C12            3.3761    -4.9526    -3.6392 C.2     
  13 C13            0.7416    -0.5924    -2.1037 C.ar    
  14 C14            2.0853    -4.5088    -3.0869 C.2     
  15 C15            0.9665     0.2885    -1.0621 C.ar    
  16 C16            1.5333    -3.3635    -3.5162 C.2     
  17 C17            2.2881    -2.5769    -4.5677 C.3     
  18 C18            0.6260    -1.4845     0.5105 C.ar    
  19 C19            3.6041    -3.1389    -5.0545 C.2     
  20 C20            0.4016    -2.3652    -0.5308 C.ar    
  21 C21            4.4021    -2.4033    -6.1000 C.3     
  22 O22            3.8572    -5.9943    -3.2354 O.2     
  23 C23            1.3700    -2.4173    -5.7812 C.3     
  24 C24            0.9757    -3.7987    -6.3075 C.3     
  25 H25            2.3521     1.8640    -1.4519 H       
  26 H26            0.7851     2.0320    -2.2793 H       
  27 H27            0.9088     2.3552    -0.5333 H       
  28 H28           -0.3647    -3.7292    -2.6117 H       
  29 H29           -0.3405    -2.3728    -3.7639 H       
  30 H30           -0.4981    -5.9601    -2.5594 H       
  31 H31            0.8038    -6.7141    -3.5107 H       
  32 H32            0.5727    -7.1650    -1.8044 H       
  33 H33            4.9677    -7.3793    -0.6652 H       
  34 H34            6.0402    -5.9884    -0.9539 H       
  35 H35            5.3017    -6.2254     0.6482 H       
  36 H36            1.0883     0.5297     1.0584 H       
  37 H37            2.5696    -6.9574    -0.4260 H       
  38 H38            2.9036    -5.8035     0.8874 H       
  39 H39            0.7618    -5.2267    -0.1321 H       
  40 H40            1.9513    -3.9733    -0.5595 H       
  41 H41            0.7869    -0.2439    -3.1249 H       
  42 H42            2.4788    -1.5816    -4.1663 H       
  43 H43            0.5810    -1.8331     1.5317 H       
  44 H44            0.1812    -3.4019    -0.3233 H       
  45 H45            5.2749    -2.9958    -6.3745 H       
  46 H46            3.7823    -2.2396    -6.9816 H       
  47 H47            4.7263    -1.4425    -5.7003 H       
  48 H48            0.4736    -1.8703    -5.4891 H       
  49 H49            1.8933    -1.8665    -6.5627 H       
  50 H50            0.5161    -4.3757    -5.5050 H       
  51 H51            0.2656    -3.6863    -7.1268 H       
  52 H52            1.8644    -4.3184    -6.6657 H       
@<TRIPOS>BOND
   1    1   15 1
   2    1   25 1
   3    1   26 1
   4    1   27 1
   5    2    9 1
   6    2   16 1
   7    2   28 1
   8    2   29 1
   9    3   10 1
  10    3   30 1
  11    3   31 1
  12    3   32 1
  13    4    6 1
  14    4   33 1
  15    4   34 1
  16    4   35 1
  17    5   15 ar
  18    5   18 ar
  19    5   36 1
  20    6    7 1
  21    7    8 1
  22    7   37 1
  23    7   38 1
  24    8   10 1
  25    8   39 1
  26    8   40 1
  27    9   13 ar
  28    9   20 ar
  29   10   14 1
  30   11   12 1
  31   11   19 2
  32   12   14 1
  33   12   22 2
  34   13   15 ar
  35   13   41 1
  36   14   16 2
  37   16   17 1
  38   17   19 1
  39   17   23 1
  40   17   42 1
  41   18   20 ar
  42   18   43 1
  43   19   21 1
  44   20   44 1
  45   21   45 1
  46   21   46 1
  47   21   47 1
  48   23   24 1
  49   23   48 1
  50   23   49 1
  51   24   50 1
  52   24   51 1
  53   24   52 1

#	End of record

