#	Name: ASD11000069
#	Creating user name:	WinNT
#	Creation time:	15. 06. 2019 21:28

#	Modifying user name:	WinNT
#	Modification time:	15. 06. 2019 21:28

#	Program:	/corina/corina34_cracker 3.40 0067  02.08.2006

@<TRIPOS>MOLECULE
ASD11000069
  41   42    0    0    0
SMALL
NO_CHARGES


@<TRIPOS>ATOM
   1 C1            -0.3909     2.1292     0.4939 C.ar    
   2 C2            -0.4292     1.3388    -0.6410 C.ar    
   3 C3            -1.5521     0.5899    -0.9262 C.ar    
   4 C4            -2.6513     0.6308    -0.0668 C.ar    
   5 C5            -2.6061     1.4304     1.0766 C.ar    
   6 C6            -1.4750     2.1703     1.3528 C.ar    
   7 C7            -3.8579    -0.1686    -0.3663 C.2     
   8 O8            -3.8946    -0.8636    -1.3629 O.2     
   9 N9            -4.9175    -0.1268     0.4656 N.am    
  10 C10           -6.0787    -0.8313     0.1511 C.2     
  11 C11           -7.2973    -0.2300    -0.0636 C.2     
  12 S12           -8.4902    -1.4679    -0.4319 S.3     
  13 C13           -7.3259    -2.7054    -0.2842 C.2     
  14 C14           -6.1245    -2.2054     0.0168 C.2     
  15 C15           -7.5499     1.1602     0.0020 C.2     
  16 O16           -8.7611     1.6433    -0.3468 O.3     
  17 O17           -6.6751     1.9209     0.3728 O.2     
  18 C18            0.8393     2.9442     0.7993 C.3     
  19 C19            1.0983     3.9253    -0.3458 C.3     
  20 C20            0.6258     3.7224     2.0992 C.3     
  21 C21            2.0428     2.0124     0.9546 C.3     
  22 C22           -4.9098    -3.0772     0.2055 C.3     
  23 H23            0.4218     1.3083    -1.3053 H       
  24 H24           -1.5808    -0.0264    -1.8127 H       
  25 H25           -3.4533     1.4668     1.7454 H       
  26 H26           -1.4386     2.7893     2.2370 H       
  27 H27           -4.8722     0.3933     1.2830 H       
  28 H28           -7.5325    -3.7568    -0.4199 H       
  29 H29           -8.8385     2.6040    -0.2694 H       
  30 H30            0.2409     4.5892    -0.4564 H       
  31 H31            1.9882     4.5148    -0.1249 H       
  32 H32            1.2505     3.3709    -1.2718 H       
  33 H33            0.4413     3.0235     2.9150 H       
  34 H34            1.5156     4.3119     2.3201 H       
  35 H35           -0.2316     4.3863     1.9886 H       
  36 H36            2.1949     1.4579     0.0286 H       
  37 H37            2.9327     2.6019     1.1755 H       
  38 H38            1.8583     1.3134     1.7704 H       
  39 H39           -4.4612    -3.2903    -0.7648 H       
  40 H40           -4.1856    -2.5601     0.8349 H       
  41 H41           -5.2041    -4.0119     0.6829 H       
@<TRIPOS>BOND
   1    1    2 ar
   2    1   18 1
   3    1    6 ar
   4    2    3 ar
   5    2   23 1
   6    3    4 ar
   7    3   24 1
   8    4    5 ar
   9    4    7 1
  10    5    6 ar
  11    5   25 1
  12    6   26 1
  13    7    8 2
  14    7    9 am
  15    9   10 1
  16    9   27 1
  17   10   11 2
  18   10   14 1
  19   11   12 1
  20   11   15 1
  21   12   13 1
  22   13   14 2
  23   13   28 1
  24   14   22 1
  25   15   16 1
  26   15   17 2
  27   16   29 1
  28   18   19 1
  29   18   20 1
  30   18   21 1
  31   19   30 1
  32   19   31 1
  33   19   32 1
  34   20   33 1
  35   20   34 1
  36   20   35 1
  37   21   36 1
  38   21   37 1
  39   21   38 1
  40   22   39 1
  41   22   40 1
  42   22   41 1

#	End of record

