#	Name: ASD11000003
#	Creating user name:	WinNT
#	Creation time:	15. 06. 2019 21:28

#	Modifying user name:	WinNT
#	Modification time:	15. 06. 2019 21:28

#	Program:	/corina/corina34_cracker 3.40 0067  02.08.2006

@<TRIPOS>MOLECULE
ASD11000003
  51   53    0    0    0
SMALL
NO_CHARGES


@<TRIPOS>ATOM
   1 C1            -0.0167     1.3829     0.0096 C.ar    
   2 C2             0.0021    -0.0041     0.0020 C.ar    
   3 C3             1.2143    -0.6810    -0.0127 C.ar    
   4 C4             2.3954     0.0357    -0.0196 C.ar    
   5 C5             2.3742     1.4095    -0.0124 C.ar    
   6 C6             1.1709     2.0907     0.0021 C.ar    
   7 C7             3.7203    -0.6984    -0.0342 C.3     
   8 C8             4.3768    -0.4789    -1.4008 C.3     
   9 N9             5.1201     0.7703    -1.4231 N.3     
  10 C10            4.3384     1.9955    -1.3899 C.3     
  11 C11            3.6764     2.1835    -0.0206 C.3     
  12 C12            6.0831     0.7902    -2.5322 C.3     
  13 C13            5.3283     0.7919    -3.8631 C.3     
  14 C14            6.3313     0.8126    -5.0182 C.3     
  15 C15            5.5765     0.8143    -6.3491 C.3     
  16 C16            6.5644     0.8347    -7.4869 C.ar    
  17 C17            7.0314    -0.3530    -8.0182 C.ar    
  18 C18            7.9376    -0.3343    -9.0618 C.ar    
  19 C19            8.3766     0.8720    -9.5745 C.ar    
  20 C20            7.9090     2.0597    -9.0439 C.ar    
  21 C21            6.9994     2.0410    -8.0031 C.ar    
  22 O22            3.4138     3.5705     0.2012 O.3     
  23 O23           -1.1652    -0.7000     0.0094 O.3     
  24 C24           -2.3743     0.0615     0.0251 C.3     
  25 H25           -0.9593     1.9100     0.0170 H       
  26 H26            1.2338    -1.7608    -0.0184 H       
  27 H27            1.1589     3.1707     0.0081 H       
  28 H28            4.3664    -0.3060     0.7511 H       
  29 H29            3.5520    -1.7634     0.1257 H       
  30 H30            5.0573    -1.3047    -1.6084 H       
  31 H31            3.6043    -0.4501    -2.1692 H       
  32 H32            4.9928     2.8438    -1.5911 H       
  33 H33            3.5665     1.9492    -2.1581 H       
  34 H34            4.3347     1.8041     0.7609 H       
  35 H35            6.6990     1.6868    -2.4627 H       
  36 H36            6.7196    -0.0930    -2.4767 H       
  37 H37            4.7124    -0.1047    -3.9327 H       
  38 H38            4.6919     1.6751    -3.9186 H       
  39 H39            6.9472     1.7092    -4.9487 H       
  40 H40            6.9678    -0.0706    -4.9627 H       
  41 H41            4.9606    -0.0823    -6.4187 H       
  42 H42            4.9401     1.6975    -6.4047 H       
  43 H43            6.6884    -1.2955    -7.6176 H       
  44 H44            8.3030    -1.2622    -9.4764 H       
  45 H45            9.0852     0.8866   -10.3895 H       
  46 H46            8.2522     3.0023    -9.4442 H       
  47 H47            6.6341     2.9690    -7.5885 H       
  48 H48            2.9943     3.7604     1.0515 H       
  49 H49           -2.3995     0.6851     0.9187 H       
  50 H50           -2.4165     0.6947    -0.8612 H       
  51 H51           -3.2294    -0.6145     0.0296 H       
@<TRIPOS>BOND
   1    1    2 ar
   2    1    6 ar
   3    1   25 1
   4    2    3 ar
   5    2   23 1
   6    3    4 ar
   7    3   26 1
   8    4    5 ar
   9    4    7 1
  10    5    6 ar
  11    5   11 1
  12    6   27 1
  13    7    8 1
  14    7   28 1
  15    7   29 1
  16    8    9 1
  17    8   30 1
  18    8   31 1
  19    9   10 1
  20    9   12 1
  21   10   11 1
  22   10   32 1
  23   10   33 1
  24   11   22 1
  25   11   34 1
  26   12   13 1
  27   12   35 1
  28   12   36 1
  29   13   14 1
  30   13   37 1
  31   13   38 1
  32   14   15 1
  33   14   39 1
  34   14   40 1
  35   15   16 1
  36   15   41 1
  37   15   42 1
  38   16   17 ar
  39   16   21 ar
  40   17   18 ar
  41   17   43 1
  42   18   19 ar
  43   18   44 1
  44   19   20 ar
  45   19   45 1
  46   20   21 ar
  47   20   46 1
  48   21   47 1
  49   22   48 1
  50   23   24 1
  51   24   49 1
  52   24   50 1
  53   24   51 1

#	End of record

