#	Name: ASD10220176
#	Creating user name:	WinNT
#	Creation time:	15. 06. 2019 21:26

#	Modifying user name:	WinNT
#	Modification time:	15. 06. 2019 21:26

#	Program:	/corina/corina34_cracker 3.40 0067  02.08.2006

@<TRIPOS>MOLECULE
ASD10220176
  36   38    0    0    0
SMALL
NO_CHARGES


@<TRIPOS>ATOM
   1 C1             0.0079     1.4864     0.3976 C.ar    
   2 C2             0.0591     0.2193     0.9686 C.ar    
   3 C3            -1.0970    -0.4210     1.3604 C.ar    
   4 C4            -2.3284     0.1982     1.1864 C.ar    
   5 C5            -2.3800     1.4760     0.6106 C.ar    
   6 C6            -1.2099     2.1195     0.2229 C.ar    
   7 O7            -3.5950    -0.1756     1.4668 O.3     
   8 C8            -4.4719     0.7707     1.1137 C.2     
   9 C9            -3.8124     1.8336     0.5734 C.2     
  10 C10           -4.4036     3.0777     0.0605 C.2     
  11 O11           -3.6837     3.9919    -0.2956 O.2     
  12 C12           -5.8709     3.2182    -0.0226 C.ar    
  13 C13           -6.6718     2.0913    -0.2239 C.ar    
  14 C14           -8.0413     2.2242    -0.3013 C.ar    
  15 C15           -8.6283     3.4762    -0.1796 C.ar    
  16 C16           -7.8347     4.6054     0.0210 C.ar    
  17 C17           -6.4623     4.4784     0.1057 C.ar    
  18 O18            1.1563     2.1060     0.0158 O.3     
  19 O19           -9.9783     3.6019    -0.2566 O.3     
  20 C20          -10.7306     2.4047    -0.4637 C.3     
  21 O21           -8.4129     5.8306     0.1389 O.3     
  22 C22           -7.5396     6.9432     0.3429 C.3     
  23 H23            1.0133    -0.2676     1.1059 H       
  24 H24           -1.0455    -1.4049     1.8028 H       
  25 H25           -1.2521     3.1035    -0.2203 H       
  26 H26           -5.5426     0.7023     1.2377 H       
  27 H27           -6.2176     1.1161    -0.3192 H       
  28 H28           -8.6593     1.3523    -0.4573 H       
  29 H29           -5.8466     5.3520     0.2614 H       
  30 H30            1.4184     1.9212    -0.8965 H       
  31 H31          -10.4255     1.9416    -1.4021 H       
  32 H32          -10.5472     1.7135     0.3590 H       
  33 H33          -11.7927     2.6457    -0.5058 H       
  34 H34           -6.9734     6.7967     1.2628 H       
  35 H35           -6.8513     7.0238    -0.4984 H       
  36 H36           -8.1279     7.8575     0.4200 H       
@<TRIPOS>BOND
   1    1    2 ar
   2    1   18 1
   3    1    6 ar
   4    2    3 ar
   5    2   23 1
   6    3    4 ar
   7    3   24 1
   8    4    5 ar
   9    4    7 1
  10    5    6 ar
  11    5    9 1
  12    6   25 1
  13    7    8 1
  14    8    9 2
  15    8   26 1
  16    9   10 1
  17   10   11 2
  18   10   12 1
  19   12   13 ar
  20   12   17 ar
  21   13   14 ar
  22   13   27 1
  23   14   15 ar
  24   14   28 1
  25   15   16 ar
  26   15   19 1
  27   16   17 ar
  28   16   21 1
  29   17   29 1
  30   18   30 1
  31   19   20 1
  32   20   31 1
  33   20   32 1
  34   20   33 1
  35   21   22 1
  36   22   34 1
  37   22   35 1
  38   22   36 1

#	End of record

