#	Name: ASD11000029
#	Creating user name:	WinNT
#	Creation time:	15. 06. 2019 21:28

#	Modifying user name:	WinNT
#	Modification time:	15. 06. 2019 21:28

#	Program:	/corina/corina34_cracker 3.40 0067  02.08.2006

@<TRIPOS>MOLECULE
ASD11000029
  67   70    0    0    0
SMALL
NO_CHARGES


@<TRIPOS>ATOM
   1 C1            -1.4314    -0.0288    -0.5440 C.ar    
   2 C2            -0.9238    -1.2905    -0.3176 C.ar    
   3 C3             0.4480    -1.5039    -0.3447 C.ar    
   4 C4             1.3133    -0.4482    -0.5997 C.ar    
   5 C5             0.8128     0.8161    -0.8269 C.ar    
   6 C6            -0.5650     1.0342    -0.8005 C.ar    
   7 C7            -1.1062     2.3900    -1.0444 C.2     
   8 O8            -2.4481     2.6005    -1.0183 O.3     
   9 O9             0.9448    -2.7484    -0.1208 O.3     
  10 C10            2.3654    -2.8971    -0.1633 C.3     
  11 C11            2.7338    -4.3567     0.1103 C.3     
  12 N12            2.2392    -4.7448     1.4355 N.am    
  13 C13            2.1097    -5.2377    -0.9431 C.ar    
  14 C14            1.4045    -6.3778    -0.6265 C.ar    
  15 C15            2.2669    -4.8660    -2.2716 C.ar    
  16 C16            0.8660    -7.1574    -1.6433 C.ar    
  17 C17            1.0232    -6.7938    -2.9678 C.ar    
  18 C18            1.7269    -5.6360    -3.2855 C.ar    
  19 C19            2.1813    -6.1840     1.7403 C.3     
  20 C20            1.1686    -6.8244     0.7925 C.3     
  21 C21            1.8537    -3.8210     2.3380 C.2     
  22 O22            2.0215    -2.6390     2.1076 O.2     
  23 O23            1.8837    -5.2650    -4.5844 O.3     
  24 C24            2.6182    -4.0645    -4.8321 C.3     
  25 O25            0.4924    -7.5635    -3.9553 O.3     
  26 C26           -0.2171    -8.7369    -3.5528 C.3     
  27 C27            1.2279    -4.2442     3.6059 C.ar    
  28 C28            1.3635    -3.4556     4.7515 C.ar    
  29 C29            0.4934    -5.4316     3.6625 C.ar    
  30 C30           -0.0893    -5.8228     4.8473 C.ar    
  31 C31            0.0523    -5.0382     5.9859 C.ar    
  32 C32            0.7777    -3.8537     5.9324 C.ar    
  33 C33           -0.2779     3.4033    -1.2895 C.2     
  34 C34           -2.9005     3.9339    -1.2623 C.3     
  35 O35           -0.5235    -5.4271     7.1516 O.3     
  36 C36           -0.3383    -4.5740     8.2830 C.3     
  37 H37           -2.4987     0.1355    -0.5272 H       
  38 H38           -1.5939    -2.1138    -0.1187 H       
  39 H39            2.3798    -0.6177    -0.6196 H       
  40 H40            1.4863     1.6367    -1.0251 H       
  41 H41            2.7317    -2.6085    -1.1485 H       
  42 H42            2.8204    -2.2594     0.5947 H       
  43 H43            3.8176    -4.4690     0.0804 H       
  44 H44            2.8150    -3.9678    -2.5151 H       
  45 H45            0.3199    -8.0559    -1.3963 H       
  46 H46            3.1631    -6.6328     1.5890 H       
  47 H47            1.8637    -6.3298     2.7727 H       
  48 H48            0.1619    -6.5369     1.0961 H       
  49 H49            1.2625    -7.9090     0.8472 H       
  50 H50            2.6688    -3.8845    -5.9059 H       
  51 H51            2.1186    -3.2262    -4.3463 H       
  52 H52            3.6272    -4.1669    -4.4329 H       
  53 H53           -0.5876    -9.2581    -4.4355 H       
  54 H54            0.4524    -9.3937    -2.9974 H       
  55 H55           -1.0571    -8.4538    -2.9186 H       
  56 H56            1.9272    -2.5354     4.7109 H       
  57 H57            0.3826    -6.0416     2.7782 H       
  58 H58           -0.6575    -6.7402     4.8917 H       
  59 H59            0.8855    -3.2469     6.8193 H       
  60 H60           -0.6728     4.3927    -1.4675 H       
  61 H61            0.7889     3.2359    -1.3102 H       
  62 H62           -2.4844     4.6024    -0.5085 H       
  63 H63           -2.5731     4.2533    -2.2517 H       
  64 H64           -3.9889     3.9631    -1.2128 H       
  65 H65            0.7262    -4.4823     8.4984 H       
  66 H66           -0.7514    -3.5888     8.0666 H       
  67 H67           -0.8485    -5.0002     9.1468 H       
@<TRIPOS>BOND
   1    1    2 ar
   2    1    6 ar
   3    1   37 1
   4    2    3 ar
   5    2   38 1
   6    3    4 ar
   7    3    9 1
   8    4    5 ar
   9    4   39 1
  10    5    6 ar
  11    5   40 1
  12    6    7 1
  13    7    8 1
  14    7   33 2
  15    8   34 1
  16    9   10 1
  17   10   11 1
  18   10   41 1
  19   10   42 1
  20   11   12 1
  21   11   13 1
  22   11   43 1
  23   12   19 1
  24   12   21 am
  25   13   14 ar
  26   13   15 ar
  27   14   16 ar
  28   14   20 1
  29   15   18 ar
  30   15   44 1
  31   16   17 ar
  32   16   45 1
  33   17   18 ar
  34   17   25 1
  35   18   23 1
  36   19   20 1
  37   19   46 1
  38   19   47 1
  39   20   48 1
  40   20   49 1
  41   21   22 2
  42   21   27 1
  43   23   24 1
  44   24   50 1
  45   24   51 1
  46   24   52 1
  47   25   26 1
  48   26   53 1
  49   26   54 1
  50   26   55 1
  51   27   28 ar
  52   27   29 ar
  53   28   32 ar
  54   28   56 1
  55   29   30 ar
  56   29   57 1
  57   30   31 ar
  58   30   58 1
  59   31   32 ar
  60   31   35 1
  61   32   59 1
  62   33   60 1
  63   33   61 1
  64   34   62 1
  65   34   63 1
  66   34   64 1
  67   35   36 1
  68   36   65 1
  69   36   66 1
  70   36   67 1

#	End of record

