#	Name: ASD14150002
#	Creating user name:	WinNT
#	Creation time:	15. 06. 2019 21:30

#	Modifying user name:	WinNT
#	Modification time:	15. 06. 2019 21:30

#	Program:	/corina/corina34_cracker 3.40 0067  02.08.2006

@<TRIPOS>MOLECULE
ASD14150002
  37   37    0    0    0
SMALL
NO_CHARGES


@<TRIPOS>ATOM
   1 C1            -0.0158     1.3154     0.0093 C.ar    
   2 N2             0.0021    -0.0041     0.0020 N.ar    
   3 C3             1.1371    -0.6826    -0.0125 C.ar    
   4 C4             2.3580    -0.0197    -0.0202 C.ar    
   5 C5             2.3728     1.3640    -0.0129 C.ar    
   6 C6             1.1598     2.0391     0.0019 C.ar    
   7 C7             3.6489    -0.7971    -0.0358 C.3     
   8 C8             3.9694    -1.2819     1.3796 C.3     
   9 C9             5.2800    -2.0711     1.3638 C.3     
  10 C10            5.5368    -2.6610     2.7519 C.3     
  11 C11            5.1829    -3.1859     0.3543 C.2     
  12 O12            6.3562    -1.2003     1.0097 O.3     
  13 C13            6.8278    -3.4384     2.7364 C.2     
  14 O14            5.9561    -3.2300    -0.5731 O.2     
  15 O15            4.2376    -4.1297     0.4856 O.3     
  16 O16            7.4759    -3.5130     1.7194 O.2     
  17 O17            7.2576    -4.0480     3.8523 O.3     
  18 O18            1.1091    -2.0390    -0.0195 O.3     
  19 C19           -0.1773    -2.6613    -0.0105 C.3     
  20 C20            1.1267     3.5457     0.0099 C.3     
  21 H21           -0.9622     1.8358     0.0166 H       
  22 H22            3.3067     1.9064    -0.0182 H       
  23 H23            3.5480    -1.6556    -0.6998 H       
  24 H24            4.4551    -0.1555    -0.3913 H       
  25 H25            4.0702    -0.4234     2.0436 H       
  26 H26            3.1631    -1.9235     1.7351 H       
  27 H27            5.6070    -1.8548     3.4820 H       
  28 H28            4.7159    -3.3253     3.0220 H       
  29 H29            6.4775    -0.4578     1.6173 H       
  30 H30            4.2147    -4.8246    -0.1866 H       
  31 H31            8.0911    -4.5347     3.7935 H       
  32 H32           -0.7196    -2.3618     0.8863 H       
  33 H33           -0.7366    -2.3522    -0.8935 H       
  34 H34           -0.0569    -3.7446    -0.0175 H       
  35 H35            1.1284     3.9037     1.0394 H       
  36 H36            2.0037     3.9311    -0.5102 H       
  37 H37            0.2242     3.8920    -0.4937 H       
@<TRIPOS>BOND
   1    1    2 ar
   2    1    6 ar
   3    1   21 1
   4    2    3 ar
   5    3    4 ar
   6    3   18 1
   7    4    5 ar
   8    4    7 1
   9    5    6 ar
  10    5   22 1
  11    6   20 1
  12    7    8 1
  13    7   23 1
  14    7   24 1
  15    8    9 1
  16    8   25 1
  17    8   26 1
  18    9   10 1
  19    9   11 1
  20    9   12 1
  21   10   13 1
  22   10   27 1
  23   10   28 1
  24   11   14 2
  25   11   15 1
  26   12   29 1
  27   13   16 2
  28   13   17 1
  29   15   30 1
  30   17   31 1
  31   18   19 1
  32   19   32 1
  33   19   33 1
  34   19   34 1
  35   20   35 1
  36   20   36 1
  37   20   37 1

#	End of record

