#	Name: ASD10160025
#	Creating user name:	WinNT
#	Creation time:	15. 06. 2019 21:25

#	Modifying user name:	WinNT
#	Modification time:	15. 06. 2019 21:25

#	Program:	/corina/corina34_cracker 3.40 0067  02.08.2006

@<TRIPOS>MOLECULE
ASD10160025
  41   42    0    0    0
SMALL
NO_CHARGES


@<TRIPOS>ATOM
   1 C1             0.0737     1.0304    -1.4448 C.ar    
   2 C2             0.0501    -0.1972    -0.7750 C.ar    
   3 C3             1.2903     1.6950    -1.6360 C.ar    
   4 C4             2.4612     1.1364    -1.1630 C.ar    
   5 C5             2.4322    -0.0821    -0.4990 C.ar    
   6 C6             1.2232    -0.7468    -0.3066 C.ar    
   7 C7            -1.1787     1.6196    -1.9533 C.2     
   8 N8            -2.3485     0.9751    -1.7729 N.am    
   9 O9            -1.1560     2.6870    -2.5354 O.2     
  10 S10           -3.7551     1.6368    -2.3440 S.o2    
  11 O11           -4.7608     0.7111    -1.9555 O.2     
  12 O12           -3.7476     2.9651    -1.8393 O.2     
  13 O13            3.5855    -0.6277    -0.0355 O.3     
  14 C14            4.7264     0.1021    -0.1471 C.ar    
  15 F15            1.2012    -1.9325     0.3405 F       
  16 C16            5.1015     0.9838     0.8619 C.ar    
  17 C17            5.5367    -0.0258    -1.2660 C.ar    
  18 N18            6.6448     0.6795    -1.3790 N.ar    
  19 C19            7.0269     1.5273    -0.4444 C.ar    
  20 C20            6.2742     1.7060     0.7030 C.ar    
  21 C21            8.3035     2.3075    -0.6252 C.3     
  22 F22            1.3193     2.8809    -2.2827 F       
  23 Cl23           6.7888     2.8256     1.9258 Cl      
  24 F24            9.1847     2.0086     0.4194 F       
  25 C25            8.9479     1.9288    -1.9602 C.3     
  26 C26           -3.5547     1.6396    -4.1468 C.3     
  27 C27            7.9913     3.8053    -0.6163 C.3     
  28 H28           -0.8866    -0.7133    -0.6249 H       
  29 H29            3.4008     1.6481    -1.3102 H       
  30 H30           -2.3666     0.1236    -1.3086 H       
  31 H31            4.4939     1.1028     1.7468 H       
  32 H32            5.2569    -0.7107    -2.0528 H       
  33 H33            8.2613     2.1617    -2.7741 H       
  34 H34            9.8712     2.4932    -2.0910 H       
  35 H35            9.1703     0.8618    -1.9666 H       
  36 H36           -3.4137     0.6175    -4.4984 H       
  37 H37           -4.4451     2.0638    -4.6107 H       
  38 H38           -2.6847     2.2392    -4.4148 H       
  39 H39            7.5322     4.0751     0.3348 H       
  40 H40            8.9146     4.3697    -0.7471 H       
  41 H41            7.3047     4.0382    -1.4302 H       
@<TRIPOS>BOND
   1    1    2 ar
   2    1    3 ar
   3    1    7 1
   4    2    6 ar
   5    2   28 1
   6    3    4 ar
   7    3   22 1
   8    4    5 ar
   9    4   29 1
  10    5    6 ar
  11    5   13 1
  12    6   15 1
  13    7    8 am
  14    7    9 2
  15    8   10 am
  16    8   30 1
  17   10   11 2
  18   10   12 2
  19   10   26 1
  20   13   14 1
  21   14   16 ar
  22   14   17 ar
  23   16   20 ar
  24   16   31 1
  25   17   18 ar
  26   17   32 1
  27   18   19 ar
  28   19   20 ar
  29   19   21 1
  30   20   23 1
  31   21   24 1
  32   21   25 1
  33   21   27 1
  34   25   33 1
  35   25   34 1
  36   25   35 1
  37   26   36 1
  38   26   37 1
  39   26   38 1
  40   27   39 1
  41   27   40 1
  42   27   41 1

#	End of record

