#	Name: ASD14720003
#	Creating user name:	WinNT
#	Creation time:	15. 06. 2019 21:31

#	Modifying user name:	WinNT
#	Modification time:	15. 06. 2019 21:31

#	Program:	/corina/corina34_cracker 3.40 0067  02.08.2006

@<TRIPOS>MOLECULE
ASD14720003
  55   58    0    0    0
SMALL
NO_CHARGES


@<TRIPOS>ATOM
   1 N1             0.1521     1.4637     0.1107 N.3     
   2 C2             0.1898    -0.0069     0.1482 C.3     
   3 C3             0.7833    -0.5111    -1.1676 C.3     
   4 C4             2.0753     0.2084    -1.4585 C.ar    
   5 C5             1.5095     2.0089     0.2142 C.3     
   6 C6             2.9393    -0.3366    -2.3963 C.ar    
   7 C7             4.1313     0.2922    -2.6949 C.ar    
   8 C8             4.4653     1.4720    -2.0559 C.ar    
   9 C9             3.6066     2.0146    -1.1216 C.ar    
  10 C10            2.4091     1.3829    -0.8190 C.ar    
  11 C11           -0.7112     1.9956     1.1735 C.3     
  12 C12           -0.3085     1.3948     2.4956 C.2     
  13 C13           -0.5645     3.4940     1.2372 C.ar    
  14 N14            0.9138     1.2128     2.9326 N.2     
  15 N15           -1.1341     0.9462     3.4593 N.pl3   
  16 N16           -0.3934     0.5126     4.4226 N.2     
  17 N17            0.8426     0.6752     4.1013 N.2     
  18 C18            0.3132     5.4483     2.3068 C.ar    
  19 C19           -0.2953     6.2466     1.3555 C.ar    
  20 C20           -1.0435     5.6723     0.3465 C.ar    
  21 C21           -1.1802     4.2929     0.2849 C.ar    
  22 C22            0.1786     4.0737     2.2475 C.ar    
  23 C23           -2.5986     0.9499     3.4217 C.3     
  24 C24           -3.0830    -0.0003     2.3247 C.3     
  25 C25           -3.1447     0.4881     4.7742 C.3     
  26 C26           -3.0976     2.3659     3.1268 C.3     
  27 O27           -1.9155     3.7254    -0.7071 O.3     
  28 C28           -2.4230     4.5978    -1.7188 C.3     
  29 H29            0.8119    -0.3362     0.9805 H       
  30 H30           -0.8214    -0.3962     0.2668 H       
  31 H31            0.9743    -1.5815    -1.0918 H       
  32 H32            0.0767    -0.3275    -1.9770 H       
  33 H33            1.4775     3.0872     0.0583 H       
  34 H34            1.9054     1.8033     1.2087 H       
  35 H35            2.6784    -1.2581    -2.8954 H       
  36 H36            4.8014    -0.1364    -3.4254 H       
  37 H37            5.3965     1.9677    -2.2873 H       
  38 H38            3.8685     2.9362    -0.6230 H       
  39 H39           -1.7493     1.7409     0.9599 H       
  40 H40            0.8979     5.8992     3.0949 H       
  41 H41           -0.1887     7.3202     1.4040 H       
  42 H42           -1.5185     6.2962    -0.3962 H       
  43 H43            0.6545     3.4524     2.9918 H       
  44 H44           -2.6485    -0.9876     2.4814 H       
  45 H45           -4.1701    -0.0720     2.3601 H       
  46 H46           -2.7756     0.3817     1.3513 H       
  47 H47           -2.7996     1.1651     5.5557 H       
  48 H48           -4.2343     0.4909     4.7463 H       
  49 H49           -2.7892    -0.5207     4.9843 H       
  50 H50           -2.8031     2.6520     2.1171 H       
  51 H51           -4.1841     2.3929     3.2098 H       
  52 H52           -2.6610     3.0616     3.8434 H       
  53 H53           -1.5926     5.0966    -2.2185 H       
  54 H54           -2.9902     4.0183    -2.4472 H       
  55 H55           -3.0734     5.3440    -1.2623 H       
@<TRIPOS>BOND
   1    1    2 1
   2    1    5 1
   3    1   11 1
   4    2    3 1
   5    2   29 1
   6    2   30 1
   7    3    4 1
   8    3   31 1
   9    3   32 1
  10    4    6 ar
  11    4   10 ar
  12    5   10 1
  13    5   33 1
  14    5   34 1
  15    6    7 ar
  16    6   35 1
  17    7    8 ar
  18    7   36 1
  19    8    9 ar
  20    8   37 1
  21    9   10 ar
  22    9   38 1
  23   11   12 1
  24   11   13 1
  25   11   39 1
  26   12   15 1
  27   12   14 2
  28   13   22 ar
  29   13   21 ar
  30   14   17 1
  31   15   16 1
  32   15   23 1
  33   16   17 2
  34   18   19 ar
  35   18   22 ar
  36   18   40 1
  37   19   20 ar
  38   19   41 1
  39   20   21 ar
  40   20   42 1
  41   21   27 1
  42   22   43 1
  43   23   24 1
  44   23   25 1
  45   23   26 1
  46   24   44 1
  47   24   45 1
  48   24   46 1
  49   25   47 1
  50   25   48 1
  51   25   49 1
  52   26   50 1
  53   26   51 1
  54   26   52 1
  55   27   28 1
  56   28   53 1
  57   28   54 1
  58   28   55 1

#	End of record

