#	Name: ASD13010021
#	Creating user name:	WinNT
#	Creation time:	15. 06. 2019 21:30

#	Modifying user name:	WinNT
#	Modification time:	15. 06. 2019 21:30

#	Program:	/corina/corina34_cracker 3.40 0067  02.08.2006

@<TRIPOS>MOLECULE
ASD13010021
  49   52    0    0    0
SMALL
NO_CHARGES


@<TRIPOS>ATOM
   1 C1            -0.0150     1.3432    -0.2800 C.ar    
   2 C2            -0.0030    -0.0187    -0.2332 C.ar    
   3 C3             1.2085    -0.7246    -0.2723 C.ar    
   4 C4             2.4146    -0.0370    -0.3592 C.ar    
   5 C5             1.1823     2.0522    -0.3678 C.ar    
   6 N6             1.4852     3.3884    -0.4308 N.pl3   
   7 C7             2.4069     1.3550    -0.4074 C.ar    
   8 C8             3.4569     2.3742    -0.4982 C.2     
   9 N9             2.8726     3.5440    -0.5095 N.2     
  10 C10            0.5564     4.4275    -0.4188 C.ar    
  11 S11            5.1918     2.0768    -0.5778 S.3     
  12 C12            5.8600     3.6898    -0.8156 C.ar    
  13 C13            5.9313     4.5791     0.2516 C.ar    
  14 C14            6.3220     4.0741    -2.0677 C.ar    
  15 C15            6.8456     5.3404    -2.2507 C.ar    
  16 C16            6.9101     6.2244    -1.1879 C.ar    
  17 C17            6.4557     5.8430     0.0616 C.ar    
  18 C18           -1.2909     6.4932    -0.3937 C.ar    
  19 C19           -1.5992     5.2851    -1.0267 C.ar    
  20 C20           -0.6797     4.2611    -1.0367 C.ar    
  21 C21            0.8649     5.6273     0.2161 C.ar    
  22 C22           -0.0503     6.6551     0.2306 C.ar    
  23 C23           -2.2735     7.5925    -0.3810 C.2     
  24 O24           -3.3525     7.4491    -0.9210 O.2     
  25 O25           -1.9749     8.7561     0.2295 O.3     
  26 C26            1.2036    -2.2000    -0.2205 C.2     
  27 O27            0.2965    -2.8234    -0.7370 O.2     
  28 N28            2.2047    -2.8559     0.3993 N.am    
  29 C29            2.2650    -4.3187     0.3467 C.3     
  30 C30            3.2325    -2.1060     1.1256 C.3     
  31 Cl31           5.3613     4.1015     1.8203 Cl      
  32 Cl32           7.4233     5.8221    -3.8153 Cl      
  33 H33           -0.9548     1.8746    -0.2537 H       
  34 H34           -0.9352    -0.5597    -0.1649 H       
  35 H35            3.3490    -0.5778    -0.3888 H       
  36 H36            6.2726     3.3845    -2.8974 H       
  37 H37            7.3202     7.2128    -1.3334 H       
  38 H38            6.5110     6.5340     0.8898 H       
  39 H39           -2.5567     5.1566    -1.5096 H       
  40 H40           -0.9174     3.3275    -1.5248 H       
  41 H41            1.8233     5.7516     0.6981 H       
  42 H42            0.1911     7.5870     0.7202 H       
  43 H43           -2.6508     9.4474     0.2116 H       
  44 H44            2.8456    -4.6274    -0.5227 H       
  45 H45            2.7393    -4.6956     1.2528 H       
  46 H46            1.2550    -4.7215     0.2708 H       
  47 H47            2.9706    -1.0480     1.1368 H       
  48 H48            3.2966    -2.4753     2.1491 H       
  49 H49            4.1951    -2.2368     0.6312 H       
@<TRIPOS>BOND
   1    1    2 ar
   2    1    5 ar
   3    1   33 1
   4    2    3 ar
   5    2   34 1
   6    3    4 ar
   7    3   26 1
   8    4    7 ar
   9    4   35 1
  10    5    7 ar
  11    5    6 1
  12    6    9 1
  13    6   10 1
  14    7    8 1
  15    8    9 2
  16    8   11 1
  17   10   21 ar
  18   10   20 ar
  19   11   12 1
  20   12   14 ar
  21   12   13 ar
  22   13   17 ar
  23   13   31 1
  24   14   15 ar
  25   14   36 1
  26   15   16 ar
  27   15   32 1
  28   16   17 ar
  29   16   37 1
  30   17   38 1
  31   18   19 ar
  32   18   22 ar
  33   18   23 1
  34   19   20 ar
  35   19   39 1
  36   20   40 1
  37   21   22 ar
  38   21   41 1
  39   22   42 1
  40   23   24 2
  41   23   25 1
  42   25   43 1
  43   26   27 2
  44   26   28 am
  45   28   29 1
  46   28   30 1
  47   29   44 1
  48   29   45 1
  49   29   46 1
  50   30   47 1
  51   30   48 1
  52   30   49 1

#	End of record

