#	Name: ASD10950038
#	Creating user name:	WinNT
#	Creation time:	15. 06. 2019 21:28

#	Modifying user name:	WinNT
#	Modification time:	15. 06. 2019 21:28

#	Program:	/corina/corina34_cracker 3.40 0067  02.08.2006

@<TRIPOS>MOLECULE
ASD10950038
  56   59    0    0    0
SMALL
NO_CHARGES


@<TRIPOS>ATOM
   1 C1             0.9926     1.3615    -0.2646 C.3     
   2 O2             0.9707    -0.0897    -0.3098 O.3     
   3 C3             0.9417    -0.7379     0.8707 C.2     
   4 O4             0.9350    -0.1082     1.9094 O.2     
   5 C5             0.9181    -2.2147     0.9021 C.ar    
   6 C6             0.9257    -2.9415    -0.2899 C.ar    
   7 C7             0.9036    -4.3205    -0.2533 C.ar    
   8 C8             0.8733    -4.9831     0.9608 C.ar    
   9 C9             0.8656    -4.2688     2.1461 C.ar    
  10 C10            0.8939    -2.8900     2.1242 C.ar    
  11 C11            0.8326    -4.9992     3.4638 C.3     
  12 C12            0.8482    -6.4895     0.9928 C.3     
  13 N13           -0.3015    -6.9911     0.2312 N.am    
  14 C14           -1.7114    -6.7143     0.5174 C.3     
  15 C15           -2.1408    -5.4426    -0.2168 C.3     
  16 C16           -3.5745    -5.1262     0.1230 C.2     
  17 C17           -4.6592    -5.4757    -0.5865 C.2     
  18 N18           -5.7893    -5.0139     0.0314 N.pl3   
  19 C19           -5.4508    -4.3389     1.1827 C.ar    
  20 C20           -4.0492    -4.3843     1.2935 C.ar    
  21 C21           -3.4161    -3.7744     2.3783 C.ar    
  22 C22           -4.1625    -3.1358     3.3279 C.ar    
  23 C23           -5.5460    -3.0886     3.2234 C.ar    
  24 C24           -6.1913    -3.6865     2.1633 C.ar    
  25 C25            0.1671    -7.7493    -0.7765 C.2     
  26 O26           -0.5217    -8.3174    -1.6002 O.2     
  27 C27            1.6455    -7.7882    -0.7334 C.2     
  28 C28            2.0789    -7.0439     0.3139 C.2     
  29 C29            3.4238    -6.8281     0.6971 C.2     
  30 O30            4.3273    -7.2297    -0.0069 O.2     
  31 C31            3.7345    -6.0995     1.9792 C.3     
  32 O32            2.4376    -8.4582    -1.5999 O.3     
  33 H33            1.8795     1.6948     0.2744 H       
  34 H34            1.0150     1.7563    -1.2803 H       
  35 H35            0.0999     1.7226     0.2460 H       
  36 H36            0.9486    -2.4255    -1.2383 H       
  37 H37            0.9094    -4.8841    -1.1746 H       
  38 H38            0.8882    -2.3337     3.0499 H       
  39 H39            1.8460    -5.2836     3.7471 H       
  40 H40            0.4105    -4.3483     4.2295 H       
  41 H41            0.2175    -5.8939     3.3680 H       
  42 H42            0.7972    -6.8412     2.0232 H       
  43 H43           -2.3218    -7.5522     0.1804 H       
  44 H44           -1.8440    -6.5767     1.5905 H       
  45 H45           -1.5032    -4.6133     0.0895 H       
  46 H46           -2.0474    -5.5948    -1.2921 H       
  47 H47           -4.6422    -6.0375    -1.5087 H       
  48 H48           -6.6942    -5.1427    -0.2935 H       
  49 H49           -2.3402    -3.8077     2.4666 H       
  50 H50           -3.6723    -2.6642     4.1668 H       
  51 H51           -6.1224    -2.5803     3.9822 H       
  52 H52           -7.2680    -3.6443     2.0909 H       
  53 H53            2.8068    -5.7507     2.4327 H       
  54 H54            4.2435    -6.7750     2.6667 H       
  55 H55            4.3778    -5.2460     1.7654 H       
  56 H56            1.9531    -8.9361    -2.2869 H       
@<TRIPOS>BOND
   1    1    2 1
   2    1   33 1
   3    1   34 1
   4    1   35 1
   5    2    3 1
   6    3    4 2
   7    3    5 1
   8    5    6 ar
   9    5   10 ar
  10    6    7 ar
  11    6   36 1
  12    7    8 ar
  13    7   37 1
  14    8    9 ar
  15    8   12 1
  16    9   10 ar
  17    9   11 1
  18   10   38 1
  19   11   39 1
  20   11   40 1
  21   11   41 1
  22   12   13 1
  23   12   28 1
  24   12   42 1
  25   13   14 1
  26   13   25 am
  27   14   15 1
  28   14   43 1
  29   14   44 1
  30   15   16 1
  31   15   45 1
  32   15   46 1
  33   16   17 2
  34   16   20 1
  35   17   18 1
  36   17   47 1
  37   18   19 1
  38   18   48 1
  39   19   20 ar
  40   19   24 ar
  41   20   21 ar
  42   21   22 ar
  43   21   49 1
  44   22   23 ar
  45   22   50 1
  46   23   24 ar
  47   23   51 1
  48   24   52 1
  49   25   26 2
  50   25   27 1
  51   27   28 2
  52   27   32 1
  53   28   29 1
  54   29   30 2
  55   29   31 1
  56   31   53 1
  57   31   54 1
  58   31   55 1
  59   32   56 1

#	End of record

