#	Name: ASD10160415
#	Creating user name:	WinNT
#	Creation time:	15. 06. 2019 21:25

#	Modifying user name:	WinNT
#	Modification time:	15. 06. 2019 21:25

#	Program:	/corina/corina34_cracker 3.40 0067  02.08.2006

@<TRIPOS>MOLECULE
ASD10160415
  47   48    0    0    0
SMALL
NO_CHARGES


@<TRIPOS>ATOM
   1 C1            -1.9664     1.0730     0.3915 C.2     
   2 C2            -1.4346    -0.2948     0.2832 C.ar    
   3 C3            -0.7424    -0.8677     1.3589 C.ar    
   4 C4            -0.2464    -2.1516     1.2510 C.ar    
   5 C5            -0.4324    -2.8753     0.0772 C.ar    
   6 C6            -1.1178    -2.3115    -0.9916 C.ar    
   7 C7            -1.6231    -1.0315    -0.8934 C.ar    
   8 O8            -1.2812     2.0197     0.0574 O.2     
   9 O9            -3.2154     1.2756     0.8560 O.3     
  10 F10           -2.2941    -0.4874    -1.9321 F       
  11 F11            0.4211    -2.7060     2.2866 F       
  12 F12           -0.5608    -0.1652     2.4985 F       
  13 O13            0.0580    -4.1368    -0.0240 O.3     
  14 C14           -1.1531    -5.5577    -1.5041 C.ar    
  15 C15           -0.0490    -4.7689    -1.2231 C.ar    
  16 C16            0.9492    -4.6312    -2.1838 C.ar    
  17 C17            0.7981    -5.2928    -3.3908 C.ar    
  18 C18           -0.3369    -6.0665    -3.6012 C.ar    
  19 N19           -1.2645    -6.1741    -2.6654 N.ar    
  20 O20           -0.4950    -6.7194    -4.7812 O.3     
  21 C21           -1.6825    -7.4987    -4.9375 C.3     
  22 C22           -2.7885    -6.6282    -5.5374 C.3     
  23 C23           -1.3995    -8.6782    -5.8700 C.3     
  24 Cl24           2.0107    -5.1569    -4.6256 Cl      
  25 C25           -3.6740     2.6510     0.9357 C.3     
  26 C26           -3.6471     3.2792    -0.4592 C.3     
  27 C27           -5.1031     2.6812     1.4812 C.3     
  28 C28           -2.7550     3.4417     1.8690 C.3     
  29 H29           -1.2587    -2.8781    -1.9002 H       
  30 H30           -1.9293    -5.6729    -0.7621 H       
  31 H31            1.8205    -4.0226    -1.9923 H       
  32 H32           -2.0021    -7.8730    -3.9649 H       
  33 H33           -2.9902    -5.7879    -4.8730 H       
  34 H34           -2.4690    -6.2539    -6.5100 H       
  35 H35           -3.6944    -7.2226    -5.6566 H       
  36 H36           -0.6116    -9.2983    -5.4426 H       
  37 H37           -2.3054    -9.2726    -5.9892 H       
  38 H38           -1.0800    -8.3039    -6.8426 H       
  39 H39           -4.3018     2.7158    -1.1240 H       
  40 H40           -3.9914     4.3116    -0.3993 H       
  41 H41           -2.6290     3.2576    -0.8478 H       
  42 H42           -5.1223     2.2337     2.4749 H       
  43 H43           -5.4474     3.7137     1.5410 H       
  44 H44           -5.7578     2.1178     0.8163 H       
  45 H45           -1.7369     3.4202     1.4803 H       
  46 H46           -3.0993     4.4742     1.9288 H       
  47 H47           -2.7742     2.9942     2.8627 H       
@<TRIPOS>BOND
   1    1    2 1
   2    1    8 2
   3    1    9 1
   4    2    3 ar
   5    2    7 ar
   6    3    4 ar
   7    3   12 1
   8    4    5 ar
   9    4   11 1
  10    5    6 ar
  11    5   13 1
  12    6    7 ar
  13    6   29 1
  14    7   10 1
  15    9   25 1
  16   13   15 1
  17   14   15 ar
  18   14   19 ar
  19   14   30 1
  20   15   16 ar
  21   16   17 ar
  22   16   31 1
  23   17   18 ar
  24   17   24 1
  25   18   19 ar
  26   18   20 1
  27   20   21 1
  28   21   22 1
  29   21   23 1
  30   21   32 1
  31   22   33 1
  32   22   34 1
  33   22   35 1
  34   23   36 1
  35   23   37 1
  36   23   38 1
  37   25   26 1
  38   25   28 1
  39   25   27 1
  40   26   39 1
  41   26   40 1
  42   26   41 1
  43   27   42 1
  44   27   43 1
  45   27   44 1
  46   28   45 1
  47   28   46 1
  48   28   47 1

#	End of record

