#	Name: ASD10610025
#	Creating user name:	WinNT
#	Creation time:	15. 06. 2019 21:27

#	Modifying user name:	WinNT
#	Modification time:	15. 06. 2019 21:27

#	Program:	/corina/corina34_cracker 3.40 0067  02.08.2006

@<TRIPOS>MOLECULE
ASD10610025
  55   59    0    0    0
SMALL
NO_CHARGES


@<TRIPOS>ATOM
   1 C1            -0.2533     1.7307     0.0319 C.ar    
   2 C2            -0.3950     0.3451     0.0812 C.ar    
   3 C3             0.7559    -0.4469     0.1214 C.ar    
   4 C4             1.9901     0.1811     0.1108 C.ar    
   5 C5             2.0508     1.5623     0.0614 C.ar    
   6 N6             0.9409     2.2822     0.0238 N.ar    
   7 C7             3.4996     2.0061     0.0604 C.3     
   8 C8            -1.7407    -0.2768     0.0911 C.ar    
   9 C9            -2.0424    -1.3053    -0.7966 C.ar    
  10 C10           -3.2978    -1.8831    -0.7850 C.ar    
  11 C11           -4.2622    -1.4447     0.1070 C.ar    
  12 C12           -3.9790    -0.4239     0.9957 C.ar    
  13 C13           -2.7153     0.1649     1.0000 C.ar    
  14 F14           -4.9247    -0.0009     1.8629 F       
  15 Cl15          -3.6681    -3.1653    -1.8952 Cl      
  16 C16           -2.4062     1.2592     1.9508 C.2     
  17 N17           -1.2335     1.9008     2.0492 N.2     
  18 C18           -1.3030     2.8073     2.9878 C.2     
  19 N19           -2.5373     2.7695     3.5215 N.pl3   
  20 N20           -3.2390     1.7657     2.8343 N.2     
  21 N21            3.8901     2.4692     1.3942 N.am    
  22 C22            3.6717     3.7497     1.7537 C.2     
  23 O23            3.2362     4.5410     0.9442 O.2     
  24 C24            3.9686     4.1983     3.1614 C.3     
  25 N25            5.1447     3.5864     3.7848 N.am    
  26 C26            3.6544     5.6519     3.5207 C.3     
  27 C27            2.7776     4.5217     4.0658 C.3     
  28 C28            6.3496     3.6816     3.1885 C.2     
  29 C29            7.5370     2.9579     3.7693 C.3     
  30 O30            6.4783     4.3497     2.1845 O.2     
  31 F31            8.6661     3.2073     2.9818 F       
  32 F32            7.7680     3.4116     5.0724 F       
  33 F33            7.2794     1.5831     3.7930 F       
  34 C34            3.3879    -0.3957     0.1445 C.3     
  35 C35            4.3079     0.7502    -0.3280 C.3     
  36 C36           -3.0503     3.6132     4.6036 C.3     
  37 H37           -1.1322     2.3573    -0.0044 H       
  38 H38            0.6844    -1.5238     0.1603 H       
  39 H39            3.6520     2.7974    -0.6736 H       
  40 H40           -1.2952    -1.6519    -1.4951 H       
  41 H41           -5.2405    -1.9022     0.1083 H       
  42 H42           -0.5060     3.4731     3.2843 H       
  43 H43            4.3058     1.8543     2.0187 H       
  44 H44            5.0562     3.1127     4.6266 H       
  45 H45            4.3226     6.1529     4.2212 H       
  46 H46            3.2330     6.2838     2.7389 H       
  47 H47            1.7793     4.4105     3.6425 H       
  48 H48            2.8692     4.2796     5.1246 H       
  49 H49            3.6487    -0.6964     1.1592 H       
  50 H50            3.4630    -1.2455    -0.5339 H       
  51 H51            4.4598     0.7054    -1.4064 H       
  52 H52            5.2611     0.7244     0.2000 H       
  53 H53           -3.4972     4.5135     4.1818 H       
  54 H54           -3.8040     3.0632     5.1671 H       
  55 H55           -2.2313     3.8909     5.2672 H       
@<TRIPOS>BOND
   1    1    2 ar
   2    1    6 ar
   3    1   37 1
   4    2    3 ar
   5    2    8 1
   6    3    4 ar
   7    3   38 1
   8    4    5 ar
   9    4   34 1
  10    5    6 ar
  11    5    7 1
  12    7   21 1
  13    7   35 1
  14    7   39 1
  15    8    9 ar
  16    8   13 ar
  17    9   10 ar
  18    9   40 1
  19   10   11 ar
  20   10   15 1
  21   11   12 ar
  22   11   41 1
  23   12   13 ar
  24   12   14 1
  25   13   16 1
  26   16   17 1
  27   16   20 2
  28   17   18 2
  29   18   19 1
  30   18   42 1
  31   19   20 1
  32   19   36 1
  33   21   22 am
  34   21   43 1
  35   22   23 2
  36   22   24 1
  37   24   25 1
  38   24   26 1
  39   24   27 1
  40   25   28 am
  41   25   44 1
  42   26   27 1
  43   26   45 1
  44   26   46 1
  45   27   47 1
  46   27   48 1
  47   28   29 1
  48   28   30 2
  49   29   31 1
  50   29   32 1
  51   29   33 1
  52   34   35 1
  53   34   49 1
  54   34   50 1
  55   35   51 1
  56   35   52 1
  57   36   53 1
  58   36   54 1
  59   36   55 1

#	End of record

