#	Name: ASD10420165
#	Creating user name:	WinNT
#	Creation time:	15. 06. 2019 21:27

#	Modifying user name:	WinNT
#	Modification time:	15. 06. 2019 21:27

#	Program:	/corina/corina34_cracker 3.40 0067  02.08.2006

@<TRIPOS>MOLECULE
ASD10420165
  28   29    0    0    0
SMALL
NO_CHARGES


@<TRIPOS>ATOM
   1 C1             0.8273     0.2378     1.4463 C.ar    
   2 C2            -0.0131     0.0701     0.3571 C.ar    
   3 C3             2.0459     0.8679     1.2985 C.ar    
   4 C4             0.3586     0.5309    -0.8869 C.ar    
   5 C5             4.9414     4.0032    -0.3931 C.ar    
   6 C6             2.5708     4.1254    -0.0059 C.ar    
   7 C7             1.9933     1.6669    -2.3808 C.2     
   8 C8             3.7258     3.3711    -0.1661 C.ar    
   9 C9             5.0011     5.3824    -0.4594 C.ar    
  10 C10            2.6316     5.5046    -0.0725 C.ar    
  11 C11            3.8466     6.1357    -0.2993 C.ar    
  12 C12            2.4390     1.3397     0.0521 C.ar    
  13 C13            1.5896     1.1713    -1.0539 C.ar    
  14 N14            3.6647     1.9746    -0.0993 N.pl3   
  15 O15            3.1048     2.1302    -2.5440 O.2     
  16 O16            1.1300     1.6065    -3.4140 O.3     
  17 O17            3.9060     7.4932    -0.3643 O.3     
  18 Cl18           6.5207     6.1726    -0.7426 Cl      
  19 Cl19           1.1879     6.4476     0.1277 Cl      
  20 H20            0.5245    -0.1231     2.4181 H       
  21 H21           -0.9646    -0.4249     0.4841 H       
  22 H22            2.6947     0.9949     2.1525 H       
  23 H23           -0.3002     0.3971    -1.7321 H       
  24 H24            5.8406     3.4172    -0.5133 H       
  25 H25            1.6252     3.6344     0.1703 H       
  26 H26            4.4785     1.4501    -0.1587 H       
  27 H27            1.4402     1.9439    -4.2655 H       
  28 H28            3.7793     7.8503    -1.2539 H       
@<TRIPOS>BOND
   1    1    2 ar
   2    1    3 ar
   3    1   20 1
   4    2    4 ar
   5    2   21 1
   6    3   12 ar
   7    3   22 1
   8    4   13 ar
   9    4   23 1
  10    5    8 ar
  11    5    9 ar
  12    5   24 1
  13    6    8 ar
  14    6   10 ar
  15    6   25 1
  16    7   13 1
  17    7   15 2
  18    7   16 1
  19    8   14 1
  20    9   11 ar
  21    9   18 1
  22   10   11 ar
  23   10   19 1
  24   11   17 1
  25   12   13 ar
  26   12   14 1
  27   14   26 1
  28   16   27 1
  29   17   28 1

#	End of record

