#	Name: ASD10950077
#	Creating user name:	WinNT
#	Creation time:	15. 06. 2019 21:28

#	Modifying user name:	WinNT
#	Modification time:	15. 06. 2019 21:28

#	Program:	/corina/corina34_cracker 3.40 0067  02.08.2006

@<TRIPOS>MOLECULE
ASD10950077
  52   56    0    0    0
SMALL
NO_CHARGES


@<TRIPOS>ATOM
   1 O1             0.4034     0.2760    -1.2826 O.2     
   2 C2             0.4669     0.9823    -0.2940 C.2     
   3 C3             1.5484     1.9630    -0.1621 C.2     
   4 C4             2.8690     1.6959    -0.0321 C.2     
   5 O5             3.4197     0.4607    -0.0018 O.3     
   6 C6             3.6138     2.9687     0.0709 C.2     
   7 O7             4.8186     3.0635     0.1959 O.2     
   8 N8             2.7604     4.0067     0.0050 N.am    
   9 C9             1.4046     3.4670    -0.1516 C.3     
  10 C10            0.8022     3.9470    -1.4469 C.ar    
  11 C11           -0.4767     4.4813    -1.4707 C.ar    
  12 C12           -0.9901     4.9106    -2.6853 C.ar    
  13 C13           -0.2154     4.7924    -3.8233 C.ar    
  14 N14            0.9977     4.2784    -3.7632 N.ar    
  15 C15            1.5201     3.8654    -2.6252 C.ar    
  16 C16            3.1211     5.4250     0.0724 C.3     
  17 C17            3.3941     5.9494    -1.3388 C.3     
  18 C18            3.7652     7.4084    -1.2695 C.2     
  19 C19            2.9353     8.4517    -1.4265 C.2     
  20 N20            3.6294     9.6236    -1.2953 N.pl3   
  21 C21            4.9565     9.3560    -1.0443 C.ar    
  22 C22            5.0988     7.9569    -1.0117 C.ar    
  23 C23            6.3520     7.3896    -0.7726 C.ar    
  24 C24            7.4352     8.1976    -0.5714 C.ar    
  25 C25            7.2999     9.5790    -0.6021 C.ar    
  26 C26            6.0723    10.1597    -0.8329 C.ar    
  27 C27           -0.5503     0.8556     0.7716 C.ar    
  28 C28           -1.6550     0.0110     0.6049 C.ar    
  29 C29           -2.5778    -0.0720     1.6325 C.ar    
  30 C30           -2.3820     0.6745     2.7806 C.ar    
  31 N31           -1.3313     1.4625     2.9103 N.ar    
  32 C32           -0.4229     1.5717     1.9636 C.ar    
  33 H33            4.3817     0.4613     0.0970 H       
  34 H34            0.7805     3.7721     0.6884 H       
  35 H35           -1.0596     4.5610    -0.5650 H       
  36 H36           -1.9831     5.3317    -2.7410 H       
  37 H37           -0.6079     5.1244    -4.7731 H       
  38 H38            2.5170     3.4498    -2.6152 H       
  39 H39            2.3004     5.9880     0.5167 H       
  40 H40            4.0159     5.5436     0.6834 H       
  41 H41            4.2149     5.3864    -1.7832 H       
  42 H42            2.4993     5.8307    -1.9499 H       
  43 H43            1.8768     8.3772    -1.6273 H       
  44 H44            3.2440    10.5107    -1.3686 H       
  45 H45            6.4647     6.3158    -0.7466 H       
  46 H46            8.4043     7.7583    -0.3865 H       
  47 H47            8.1653    10.2046    -0.4409 H       
  48 H48            5.9773    11.2353    -0.8550 H       
  49 H49           -1.7834    -0.5606    -0.3024 H       
  50 H50           -3.4422    -0.7127     1.5392 H       
  51 H51           -3.1010     0.6117     3.5840 H       
  52 H52            0.4234     2.2273     2.1067 H       
@<TRIPOS>BOND
   1    1    2 2
   2    2    3 1
   3    2   27 1
   4    3    4 2
   5    3    9 1
   6    4    5 1
   7    4    6 1
   8    5   33 1
   9    6    7 2
  10    6    8 am
  11    8    9 1
  12    8   16 1
  13    9   10 1
  14    9   34 1
  15   10   11 ar
  16   10   15 ar
  17   11   12 ar
  18   11   35 1
  19   12   13 ar
  20   12   36 1
  21   13   14 ar
  22   13   37 1
  23   14   15 ar
  24   15   38 1
  25   16   17 1
  26   16   39 1
  27   16   40 1
  28   17   18 1
  29   17   41 1
  30   17   42 1
  31   18   19 2
  32   18   22 1
  33   19   20 1
  34   19   43 1
  35   20   21 1
  36   20   44 1
  37   21   22 ar
  38   21   26 ar
  39   22   23 ar
  40   23   24 ar
  41   23   45 1
  42   24   25 ar
  43   24   46 1
  44   25   26 ar
  45   25   47 1
  46   26   48 1
  47   27   28 ar
  48   27   32 ar
  49   28   29 ar
  50   28   49 1
  51   29   30 ar
  52   29   50 1
  53   30   31 ar
  54   30   51 1
  55   31   32 ar
  56   32   52 1

#	End of record

