#	Name: ASD16720002
#	Creating user name:	WinNT
#	Creation time:	15. 06. 2019 21:31

#	Modifying user name:	WinNT
#	Modification time:	15. 06. 2019 21:31

#	Program:	/corina/corina34_cracker 3.40 0067  02.08.2006

@<TRIPOS>MOLECULE
ASD16720002
  30   30    0    0    0
SMALL
NO_CHARGES


@<TRIPOS>ATOM
   1 C1             0.0070     1.7577     0.1427 C.3     
   2 C2            -1.1243    -0.3794     0.0349 C.3     
   3 C3            -0.7218     2.2075    -1.1257 C.3     
   4 C4            -1.8531     0.0704    -1.2335 C.3     
   5 C5             0.9406    -0.1647     1.2819 C.3     
   6 C6            -2.8983     1.9371    -0.0987 C.3     
   7 C7             1.3117    -1.6374     1.0969 C.3     
   8 C8            -3.4414     3.3419    -0.3679 C.3     
   9 N9             0.1772     0.2983     0.1154 N.3     
  10 N10           -2.0233     1.5298    -1.2062 N.3     
  11 O11            2.2016    -1.7685    -0.0135 O.3     
  12 O12           -4.2823     3.3142    -1.5230 O.3     
  13 H13            0.9848     2.2370     0.1897 H       
  14 H14           -0.5784     2.0392     1.0181 H       
  15 H15           -1.7228    -0.1223     0.9088 H       
  16 H16           -0.9712    -1.4582     0.0036 H       
  17 H17           -0.8749     3.2862    -1.0940 H       
  18 H18           -0.1233     1.9503    -1.9996 H       
  19 H19           -1.2674    -0.2111    -2.1087 H       
  20 H20           -2.8307    -0.4093    -1.2807 H       
  21 H21            0.3341    -0.0530     2.1807 H       
  22 H22            1.8492     0.4293     1.3806 H       
  23 H23           -2.3299     1.9393     0.8314 H       
  24 H24           -3.7289     1.2362    -0.0152 H       
  25 H25            1.8001    -2.0052     1.9992 H       
  26 H26            0.4089    -2.2188     0.9096 H       
  27 H27           -4.0180     3.6797     0.4932 H       
  28 H28           -2.6104     4.0259    -0.5398 H       
  29 H29            2.4792    -2.6779    -0.1898 H       
  30 H30           -4.6625     4.1729    -1.7533 H       
@<TRIPOS>BOND
   1    1    9 1
   2    1   13 1
   3    1   14 1
   4    1    3 1
   5    2    9 1
   6    2   15 1
   7    2   16 1
   8    2    4 1
   9    3   10 1
  10    3   17 1
  11    3   18 1
  12    4   19 1
  13    4   20 1
  14    4   10 1
  15    5    7 1
  16    5   21 1
  17    5   22 1
  18    5    9 1
  19    6   10 1
  20    6   23 1
  21    6   24 1
  22    6    8 1
  23    7   25 1
  24    7   26 1
  25    7   11 1
  26    8   12 1
  27    8   27 1
  28    8   28 1
  29   11   29 1
  30   12   30 1

#	End of record

