#	Name: ASD10950060
#	Creating user name:	WinNT
#	Creation time:	15. 06. 2019 21:28

#	Modifying user name:	WinNT
#	Modification time:	15. 06. 2019 21:28

#	Program:	/corina/corina34_cracker 3.40 0067  02.08.2006

@<TRIPOS>MOLECULE
ASD10950060
  54   57    0    0    0
SMALL
NO_CHARGES


@<TRIPOS>ATOM
   1 C1            -0.0176     1.4478     0.0100 C.3     
   2 O2             0.0021    -0.0041     0.0020 O.3     
   3 C3             0.6204    -0.6130     1.0324 C.2     
   4 O4             1.1291     0.0507     1.9134 O.2     
   5 C5             0.6796    -2.0879     1.0909 C.ar    
   6 C6             1.3197    -2.7223     2.1574 C.ar    
   7 C7             1.3714    -4.0999     2.2057 C.ar    
   8 C8             0.7909    -4.8529     1.2004 C.ar    
   9 C9             0.1550    -4.2307     0.1406 C.ar    
  10 C10            0.0909    -2.8539     0.0828 C.ar    
  11 C11            0.8519    -6.3575     1.2598 C.3     
  12 N12           -0.4256    -6.9314     0.8218 N.am    
  13 C13           -1.7293    -6.7108     1.4526 C.3     
  14 C14           -2.4032    -5.4925     0.8183 C.3     
  15 C15           -3.7442    -5.2655     1.4672 C.2     
  16 C16           -4.9312    -5.7082     1.0232 C.2     
  17 N17           -5.9259    -5.3078     1.8733 N.pl3   
  18 C18           -5.3896    -4.5793     2.9112 C.ar    
  19 C19           -3.9990    -4.5255     2.7054 C.ar    
  20 C20           -3.1863    -3.8436     3.6132 C.ar    
  21 C21           -3.7469    -3.2312     4.6983 C.ar    
  22 C22           -5.1186    -3.2818     4.9062 C.ar    
  23 C23           -5.9385    -3.9519     4.0251 C.ar    
  24 C24           -0.1906    -7.6951    -0.2603 C.2     
  25 O25           -1.0364    -8.3156    -0.8727 O.2     
  26 C26            1.2518    -7.6669    -0.5950 C.2     
  27 C27            1.8990    -6.8728     0.3003 C.2     
  28 C28            3.2798    -6.5861     0.3274 C.2     
  29 O29            4.0167    -7.0691    -0.5081 O.2     
  30 C30            3.8405    -5.6803     1.3933 C.3     
  31 N31            1.8413    -8.3355    -1.6402 N.pl3   
  32 H32            1.0050     1.8251     0.0023 H       
  33 H33           -0.5448     1.8089    -0.8731 H       
  34 H34           -0.5278     1.7993     0.9068 H       
  35 H35            1.7735    -2.1358     2.9425 H       
  36 H36            1.8665    -4.5919     3.0299 H       
  37 H37           -0.2957    -4.8244    -0.6409 H       
  38 H38           -0.4057    -2.3695    -0.7449 H       
  39 H39            1.0802    -6.6829     2.2747 H       
  40 H40           -2.3568    -7.5900     1.3070 H       
  41 H41           -1.5916    -6.5354     2.5196 H       
  42 H42           -1.7756    -4.6132     0.9639 H       
  43 H43           -2.5408    -5.6679    -0.2487 H       
  44 H44           -5.0793    -6.2932     0.1275 H       
  45 H45           -6.8685    -5.5073     1.7612 H       
  46 H46           -2.1183    -3.8006     3.4584 H       
  47 H47           -3.1178    -2.7039     5.4002 H       
  48 H48           -5.5470    -2.7932     5.7688 H       
  49 H49           -7.0044    -3.9855     4.1954 H       
  50 H50            3.0348    -5.3465     2.0472 H       
  51 H51            4.5820    -6.2238     1.9788 H       
  52 H52            4.3103    -4.8154     0.9249 H       
  53 H53            1.3016    -8.8824    -2.2322 H       
  54 H54            2.7973    -8.2606    -1.7863 H       
@<TRIPOS>BOND
   1    1    2 1
   2    1   32 1
   3    1   33 1
   4    1   34 1
   5    2    3 1
   6    3    4 2
   7    3    5 1
   8    5    6 ar
   9    5   10 ar
  10    6    7 ar
  11    6   35 1
  12    7    8 ar
  13    7   36 1
  14    8    9 ar
  15    8   11 1
  16    9   10 ar
  17    9   37 1
  18   10   38 1
  19   11   12 1
  20   11   27 1
  21   11   39 1
  22   12   13 1
  23   12   24 am
  24   13   14 1
  25   13   40 1
  26   13   41 1
  27   14   15 1
  28   14   42 1
  29   14   43 1
  30   15   16 2
  31   15   19 1
  32   16   17 1
  33   16   44 1
  34   17   18 1
  35   17   45 1
  36   18   19 ar
  37   18   23 ar
  38   19   20 ar
  39   20   21 ar
  40   20   46 1
  41   21   22 ar
  42   21   47 1
  43   22   23 ar
  44   22   48 1
  45   23   49 1
  46   24   25 2
  47   24   26 1
  48   26   27 2
  49   26   31 1
  50   27   28 1
  51   28   29 2
  52   28   30 1
  53   30   50 1
  54   30   51 1
  55   30   52 1
  56   31   53 1
  57   31   54 1

#	End of record

