#	Name: ASD10160401
#	Creating user name:	WinNT
#	Creation time:	15. 06. 2019 21:25

#	Modifying user name:	WinNT
#	Modification time:	15. 06. 2019 21:25

#	Program:	/corina/corina34_cracker 3.40 0067  02.08.2006

@<TRIPOS>MOLECULE
ASD10160401
  25   26    0    0    0
SMALL
NO_CHARGES


@<TRIPOS>ATOM
   1 C1            -0.0168     1.3861     0.0097 C.ar    
   2 C2             0.0021    -0.0041     0.0020 C.ar    
   3 C3             1.2210    -0.6607    -0.0131 C.ar    
   4 C4             2.3825     0.0998    -0.0201 C.ar    
   5 C5             2.2883     1.4769    -0.0118 C.ar    
   6 N6             1.1118     2.0749     0.0026 N.ar    
   7 O7            -1.2046     2.0422     0.0188 O.3     
   8 C8            -1.1569     3.4703     0.0264 C.3     
   9 C9            -2.5815     4.0282     0.0361 C.3     
  10 C10           -2.7444     5.5495     0.0451 C.3     
  11 C11           -3.0648     4.7533    -1.2215 C.3     
  12 C12           -3.6079     3.2031     0.8149 C.3     
  13 Cl13          -1.4823    -0.9043     0.0119 Cl      
  14 H14            1.2672    -1.7397    -0.0190 H       
  15 H15            3.3495    -0.3810    -0.0316 H       
  16 H16            3.1890     2.0728    -0.0172 H       
  17 H17           -0.6270     3.8115     0.9157 H       
  18 H18           -0.6354     3.8211    -0.8642 H       
  19 H19           -3.5831     5.9625     0.6056 H       
  20 H20           -1.8367     6.1529     0.0441 H       
  21 H21           -2.3679     4.8329    -2.0558 H       
  22 H22           -4.1143     4.6425    -1.4943 H       
  23 H23           -3.5807     3.4883     1.8666 H       
  24 H24           -4.6040     3.3897     0.4136 H       
  25 H25           -3.3703     2.1436     0.7195 H       
@<TRIPOS>BOND
   1    1    2 ar
   2    1    6 ar
   3    1    7 1
   4    2    3 ar
   5    2   13 1
   6    3    4 ar
   7    3   14 1
   8    4    5 ar
   9    4   15 1
  10    5    6 ar
  11    5   16 1
  12    7    8 1
  13    8    9 1
  14    8   17 1
  15    8   18 1
  16    9   10 1
  17    9   11 1
  18    9   12 1
  19   10   11 1
  20   10   19 1
  21   10   20 1
  22   11   21 1
  23   11   22 1
  24   12   23 1
  25   12   24 1
  26   12   25 1

#	End of record

