#	Name: ASD10160481
#	Creating user name:	WinNT
#	Creation time:	15. 06. 2019 21:26

#	Modifying user name:	WinNT
#	Modification time:	15. 06. 2019 21:26

#	Program:	/corina/corina34_cracker 3.40 0067  02.08.2006

@<TRIPOS>MOLECULE
ASD10160481
  32   34    0    0    0
SMALL
NO_CHARGES


@<TRIPOS>ATOM
   1 C1            -2.2229    -2.6010     4.8625 C.2     
   2 C2            -1.6229    -3.0039     3.5781 C.ar    
   3 C3            -0.2987    -3.4544     3.5326 C.ar    
   4 C4             0.2580    -3.8307     2.3290 C.ar    
   5 C5            -0.4934    -3.7627     1.1623 C.ar    
   6 C6            -1.8105    -3.3154     1.2030 C.ar    
   7 C7            -2.3769    -2.9428     2.4021 C.ar    
   8 O8            -1.5676    -2.6596     5.8842 O.2     
   9 O9            -3.4964    -2.1622     4.9032 O.3     
  10 O10            0.0588    -4.1333    -0.0206 O.3     
  11 C11            2.4231    -3.8503    -0.1449 C.ar    
  12 C12            1.3091    -4.6655    -0.0021 C.ar    
  13 C13            1.4904    -6.0350     0.1607 C.ar    
  14 C14            2.7853    -6.5311     0.1736 C.ar    
  15 C15            3.8454    -5.6547     0.0252 C.ar    
  16 N16            3.6379    -4.3614    -0.1272 N.ar    
  17 C17            5.2560    -6.1850     0.0380 C.3     
  18 C18            6.1110    -5.9483    -1.2086 C.3     
  19 C19            6.3944    -5.1635     0.0739 C.3     
  20 Cl20           3.0727    -8.2314     0.3740 Cl      
  21 Cl21          -2.7432    -3.2325    -0.2588 Cl      
  22 Cl22           0.6414    -3.5386     4.9896 Cl      
  23 H23            1.2798    -4.1785     2.2928 H       
  24 H24           -3.4005    -2.6000     2.4333 H       
  25 H25           -3.8462    -1.9093     5.7685 H       
  26 H26            2.2931    -2.7862    -0.2763 H       
  27 H27            0.6436    -6.6955     0.2747 H       
  28 H28            5.4016    -7.1206     0.5779 H       
  29 H29            6.8194    -6.7280    -1.4885 H       
  30 H30            5.6532    -5.4090    -2.0379 H       
  31 H31            6.1232    -4.1079     0.0883 H       
  32 H32            7.2893    -5.4269     0.6377 H       
@<TRIPOS>BOND
   1    1    2 1
   2    1    8 2
   3    1    9 1
   4    2    3 ar
   5    2    7 ar
   6    3    4 ar
   7    3   22 1
   8    4    5 ar
   9    4   23 1
  10    5    6 ar
  11    5   10 1
  12    6    7 ar
  13    6   21 1
  14    7   24 1
  15    9   25 1
  16   10   12 1
  17   11   12 ar
  18   11   16 ar
  19   11   26 1
  20   12   13 ar
  21   13   14 ar
  22   13   27 1
  23   14   15 ar
  24   14   20 1
  25   15   16 ar
  26   15   17 1
  27   17   18 1
  28   17   19 1
  29   17   28 1
  30   18   19 1
  31   18   29 1
  32   18   30 1
  33   19   31 1
  34   19   32 1

#	End of record

