#	Name: ASD13390005
#	Creating user name:	WinNT
#	Creation time:	15. 06. 2019 21:30

#	Modifying user name:	WinNT
#	Modification time:	15. 06. 2019 21:30

#	Program:	/corina/corina34_cracker 3.40 0067  02.08.2006

@<TRIPOS>MOLECULE
ASD13390005
  24   23    0    0    0
SMALL
NO_CHARGES


@<TRIPOS>ATOM
   1 C1            -0.0166     1.3750     0.0096 C.ar    
   2 C2             0.0021    -0.0041     0.0020 C.ar    
   3 C3             1.2240    -0.6831    -0.0133 C.ar    
   4 C4             2.4200     0.0439    -0.0209 C.ar    
   5 C5             2.3841     1.4234    -0.0132 C.ar    
   6 C6             1.1698     2.0872     0.0021 C.ar    
   7 C7             1.2527    -2.1544    -0.0210 C.2     
   8 N8             2.3952    -2.7847    -0.0354 N.2     
   9 N9             2.4203    -4.0745    -0.0421 N.2     
  10 C10            3.5742    -4.7110    -0.0566 C.2     
  11 N11            4.7484    -4.0022    -0.0645 N.pl3   
  12 N12            3.6009    -6.0823    -0.0638 N.pl3   
  13 Cl13           3.9440    -0.7872    -0.0394 Cl      
  14 H14           -0.9601     1.9006     0.0169 H       
  15 H15           -0.9250    -0.5581     0.0083 H       
  16 H16            3.3058     1.9863    -0.0186 H       
  17 H17            1.1480     3.1670     0.0081 H       
  18 H18            0.3281    -2.7126    -0.0148 H       
  19 H19            4.7295    -3.0324    -0.0594 H       
  20 H20            5.5976    -4.4707    -0.0752 H       
  21 H21            2.7705    -6.5836    -0.0582 H       
  22 H22            4.4502    -6.5508    -0.0744 H       
  23 Cl23          10.5976     8.1670     5.0169 Cl      
  24 H24           10.5976     9.5370     5.0169 H       
@<TRIPOS>BOND
   1    1    2 ar
   2    1    6 ar
   3    1   14 1
   4    2    3 ar
   5    2   15 1
   6    3    4 ar
   7    3    7 1
   8    4    5 ar
   9    4   13 1
  10    5    6 ar
  11    5   16 1
  12    6   17 1
  13    7    8 2
  14    7   18 1
  15    8    9 1
  16    9   10 2
  17   10   11 1
  18   10   12 1
  19   11   19 1
  20   11   20 1
  21   12   21 1
  22   12   22 1
  23   23   24 1

#	End of record

