#	Name: ASD10420086
#	Creating user name:	WinNT
#	Creation time:	15. 06. 2019 21:27

#	Modifying user name:	WinNT
#	Modification time:	15. 06. 2019 21:27

#	Program:	/corina/corina34_cracker 3.40 0067  02.08.2006

@<TRIPOS>MOLECULE
ASD10420086
  45   48    0    0    0
SMALL
NO_CHARGES


@<TRIPOS>ATOM
   1 C1            -0.2765     1.6235     0.0589 C.2     
   2 C2            -0.1960     0.2196    -0.0772 C.2     
   3 C3             1.1203    -0.1165    -0.1213 C.2     
   4 N4             1.8844     1.0256    -0.0180 N.pl3   
   5 C5             3.2381     1.2071    -0.0125 C.2     
   6 C6             3.7688     2.4437     0.1020 C.2     
   7 C7             2.9331     3.5650     0.2180 C.2     
   8 C8             1.5782     3.3952     0.2137 C.2     
   9 C9             1.0486     2.1035     0.0934 C.2     
  10 C10           -1.4607     2.3999     0.1391 C.2     
  11 O11           -1.9642     2.6316     1.2226 O.2     
  12 O12           -2.0291     2.8819    -0.9861 O.3     
  13 C13            1.6484    -1.4896    -0.2584 C.ar    
  14 C14            2.5559    -1.7937    -1.2750 C.ar    
  15 C15            3.0450    -3.0777    -1.3974 C.ar    
  16 C16            2.6381    -4.0633    -0.5155 C.ar    
  17 C17            1.7390    -3.7688     0.4942 C.ar    
  18 C18            1.2465    -2.4877     0.6315 C.ar    
  19 C19           -1.3602    -0.7338    -0.1588 C.3     
  20 C20           -1.7125    -0.9739    -1.6042 C.ar    
  21 C21           -2.7308    -1.8497    -1.9308 C.ar    
  22 C22           -3.0545    -2.0698    -3.2587 C.ar    
  23 C23           -2.3575    -1.4120    -4.2583 C.ar    
  24 C24           -1.3400    -0.5369    -3.9294 C.ar    
  25 C25           -1.0211    -0.3140    -2.6026 C.ar    
  26 C26           -3.4879    -2.5651    -0.8418 C.3     
  27 F27           -4.0492    -2.9259    -3.5791 F       
  28 Br28           3.6769     5.2961     0.3795 Br      
  29 H29            3.8917     0.3518    -0.1004 H       
  30 H30            4.8414     2.5701     0.1046 H       
  31 H31            0.9214     4.2480     0.3018 H       
  32 H32           -2.8316     3.3986    -0.8311 H       
  33 H33            2.8740    -1.0254    -1.9642 H       
  34 H34            3.7467    -3.3143    -2.1834 H       
  35 H35            3.0238    -5.0670    -0.6160 H       
  36 H36            1.4253    -4.5429     1.1789 H       
  37 H37            0.5485    -2.2580     1.4230 H       
  38 H38           -1.0892    -1.6792     0.3111 H       
  39 H39           -2.2185    -0.3042     0.3579 H       
  40 H40           -2.6089    -1.5832    -5.2946 H       
  41 H41           -0.7963    -0.0238    -4.7089 H       
  42 H42           -0.2286     0.3736    -2.3464 H       
  43 H43           -4.3695    -1.9844    -0.5705 H       
  44 H44           -3.7960    -3.5479    -1.1988 H       
  45 H45           -2.8460    -2.6806     0.0315 H       
@<TRIPOS>BOND
   1    1    2 1
   2    1    9 2
   3    1   10 1
   4    2    3 2
   5    2   19 1
   6    3    4 1
   7    3   13 1
   8    4    5 1
   9    4    9 1
  10    5    6 2
  11    5   29 1
  12    6    7 1
  13    6   30 1
  14    7    8 2
  15    7   28 1
  16    8    9 1
  17    8   31 1
  18   10   11 2
  19   10   12 1
  20   12   32 1
  21   13   14 ar
  22   13   18 ar
  23   14   15 ar
  24   14   33 1
  25   15   16 ar
  26   15   34 1
  27   16   17 ar
  28   16   35 1
  29   17   18 ar
  30   17   36 1
  31   18   37 1
  32   19   20 1
  33   19   38 1
  34   19   39 1
  35   20   21 ar
  36   20   25 ar
  37   21   22 ar
  38   21   26 1
  39   22   23 ar
  40   22   27 1
  41   23   24 ar
  42   23   40 1
  43   24   25 ar
  44   24   41 1
  45   25   42 1
  46   26   43 1
  47   26   44 1
  48   26   45 1

#	End of record

