#	Name: ASD10410263
#	Creating user name:	WinNT
#	Creation time:	15. 06. 2019 21:27

#	Modifying user name:	WinNT
#	Modification time:	15. 06. 2019 21:27

#	Program:	/corina/corina34_cracker 3.40 0067  02.08.2006

@<TRIPOS>MOLECULE
ASD10410263
  67   72    0    0    0
SMALL
NO_CHARGES


@<TRIPOS>ATOM
   1 C1             0.0490     1.5216     0.0515 C.ar    
   2 C2            -0.0580     0.1377     0.0461 C.ar    
   3 C3             1.0878    -0.6477    -0.0031 C.ar    
   4 C4             2.3327    -0.0505    -0.0465 C.ar    
   5 C5             2.4389     1.3345    -0.0409 C.ar    
   6 C6             1.2940     2.1185     0.0082 C.ar    
   7 Cl7            0.9544    -2.3785    -0.0094 Cl      
   8 N8             3.7007     1.9400    -0.0849 N.pl3   
   9 C9             3.8562     3.1841    -0.6954 C.2     
  10 N10            4.9583     3.8947    -0.7028 N.2     
  11 N11            2.9061     3.8402    -1.3719 N.2     
  12 C12            3.3861     4.9815    -1.8171 C.2     
  13 N13            4.6845     5.0694    -1.4219 N.pl3   
  14 C14            5.5661     6.1154    -1.6788 C.ar    
  15 N15            2.6953     5.9215    -2.5572 N.pl3   
  16 C16            6.3548     6.6491    -0.6373 C.ar    
  17 N17            5.6717     6.6080    -2.8974 N.ar    
  18 C18            6.4948     7.6028    -3.1983 C.ar    
  19 C19            7.2923     8.1870    -2.2622 C.ar    
  20 C20            7.2420     7.7140    -0.9370 C.ar    
  21 C21            8.0316     8.2639     0.0827 C.ar    
  22 C22            7.9382     7.7635     1.3467 C.ar    
  23 C23            7.0707     6.7139     1.6403 C.ar    
  24 C24            6.2854     6.1597     0.6741 C.ar    
  25 N25           -1.3202    -0.4673     0.0905 N.3     
  26 C26           -1.6091    -1.1758    -1.1641 C.3     
  27 C27           -2.9589    -1.8875    -1.0458 C.3     
  28 N28           -4.0060    -0.9000    -0.7489 N.3     
  29 C29           -3.7171    -0.1915     0.5057 C.3     
  30 C30           -2.3673     0.5202     0.3874 C.3     
  31 C31           -5.3301    -1.5346    -0.7023 C.3     
  32 C32           -6.3747    -0.5038    -0.2696 C.3     
  33 C33           -7.7537    -1.1647    -0.2210 C.3     
  34 C34           -8.1111    -1.7015    -1.6085 C.3     
  35 C35           -7.0665    -2.7323    -2.0411 C.3     
  36 C36           -5.6875    -2.0714    -2.0897 C.3     
  37 H37           -0.8414     2.1318     0.0852 H       
  38 H38            3.2232    -0.6603    -0.0843 H       
  39 H39            1.3768     3.1953     0.0125 H       
  40 H40            4.4667     1.4941     0.3093 H       
  41 H41            1.7673     5.7666    -2.7931 H       
  42 H42            3.1383     6.7365    -2.8409 H       
  43 H43            6.5341     7.9603    -4.2167 H       
  44 H44            7.9547     8.9961    -2.5322 H       
  45 H45            8.7086     9.0775    -0.1320 H       
  46 H46            8.5463     8.1867     2.1326 H       
  47 H47            7.0168     6.3357     2.6504 H       
  48 H48            5.6172     5.3466     0.9165 H       
  49 H49           -1.6460    -0.4604    -1.9856 H       
  50 H50           -0.8265    -1.9100    -1.3556 H       
  51 H51           -3.1888    -2.3899    -1.9854 H       
  52 H52           -2.9135    -2.6222    -0.2419 H       
  53 H53           -4.4997     0.5427     0.6973 H       
  54 H54           -3.6803    -0.9069     1.3273 H       
  55 H55           -2.1375     1.0226     1.3271 H       
  56 H56           -2.4128     1.2549    -0.4165 H       
  57 H57           -5.3137    -2.3573     0.0125 H       
  58 H58           -6.1201    -0.1214     0.7188 H       
  59 H59           -6.3910     0.3189    -0.9844 H       
  60 H60           -7.7373    -1.9875     0.4938 H       
  61 H61           -8.4979    -0.4304     0.0872 H       
  62 H62           -9.0936    -2.1724    -1.5739 H       
  63 H63           -8.1275    -0.8788    -2.3232 H       
  64 H64           -7.0502    -3.5551    -1.3264 H       
  65 H65           -7.3212    -3.1148    -3.0296 H       
  66 H66           -5.7039    -1.2487    -2.8045 H       
  67 H67           -4.9433    -2.8058    -2.3980 H       
@<TRIPOS>BOND
   1    1    2 ar
   2    1    6 ar
   3    1   37 1
   4    2    3 ar
   5    2   25 1
   6    3    4 ar
   7    3    7 1
   8    4    5 ar
   9    4   38 1
  10    5    6 ar
  11    5    8 1
  12    6   39 1
  13    8    9 1
  14    8   40 1
  15    9   10 2
  16    9   11 1
  17   10   13 1
  18   11   12 2
  19   12   13 1
  20   12   15 1
  21   13   14 1
  22   14   16 ar
  23   14   17 ar
  24   15   41 1
  25   15   42 1
  26   16   20 ar
  27   16   24 ar
  28   17   18 ar
  29   18   19 ar
  30   18   43 1
  31   19   20 ar
  32   19   44 1
  33   20   21 ar
  34   21   22 ar
  35   21   45 1
  36   22   23 ar
  37   22   46 1
  38   23   24 ar
  39   23   47 1
  40   24   48 1
  41   25   26 1
  42   25   30 1
  43   26   27 1
  44   26   49 1
  45   26   50 1
  46   27   28 1
  47   27   51 1
  48   27   52 1
  49   28   29 1
  50   28   31 1
  51   29   30 1
  52   29   53 1
  53   29   54 1
  54   30   55 1
  55   30   56 1
  56   31   32 1
  57   31   36 1
  58   31   57 1
  59   32   33 1
  60   32   58 1
  61   32   59 1
  62   33   34 1
  63   33   60 1
  64   33   61 1
  65   34   35 1
  66   34   62 1
  67   34   63 1
  68   35   36 1
  69   35   64 1
  70   35   65 1
  71   36   66 1
  72   36   67 1

#	End of record

