#	Name: ASD10410238
#	Creating user name:	WinNT
#	Creation time:	15. 06. 2019 21:27

#	Modifying user name:	WinNT
#	Modification time:	15. 06. 2019 21:27

#	Program:	/corina/corina34_cracker 3.40 0067  02.08.2006

@<TRIPOS>MOLECULE
ASD10410238
  53   57    0    0    0
SMALL
NO_CHARGES


@<TRIPOS>ATOM
   1 C1            -0.0183     1.3924    -0.0809 C.ar    
   2 C2            -0.0057     0.0094     0.0247 C.ar    
   3 C3             1.2008    -0.6691     0.1152 C.ar    
   4 C4             2.3905     0.0319     0.1002 C.ar    
   5 C5             2.3788     1.4166    -0.0056 C.ar    
   6 C6             1.1704     2.0951    -0.0961 C.ar    
   7 O7            -1.1768    -0.6817     0.0401 O.3     
   8 N8             3.5842     2.1280    -0.0209 N.pl3   
   9 C9             3.6709     3.3386    -0.7081 C.2     
  10 N10            4.7091     4.1401    -0.7106 N.2     
  11 N11            2.7103     3.8667    -1.4757 N.2     
  12 C12            3.1209     5.0137    -1.9728 C.2     
  13 N13            4.3780     5.2371    -1.5222 N.pl3   
  14 C14            5.1843     6.3383    -1.8080 C.ar    
  15 N15            2.3982     5.8421    -2.8102 N.pl3   
  16 C16            6.4688     6.4250    -1.2626 C.ar    
  17 C17           -1.0896    -2.1037     0.1511 C.3     
  18 C18           -2.4975    -2.7026     0.1518 C.3     
  19 N19           -3.1366    -2.4527    -1.1470 N.3     
  20 C20           -4.3934    -3.2134    -1.2726 C.3     
  21 C21           -5.5167    -2.1959    -1.5628 C.3     
  22 C22           -4.7468    -0.9828    -2.1481 C.3     
  23 C23           -3.4367    -1.0156    -1.3221 C.3     
  24 N24            4.7364     7.2991    -2.5997 N.ar    
  25 C25            5.4673     8.3605    -2.8969 C.ar    
  26 C26            6.7402     8.5235    -2.3963 C.ar    
  27 C27            7.2695     7.5425    -1.5608 C.ar    
  28 O28            8.4376     7.3826    -0.9162 O.3     
  29 C29            8.4482     6.2300    -0.2217 C.2     
  30 C30            7.2835     5.5850    -0.3807 C.2     
  31 H31           -0.9580     1.9195    -0.1559 H       
  32 H32            1.2097    -1.7459     0.1978 H       
  33 H33            3.3297    -0.4965     0.1710 H       
  34 H34            1.1604     3.1718    -0.1787 H       
  35 H35            4.3593     1.7790     0.4464 H       
  36 H36            1.5007     5.5938    -3.0817 H       
  37 H37            2.7885     6.6719    -3.1266 H       
  38 H38           -0.5265    -2.5003    -0.6938 H       
  39 H39           -0.5830    -2.3652     1.0801 H       
  40 H40           -2.4353    -3.7769     0.3255 H       
  41 H41           -3.0885    -2.2403     0.9425 H       
  42 H42           -4.3157    -3.9246    -2.0949 H       
  43 H43           -4.6022    -3.7408    -0.3418 H       
  44 H44           -6.2193    -2.5956    -2.2940 H       
  45 H45           -6.0320    -1.9181    -0.6434 H       
  46 H46           -4.5428    -1.1249    -3.2094 H       
  47 H47           -5.2926    -0.0548    -1.9778 H       
  48 H48           -3.5867    -0.5385    -0.3536 H       
  49 H49           -2.6316    -0.5236    -1.8678 H       
  50 H50            5.0563     9.1177    -3.5482 H       
  51 H51            7.3214     9.3973    -2.6516 H       
  52 H52            9.2742     5.8765     0.3776 H       
  53 H53            7.0019     4.6377     0.0548 H       
@<TRIPOS>BOND
   1    1    2 ar
   2    1    6 ar
   3    1   31 1
   4    2    3 ar
   5    2    7 1
   6    3    4 ar
   7    3   32 1
   8    4    5 ar
   9    4   33 1
  10    5    6 ar
  11    5    8 1
  12    6   34 1
  13    7   17 1
  14    8    9 1
  15    8   35 1
  16    9   10 2
  17    9   11 1
  18   10   13 1
  19   11   12 2
  20   12   13 1
  21   12   15 1
  22   13   14 1
  23   14   16 ar
  24   14   24 ar
  25   15   36 1
  26   15   37 1
  27   16   27 ar
  28   16   30 1
  29   17   18 1
  30   17   38 1
  31   17   39 1
  32   18   19 1
  33   18   40 1
  34   18   41 1
  35   19   20 1
  36   19   23 1
  37   20   21 1
  38   20   42 1
  39   20   43 1
  40   21   22 1
  41   21   44 1
  42   21   45 1
  43   22   23 1
  44   22   46 1
  45   22   47 1
  46   23   48 1
  47   23   49 1
  48   24   25 ar
  49   25   26 ar
  50   25   50 1
  51   26   27 ar
  52   26   51 1
  53   27   28 1
  54   28   29 1
  55   29   30 2
  56   29   52 1
  57   30   53 1

#	End of record

