#	Name: ASD10100009
#	Creating user name:	WinNT
#	Creation time:	15. 06. 2019 21:24

#	Modifying user name:	WinNT
#	Modification time:	15. 06. 2019 21:24

#	Program:	/corina/corina34_cracker 3.40 0067  02.08.2006

@<TRIPOS>MOLECULE
ASD10100009
  29   30    0    0    0
SMALL
NO_CHARGES


@<TRIPOS>ATOM
   1 C1            -0.0161     1.3337     0.0094 C.2     
   2 N2             0.0021    -0.0041     0.0020 N.am    
   3 C3             1.1568    -0.7031    -0.0128 C.2     
   4 C4             2.4532     0.0846    -0.0210 C.3     
   5 C5             2.3197     1.5957    -0.0116 C.2     
   6 N6             1.0723     2.1117     0.0032 N.am    
   7 O7            -1.1001     1.8821     0.0174 O.2     
   8 O8             1.1578    -1.9154    -0.0189 O.2     
   9 O9             3.2968     2.3133    -0.0167 O.2     
  10 C10            0.9055     3.5672     0.0126 C.3     
  11 C11            0.8612     4.0660     1.4583 C.3     
  12 C12            0.6896     5.5632     1.4681 C.ar    
  13 C13           -0.5784     6.1135     1.4832 C.ar    
  14 C14           -0.7359     7.4868     1.4920 C.ar    
  15 C15            0.3747     8.3099     1.4863 C.ar    
  16 C16            1.6428     7.7596     1.4721 C.ar    
  17 C17            1.8002     6.3862     1.4676 C.ar    
  18 H18           -0.8397    -0.4861     0.0078 H       
  19 H19            3.0346    -0.2099     0.8527 H       
  20 H20            3.0177    -0.2004    -0.9088 H       
  21 H21            1.7433     4.0323    -0.5067 H       
  22 H22           -0.0250     3.8295    -0.4909 H       
  23 H23            0.0234     3.6009     1.9777 H       
  24 H24            1.7917     3.8037     1.9619 H       
  25 H25           -1.4461     5.4704     1.4877 H       
  26 H26           -1.7265     7.9167     1.5031 H       
  27 H27            0.2517     9.3828     1.4925 H       
  28 H28            2.5105     8.4026     1.4672 H       
  29 H29            2.7909     5.9563     1.4602 H       
@<TRIPOS>BOND
   1    1    2 am
   2    1    6 am
   3    1    7 2
   4    2    3 am
   5    2   18 1
   6    3    4 1
   7    3    8 2
   8    4    5 1
   9    4   19 1
  10    4   20 1
  11    5    6 am
  12    5    9 2
  13    6   10 1
  14   10   11 1
  15   10   21 1
  16   10   22 1
  17   11   12 1
  18   11   23 1
  19   11   24 1
  20   12   13 ar
  21   12   17 ar
  22   13   14 ar
  23   13   25 1
  24   14   15 ar
  25   14   26 1
  26   15   16 ar
  27   15   27 1
  28   16   17 ar
  29   16   28 1
  30   17   29 1

#	End of record

