#	Name: ASD11000034
#	Creating user name:	WinNT
#	Creation time:	15. 06. 2019 21:28

#	Modifying user name:	WinNT
#	Modification time:	15. 06. 2019 21:28

#	Program:	/corina/corina34_cracker 3.40 0067  02.08.2006

@<TRIPOS>MOLECULE
ASD11000034
  49   51    0    0    0
SMALL
NO_CHARGES


@<TRIPOS>ATOM
   1 C1             0.0916     1.2434    -0.0147 C.ar    
   2 C2            -0.0743    -0.1121     0.1995 C.ar    
   3 N3             5.0091     4.1285     3.5139 N.3     
   4 O4             7.1621     5.7008     3.6266 O.2     
   5 C5             1.3580     1.7971     0.0096 C.ar    
   6 C6             9.5404     6.3634     6.9646 C.ar    
   7 O7             9.7806     6.1722     9.3227 O.3     
   8 C8             7.7833     5.3878     8.2978 C.ar    
   9 C9             2.4585     0.9953     0.2480 C.ar    
  10 C10            2.2925    -0.3602     0.4626 C.ar    
  11 C11            1.0262    -0.9140     0.4379 C.ar    
  12 C12            3.8392     1.5987     0.2735 C.3     
  13 C13            4.1750     2.0437     1.6983 C.3     
  14 C14            5.6219     2.5420     1.7510 C.3     
  15 C15            5.9329     3.0421     3.1635 C.3     
  16 C16            3.6168     3.6617     3.5160 C.3     
  17 C17            3.2367     3.1800     2.1141 C.3     
  18 C18            5.3659     4.7264     4.8074 C.3     
  19 C19            6.7280     5.3633     4.7078 C.2     
  20 C20            7.5298     5.5755     5.9197 C.ar    
  21 C21            8.7959     6.1672     5.8299 C.ar    
  22 C22            9.0401     5.9759     8.2031 C.ar    
  23 C23            7.0308     5.1871     7.1692 C.ar    
  24 C24            4.3314     5.7902     5.1803 C.3     
  25 H25           -0.7678     1.8692    -0.2054 H       
  26 H26           -1.0637    -0.5446     0.1809 H       
  27 H27            1.4876     2.8561    -0.1581 H       
  28 H28           10.5187     6.8155     6.8959 H       
  29 H29            9.6298     7.0268     9.7492 H       
  30 H30            7.3994     5.0887     9.2619 H       
  31 H31            3.1524    -0.9868     0.6481 H       
  32 H32            0.8965    -1.9729     0.6059 H       
  33 H33            4.5662     0.8566    -0.0563 H       
  34 H34            3.8715     2.4603    -0.3934 H       
  35 H35            4.0544     1.2023     2.3806 H       
  36 H36            6.2976     1.7251     1.4973 H       
  37 H37            5.7522     3.3572     1.0394 H       
  38 H38            6.9579     3.4109     3.2008 H       
  39 H39            5.8157     2.2229     3.8729 H       
  40 H40            3.5105     2.8395     4.2238 H       
  41 H41            2.9597     4.4804     3.8093 H       
  42 H42            3.3295     4.0053     1.4081 H       
  43 H43            2.2082     2.8190     2.1197 H       
  44 H44            5.3824     3.9513     5.5737 H       
  45 H45            9.1851     6.4687     4.8687 H       
  46 H46            6.0551     4.7301     7.2438 H       
  47 H47            4.5962     6.2338     6.1401 H       
  48 H48            4.3149     6.5653     4.4140 H       
  49 H49            3.3462     5.3295     5.2523 H       
@<TRIPOS>BOND
   1    1    2 ar
   2    1    5 ar
   3    1   25 1
   4    2   11 ar
   5    2   26 1
   6    3   15 1
   7    3   16 1
   8    3   18 1
   9    4   19 2
  10    5    9 ar
  11    5   27 1
  12    6   21 ar
  13    6   22 ar
  14    6   28 1
  15    7   22 1
  16    7   29 1
  17    8   22 ar
  18    8   23 ar
  19    8   30 1
  20    9   10 ar
  21    9   12 1
  22   10   11 ar
  23   10   31 1
  24   11   32 1
  25   12   13 1
  26   12   33 1
  27   12   34 1
  28   13   14 1
  29   13   17 1
  30   13   35 1
  31   14   15 1
  32   14   36 1
  33   14   37 1
  34   15   38 1
  35   15   39 1
  36   16   17 1
  37   16   40 1
  38   16   41 1
  39   17   42 1
  40   17   43 1
  41   18   19 1
  42   18   24 1
  43   18   44 1
  44   19   20 1
  45   20   21 ar
  46   20   23 ar
  47   21   45 1
  48   23   46 1
  49   24   47 1
  50   24   48 1
  51   24   49 1

#	End of record

