#	Name: ASD10160245
#	Creating user name:	WinNT
#	Creation time:	15. 06. 2019 21:25

#	Modifying user name:	WinNT
#	Modification time:	15. 06. 2019 21:25

#	Program:	/corina/corina34_cracker 3.40 0067  02.08.2006

@<TRIPOS>MOLECULE
ASD10160245
  39   41    0    0    0
SMALL
NO_CHARGES


@<TRIPOS>ATOM
   1 C1             0.1204     1.4719    -0.0164 C.2     
   2 C2             0.1039    -0.0039    -0.0176 C.ar    
   3 C3             1.2951    -0.7177    -0.1766 C.ar    
   4 C4             1.2755    -2.0952    -0.1767 C.ar    
   5 C5             0.0718    -2.7752    -0.0187 C.ar    
   6 C6            -1.1141    -2.0682     0.1395 C.ar    
   7 C7            -1.1015    -0.6909     0.1459 C.ar    
   8 O8             1.1710     2.0683    -0.1539 O.2     
   9 N9            -1.0299     2.1586     0.1314 N.am    
  10 S10           -1.0114     3.8145     0.1328 S.o2    
  11 O11           -2.3701     4.1799     0.3324 O.2     
  12 O12           -0.0140     4.1530     1.0866 O.2     
  13 C13           -0.4709     4.2625    -1.5399 C.3     
  14 O14            0.0558    -4.1322    -0.0197 O.3     
  15 C15            0.0040    -8.3447     0.9525 C.2     
  16 N16            0.3032    -8.1505     2.2039 N.2     
  17 C17            0.4438    -6.8205     2.4389 C.ar    
  18 C18            0.2080    -6.1627     1.2215 C.ar    
  19 N19           -0.0679    -7.1542     0.2994 N.pl3   
  20 C20            0.7535    -6.0711     3.5783 C.ar    
  21 C21            0.8251    -4.6992     3.4979 C.ar    
  22 C22            0.5915    -4.0497     2.2947 C.ar    
  23 C23            0.2837    -4.7739     1.1567 C.ar    
  24 C24           -0.3789    -6.9591    -1.1189 C.3     
  25 Cl25           2.7538    -2.9835    -0.3746 Cl      
  26 H26            2.2294    -0.1901    -0.2996 H       
  27 H27           -2.0463    -2.5995     0.2619 H       
  28 H28           -2.0232    -0.1426     0.2734 H       
  29 H29           -1.8686     1.6828     0.2371 H       
  30 H30           -1.1767     3.8640    -2.2687 H       
  31 H31           -0.4297     5.3480    -1.6299 H       
  32 H32            0.5185     3.8446    -1.7261 H       
  33 H33           -0.1590    -9.3107     0.4979 H       
  34 H34            0.9362    -6.5682     4.5195 H       
  35 H35            1.0642    -4.1231     4.3795 H       
  36 H36            0.6507    -2.9725     2.2458 H       
  37 H37           -1.4559    -6.8454    -1.2423 H       
  38 H38            0.1250    -6.0631    -1.4814 H       
  39 H39           -0.0372    -7.8236    -1.6881 H       
@<TRIPOS>BOND
   1    1    2 1
   2    1    8 2
   3    1    9 am
   4    2    3 ar
   5    2    7 ar
   6    3    4 ar
   7    3   26 1
   8    4    5 ar
   9    4   25 1
  10    5    6 ar
  11    5   14 1
  12    6    7 ar
  13    6   27 1
  14    7   28 1
  15    9   10 am
  16    9   29 1
  17   10   11 2
  18   10   12 2
  19   10   13 1
  20   13   30 1
  21   13   31 1
  22   13   32 1
  23   14   23 1
  24   15   16 2
  25   15   19 1
  26   15   33 1
  27   16   17 1
  28   17   18 ar
  29   17   20 ar
  30   18   19 1
  31   18   23 ar
  32   19   24 1
  33   20   21 ar
  34   20   34 1
  35   21   22 ar
  36   21   35 1
  37   22   23 ar
  38   22   36 1
  39   24   37 1
  40   24   38 1
  41   24   39 1

#	End of record

