#	Name: ASD10420077
#	Creating user name:	WinNT
#	Creation time:	15. 06. 2019 21:27

#	Modifying user name:	WinNT
#	Modification time:	15. 06. 2019 21:27

#	Program:	/corina/corina34_cracker 3.40 0067  02.08.2006

@<TRIPOS>MOLECULE
ASD10420077
  73   77    0    0    0
SMALL
NO_CHARGES


@<TRIPOS>ATOM
   1 N1             1.4227     0.1751    -4.3279 N.am    
   2 C2             0.9367     0.3702    -2.9547 C.3     
   3 C3             1.7454    -0.5333    -2.0156 C.3     
   4 N4             3.1754    -0.3408    -2.2949 N.am    
   5 C5             3.6614    -0.5359    -3.6681 C.3     
   6 C6             2.8527     0.3676    -4.6072 C.3     
   7 C7             0.5732    -0.1794    -5.3123 C.2     
   8 O8            -0.6062    -0.3406    -5.0683 O.2     
   9 O9             1.0314    -0.3550    -6.5661 O.3     
  10 C10            4.0257     0.0088    -1.3094 C.2     
  11 O11            3.5981     0.2626    -0.1975 O.2     
  12 C12            7.4227     0.8762    -2.1277 C.2     
  13 C13            8.3336     1.8521    -2.5507 C.2     
  14 C14            7.8739     3.1251    -2.8213 C.2     
  15 C15            6.5085     3.4189    -2.6689 C.2     
  16 N16            5.6667     2.5029    -2.2741 N.2     
  17 N17            6.0987     1.2005    -1.9907 N.pl3   
  18 C18            7.5798    -0.4782    -1.7771 C.2     
  19 C19            6.3204    -0.9635    -1.4319 C.2     
  20 C20            5.4165     0.0810    -1.5667 C.2     
  21 C21            8.8471    -1.2442    -1.7760 C.ar    
  22 C22            9.8713    -0.9024    -0.8926 C.ar    
  23 C23           11.0495    -1.6203    -0.8961 C.ar    
  24 C24           11.2165    -2.6771    -1.7733 C.ar    
  25 C25           10.2047    -3.0206    -2.6522 C.ar    
  26 C26            9.0195    -2.3141    -2.6544 C.ar    
  27 O27            8.7369     4.0887    -3.2324 O.3     
  28 C28            5.9986    -2.3671    -0.9878 C.3     
  29 C29            6.1036    -2.4556     0.5130 C.ar    
  30 C30            4.9582    -2.5457     1.2815 C.ar    
  31 C31            5.0550    -2.6274     2.6600 C.ar    
  32 C32            6.2994    -2.6189     3.2675 C.ar    
  33 C33            7.4430    -2.5288     2.4972 C.ar    
  34 C34            7.3453    -2.4525     1.1201 C.ar    
  35 C35            3.6047    -2.5544     0.6189 C.3     
  36 F36            3.9361    -2.7151     3.4122 F       
  37 C37            0.0599    -0.7365    -7.5756 C.3     
  38 C38           -1.0186     0.3437    -7.6795 C.3     
  39 C39            0.7614    -0.8885    -8.9268 C.3     
  40 C40           -0.5866    -2.0668    -7.1841 C.3     
  41 H41            1.0698     1.4123    -2.6642 H       
  42 H42           -0.1189     0.1043    -2.8990 H       
  43 H43            1.5356    -0.2656    -0.9800 H       
  44 H44            1.4759    -1.5752    -2.1885 H       
  45 H45            4.7170    -0.2700    -3.7237 H       
  46 H46            3.5283    -1.5780    -3.9586 H       
  47 H47            3.0624     0.0999    -5.6428 H       
  48 H48            3.1222     1.4095    -4.4342 H       
  49 H49            9.3806     1.6122    -2.6633 H       
  50 H50            6.1508     4.4156    -2.8812 H       
  51 H51            9.7422    -0.0775    -0.2076 H       
  52 H52           11.8433    -1.3565    -0.2129 H       
  53 H53           12.1406    -3.2359    -1.7723 H       
  54 H54           10.3411    -3.8463    -3.3348 H       
  55 H55            8.2286    -2.5863    -3.3377 H       
  56 H56            8.3204     4.9458    -3.3964 H       
  57 H57            4.9851    -2.6227    -1.2968 H       
  58 H58            6.7035    -3.0629    -1.4429 H       
  59 H59            6.3761    -2.6822     4.3429 H       
  60 H60            8.4136    -2.5220     2.9707 H       
  61 H61            8.2399    -2.3866     0.5185 H       
  62 H62            3.3551    -3.5712     0.3158 H       
  63 H63            2.8544    -2.1899     1.3206 H       
  64 H64            3.6256    -1.9084    -0.2587 H       
  65 H65           -0.5580     1.2914    -7.9584 H       
  66 H66           -1.7479     0.0573    -8.4373 H       
  67 H67           -1.5184     0.4520    -6.7168 H       
  68 H68            1.5298    -1.6580    -8.8527 H       
  69 H69            0.0321    -1.1749    -9.6845 H       
  70 H70            1.2220     0.0592    -9.2056 H       
  71 H71           -1.0864    -1.9585    -6.2215 H       
  72 H72           -1.3159    -2.3532    -7.9419 H       
  73 H73            0.1817    -2.8363    -7.1101 H       
@<TRIPOS>BOND
   1    1    2 1
   2    1    6 1
   3    1    7 am
   4    2    3 1
   5    2   41 1
   6    2   42 1
   7    3    4 1
   8    3   43 1
   9    3   44 1
  10    4    5 1
  11    4   10 am
  12    5    6 1
  13    5   45 1
  14    5   46 1
  15    6   47 1
  16    6   48 1
  17    7    8 2
  18    7    9 1
  19    9   37 1
  20   10   11 2
  21   10   20 1
  22   12   13 1
  23   12   17 1
  24   12   18 2
  25   13   14 2
  26   13   49 1
  27   14   15 1
  28   14   27 1
  29   15   16 2
  30   15   50 1
  31   16   17 1
  32   17   20 1
  33   18   19 1
  34   18   21 1
  35   19   20 2
  36   19   28 1
  37   21   22 ar
  38   21   26 ar
  39   22   23 ar
  40   22   51 1
  41   23   24 ar
  42   23   52 1
  43   24   25 ar
  44   24   53 1
  45   25   26 ar
  46   25   54 1
  47   26   55 1
  48   27   56 1
  49   28   29 1
  50   28   57 1
  51   28   58 1
  52   29   30 ar
  53   29   34 ar
  54   30   31 ar
  55   30   35 1
  56   31   32 ar
  57   31   36 1
  58   32   33 ar
  59   32   59 1
  60   33   34 ar
  61   33   60 1
  62   34   61 1
  63   35   62 1
  64   35   63 1
  65   35   64 1
  66   37   38 1
  67   37   40 1
  68   37   39 1
  69   38   65 1
  70   38   66 1
  71   38   67 1
  72   39   68 1
  73   39   69 1
  74   39   70 1
  75   40   71 1
  76   40   72 1
  77   40   73 1

#	End of record

