#	Name: ASD10160462
#	Creating user name:	WinNT
#	Creation time:	15. 06. 2019 21:26

#	Modifying user name:	WinNT
#	Modification time:	15. 06. 2019 21:26

#	Program:	/corina/corina34_cracker 3.40 0067  02.08.2006

@<TRIPOS>MOLECULE
ASD10160462
  29   31    0    0    0
SMALL
NO_CHARGES


@<TRIPOS>ATOM
   1 C1            -0.0036    -0.0035     0.1236 C.1     
   2 C2            -0.0210     1.4282     0.1002 C.ar    
   3 C3            -0.0064     2.1109    -1.1220 C.ar    
   4 C4            -0.0237     3.4910    -1.1391 C.ar    
   5 C5            -0.0555     4.2017     0.0532 C.ar    
   6 C6            -0.0701     3.5269     1.2708 C.ar    
   7 C7            -0.0584     2.1487     1.2979 C.ar    
   8 N8             0.0102    -1.1392     0.1420 N.1     
   9 F9            -0.1006     4.2238     2.4277 F       
  10 F10            0.0250     1.4200    -2.2826 F       
  11 O11           -0.0720     5.5592     0.0316 O.3     
  12 N12            0.0464     8.3343    -0.1494 N.ar    
  13 C13            0.0821     9.6418    -0.2367 C.ar    
  14 C14            1.2782    10.3500    -0.1426 C.ar    
  15 C15            2.4536     9.6804     0.0456 C.ar    
  16 C16            2.4109     8.2764     0.1389 C.ar    
  17 C17            3.5800     7.5217     0.3333 C.ar    
  18 C18            3.5042     6.1637     0.4204 C.ar    
  19 C19            2.2808     5.5075     0.3194 C.ar    
  20 C20            1.1147     6.2130     0.1288 C.ar    
  21 C21            1.1602     7.6197     0.0346 C.ar    
  22 Cl22           5.1176     8.3172     0.4617 Cl      
  23 H23           -0.0121     4.0188    -2.0813 H       
  24 H24           -0.0742     1.6263     2.2430 H       
  25 H25           -0.8398    10.1842    -0.3859 H       
  26 H26            1.2760    11.4273    -0.2187 H       
  27 H27            3.3900    10.2133     0.1204 H       
  28 H28            4.4060     5.5887     0.5698 H       
  29 H29            2.2463     4.4304     0.3912 H       
@<TRIPOS>BOND
   1    1    2 1
   2    1    8 3
   3    2    3 ar
   4    2    7 ar
   5    3    4 ar
   6    3   10 1
   7    4    5 ar
   8    4   23 1
   9    5    6 ar
  10    5   11 1
  11    6    7 ar
  12    6    9 1
  13    7   24 1
  14   11   20 1
  15   12   13 ar
  16   12   21 ar
  17   13   14 ar
  18   13   25 1
  19   14   15 ar
  20   14   26 1
  21   15   16 ar
  22   15   27 1
  23   16   17 ar
  24   16   21 ar
  25   17   18 ar
  26   17   22 1
  27   18   19 ar
  28   18   28 1
  29   19   20 ar
  30   19   29 1
  31   20   21 ar

#	End of record

