#	Name: ASD10410070
#	Creating user name:	WinNT
#	Creation time:	15. 06. 2019 21:26

#	Modifying user name:	WinNT
#	Modification time:	15. 06. 2019 21:26

#	Program:	/corina/corina34_cracker 3.40 0067  02.08.2006

@<TRIPOS>MOLECULE
ASD10410070
  61   65    0    0    0
SMALL
NO_CHARGES


@<TRIPOS>ATOM
   1 C1            -0.0278     1.3386     0.4057 C.ar    
   2 C2            -0.0282     0.0177    -0.0188 C.ar    
   3 C3             1.1655    -0.5953    -0.3848 C.ar    
   4 C4             2.3513     0.1120    -0.3252 C.ar    
   5 C5             2.3500     1.4345     0.1000 C.ar    
   6 C6             1.1580     2.0453     0.4651 C.ar    
   7 F7             1.1658    -1.8816    -0.7978 F       
   8 N8             3.5513     2.1514     0.1610 N.pl3   
   9 C9             3.5500     3.5317    -0.0345 C.2     
  10 N10            4.5906     4.3188     0.0968 N.2     
  11 N11            2.4877     4.2635    -0.3915 N.2     
  12 C12            2.8328     5.5293    -0.4880 C.2     
  13 N13            4.1571     5.6236    -0.1886 N.pl3   
  14 C14            4.9262     6.7795    -0.1697 C.ar    
  15 N15            2.0007     6.5752    -0.8352 N.pl3   
  16 N16           -1.2310    -0.6989    -0.0785 N.3     
  17 C17           -1.8638    -0.7769     1.2456 C.3     
  18 C18           -3.2093    -1.4960     1.1235 C.3     
  19 N19           -2.9954    -2.8385     0.5653 N.3     
  20 C20           -2.3627    -2.7605    -0.7588 C.3     
  21 C21           -1.0172    -2.0414    -0.6367 C.3     
  22 C22           -4.2563    -3.5897     0.5028 C.3     
  23 N23            4.4942     7.8743     0.4402 N.ar    
  24 C24            5.2166     8.9828     0.4660 C.ar    
  25 N25            6.3958     9.0791    -0.1012 N.ar    
  26 C26            6.9273     8.0299    -0.7454 C.ar    
  27 C27            6.1926     6.8181    -0.7948 C.ar    
  28 C28            8.1836     8.0984    -1.3612 C.ar    
  29 C29            8.6813     7.0004    -2.0052 C.ar    
  30 C30            7.9505     5.8044    -2.0585 C.ar    
  31 C31            6.7259     5.7073    -1.4619 C.ar    
  32 O32            8.4696     4.7279    -2.7069 O.3     
  33 C33            7.6776     3.5386    -2.7267 C.3     
  34 O34            9.8998     7.0684    -2.6018 O.3     
  35 C35           10.5965     8.3130    -2.5143 C.3     
  36 H36           -0.9553     1.8159     0.6856 H       
  37 H37            3.2787    -0.3633    -0.6089 H       
  38 H38            1.1574     3.0736     0.7953 H       
  39 H39            4.3844     1.6876     0.3391 H       
  40 H40            1.0665     6.4062    -1.0345 H       
  41 H41            2.3503     7.4789    -0.8798 H       
  42 H42           -1.2163    -1.3300     1.9260 H       
  43 H43           -2.0232     0.2296     1.6324 H       
  44 H44           -3.6671    -1.5807     2.1091 H       
  45 H45           -3.8664    -0.9286     0.4645 H       
  46 H46           -2.2033    -3.7671    -1.1455 H       
  47 H47           -3.0102    -2.2075    -1.4392 H       
  48 H48           -0.5593    -1.9567    -1.6222 H       
  49 H49           -0.3601    -2.6088     0.0224 H       
  50 H50           -4.9657    -3.0568    -0.1304 H       
  51 H51           -4.0693    -4.5794     0.0860 H       
  52 H52           -4.6694    -3.6903     1.5064 H       
  53 H53            4.8176     9.8468     0.9764 H       
  54 H54            8.7556     9.0139    -1.3275 H       
  55 H55            6.1702     4.7824    -1.5081 H       
  56 H56            7.4964     3.2057    -1.7047 H       
  57 H57            6.7256     3.7442    -3.2161 H       
  58 H58            8.2067     2.7588    -3.2744 H       
  59 H59            9.9988     9.0974    -2.9786 H       
  60 H60           10.7691     8.5598    -1.4667 H       
  61 H61           11.5529     8.2312    -3.0307 H       
@<TRIPOS>BOND
   1    1    2 ar
   2    1    6 ar
   3    1   36 1
   4    2    3 ar
   5    2   16 1
   6    3    4 ar
   7    3    7 1
   8    4    5 ar
   9    4   37 1
  10    5    6 ar
  11    5    8 1
  12    6   38 1
  13    8    9 1
  14    8   39 1
  15    9   10 2
  16    9   11 1
  17   10   13 1
  18   11   12 2
  19   12   13 1
  20   12   15 1
  21   13   14 1
  22   14   23 ar
  23   14   27 ar
  24   15   40 1
  25   15   41 1
  26   16   17 1
  27   16   21 1
  28   17   18 1
  29   17   42 1
  30   17   43 1
  31   18   19 1
  32   18   44 1
  33   18   45 1
  34   19   20 1
  35   19   22 1
  36   20   21 1
  37   20   46 1
  38   20   47 1
  39   21   48 1
  40   21   49 1
  41   22   50 1
  42   22   51 1
  43   22   52 1
  44   23   24 ar
  45   24   25 ar
  46   24   53 1
  47   25   26 ar
  48   26   27 ar
  49   26   28 ar
  50   27   31 ar
  51   28   29 ar
  52   28   54 1
  53   29   30 ar
  54   29   34 1
  55   30   31 ar
  56   30   32 1
  57   31   55 1
  58   32   33 1
  59   33   56 1
  60   33   57 1
  61   33   58 1
  62   34   35 1
  63   35   59 1
  64   35   60 1
  65   35   61 1

#	End of record

