#	Name: ASD11820010
#	Creating user name:	WinNT
#	Creation time:	15. 06. 2019 21:29

#	Modifying user name:	WinNT
#	Modification time:	15. 06. 2019 21:29

#	Program:	/corina/corina34_cracker 3.40 0067  02.08.2006

@<TRIPOS>MOLECULE
ASD11820010
  33   36    0    0    0
SMALL
NO_CHARGES


@<TRIPOS>ATOM
   1 C1            -0.0166     1.3739     0.0096 C.ar    
   2 C2             0.0021    -0.0041     0.0020 C.ar    
   3 C3             1.2113    -0.6897    -0.0132 C.ar    
   4 C4             2.4065    -0.0052    -0.0205 C.ar    
   5 C5             1.1878     2.0808     0.0019 C.ar    
   6 C6             1.5314     3.5048     0.0058 C.2     
   7 C7             2.4103     1.3855    -0.0131 C.ar    
   8 N8             3.4142     2.3297    -0.0167 N.pl3   
   9 C9             2.8713     3.5855    -0.0068 C.2     
  10 C10            0.5640     4.6602     0.0211 C.3     
  11 C11            0.1603     4.9586     1.4420 C.2     
  12 C12            0.8811     5.8094     2.3921 C.ar    
  13 C13           -0.9309     4.4999     2.0751 C.2     
  14 N14           -0.9652     4.9825     3.3548 N.pl3   
  15 C15            0.1303     5.7876     3.5812 C.ar    
  16 C16            2.0587     6.5570     2.3243 C.ar    
  17 C17            0.5711     6.5141     4.6821 C.ar    
  18 C18            1.7345     7.2468     4.6015 C.ar    
  19 C19            2.4774     7.2701     3.4267 C.ar    
  20 F20            3.6162     7.9944     3.3659 F       
  21 F21           -1.1606    -0.6921     0.0099 F       
  22 H22           -0.9574     1.9042     0.0169 H       
  23 H23            1.2135    -1.7697    -0.0190 H       
  24 H24            3.3400    -0.5481    -0.0316 H       
  25 H25            4.3640     2.1332    -0.0261 H       
  26 H26            3.4370     4.5055    -0.0080 H       
  27 H27            1.0406     5.5389    -0.4134 H       
  28 H28           -0.3204     4.4013    -0.5611 H       
  29 H29           -1.6721     3.8467     1.6388 H       
  30 H30           -1.6584     4.7890     4.0051 H       
  31 H31            2.6382     6.5760     1.4131 H       
  32 H32            0.0013     6.5040     5.5995 H       
  33 H33            2.0725     7.8096     5.4591 H       
@<TRIPOS>BOND
   1    1    2 ar
   2    1    5 ar
   3    1   22 1
   4    2    3 ar
   5    2   21 1
   6    3    4 ar
   7    3   23 1
   8    4    7 ar
   9    4   24 1
  10    5    7 ar
  11    5    6 1
  12    6    9 2
  13    6   10 1
  14    7    8 1
  15    8    9 1
  16    8   25 1
  17    9   26 1
  18   10   11 1
  19   10   27 1
  20   10   28 1
  21   11   13 2
  22   11   12 1
  23   12   15 ar
  24   12   16 ar
  25   13   14 1
  26   13   29 1
  27   14   15 1
  28   14   30 1
  29   15   17 ar
  30   16   19 ar
  31   16   31 1
  32   17   18 ar
  33   17   32 1
  34   18   19 ar
  35   18   33 1
  36   19   20 1

#	End of record

