#	Name: ASD11000187
#	Creating user name:	WinNT
#	Creation time:	15. 06. 2019 21:28

#	Modifying user name:	WinNT
#	Modification time:	15. 06. 2019 21:28

#	Program:	/corina/corina34_cracker 3.40 0067  02.08.2006

@<TRIPOS>MOLECULE
ASD11000187
  45   48    0    0    0
SMALL
NO_CHARGES


@<TRIPOS>ATOM
   1 N1            -0.0172     1.3214    -0.0111 N.ar    
   2 C2             0.0016    -0.0034    -0.0059 C.ar    
   3 N3             1.1402    -0.6810    -0.0149 N.ar    
   4 C4             2.3025    -0.0498    -0.0299 C.ar    
   5 C5             2.3192     1.3362    -0.0362 C.ar    
   6 C6             1.1099     2.0135    -0.0260 C.ar    
   7 C7             3.6239     2.0903    -0.0533 C.3     
   8 O8             4.0220     2.3227    -1.4059 O.3     
   9 C9             5.1872     2.9965    -1.5993 C.ar    
  10 C10            5.6294     3.2609    -2.8887 C.ar    
  11 N11           -1.1977    -0.6966     0.0098 N.pl3   
  12 C12           -1.2011    -2.0901    -0.1032 C.ar    
  13 C13           -2.1492    -2.8408     0.5789 C.ar    
  14 C14           -0.2594    -2.7259    -0.9028 C.ar    
  15 C15           -0.2644    -4.1024    -1.0131 C.ar    
  16 C16           -1.2054    -4.8495    -0.3289 C.ar    
  17 C17           -2.1496    -4.2196     0.4647 C.ar    
  18 C18            5.9295     3.4237    -0.5083 C.ar    
  19 C19            7.1136     4.1102    -0.7011 C.ar    
  20 C20            7.5573     4.3699    -1.9878 C.ar    
  21 C21            6.8103     3.9439    -3.0809 C.ar    
  22 N22            8.7525     5.0674    -2.2119 N.am    
  23 C23            9.0051     5.5793    -3.4337 C.2     
  24 O24            8.1112     5.4520    -4.4311 O.3     
  25 C25            7.3198     4.2359    -4.4700 C.3     
  26 O26           10.0518     6.1625    -3.6359 O.2     
  27 F27           -3.0676    -4.9521     1.1324 F       
  28 C28           -1.2076    -6.3514    -0.4519 C.3     
  29 H29            3.2273    -0.6076    -0.0369 H       
  30 H30            1.0881     3.0933    -0.0309 H       
  31 H31            3.4984     3.0449     0.4577 H       
  32 H32            4.3892     1.5038     0.4551 H       
  33 H33            5.0496     2.9318    -3.7383 H       
  34 H34           -2.0350    -0.2152     0.0991 H       
  35 H35           -2.8851    -2.3492     1.1979 H       
  36 H36            0.4761    -2.1437    -1.4381 H       
  37 H37            0.4677    -4.5961    -1.6350 H       
  38 H38            5.5815     3.2199     0.4936 H       
  39 H39            7.6910     4.4434     0.1486 H       
  40 H40            9.3934     5.1814    -1.4928 H       
  41 H41            7.9399     3.4069    -4.8110 H       
  42 H42            6.4780     4.3692    -5.1495 H       
  43 H43           -0.5709    -6.7803     0.3220 H       
  44 H44           -2.2250    -6.7242    -0.3332 H       
  45 H45           -0.8284    -6.6362    -1.4333 H       
@<TRIPOS>BOND
   1    1    2 ar
   2    1    6 ar
   3    2    3 ar
   4    2   11 1
   5    3    4 ar
   6    4    5 ar
   7    4   29 1
   8    5    6 ar
   9    5    7 1
  10    6   30 1
  11    7    8 1
  12    7   31 1
  13    7   32 1
  14    8    9 1
  15    9   18 ar
  16    9   10 ar
  17   10   21 ar
  18   10   33 1
  19   11   12 1
  20   11   34 1
  21   12   13 ar
  22   12   14 ar
  23   13   17 ar
  24   13   35 1
  25   14   15 ar
  26   14   36 1
  27   15   16 ar
  28   15   37 1
  29   16   17 ar
  30   16   28 1
  31   17   27 1
  32   18   19 ar
  33   18   38 1
  34   19   20 ar
  35   19   39 1
  36   20   21 ar
  37   20   22 1
  38   21   25 1
  39   22   23 am
  40   22   40 1
  41   23   24 1
  42   23   26 2
  43   24   25 1
  44   25   41 1
  45   25   42 1
  46   28   43 1
  47   28   44 1
  48   28   45 1

#	End of record

