#	Name: ASD14640013
#	Creating user name:	WinNT
#	Creation time:	15. 06. 2019 21:31

#	Modifying user name:	WinNT
#	Modification time:	15. 06. 2019 21:31

#	Program:	/corina/corina34_cracker 3.40 0067  02.08.2006

@<TRIPOS>MOLECULE
ASD14640013
  39   40    0    0    0
SMALL
NO_CHARGES


@<TRIPOS>ATOM
   1 C1             0.0029     1.4657    -0.0066 C.3     
   2 N2             0.0069    -0.0035    -0.0020 N.pl3   
   3 C3             0.7800    -0.7046     1.0322 C.3     
   4 C4             2.2203    -0.1833     1.0094 C.3     
   5 C5             2.2097     1.3400     1.1570 C.3     
   6 C6             1.4519     1.9627    -0.0178 C.3     
   7 C7             3.0061    -0.8030     2.1667 C.3     
   8 C8             3.1178    -2.2913     1.9580 C.ar    
   9 C9             2.1464    -3.1340     2.4633 C.ar    
  10 C10            4.1891    -2.8118     1.2563 C.ar    
  11 C11            4.2940    -4.1770     1.0623 C.ar    
  12 C12            3.3281    -5.0240     1.5695 C.ar    
  13 C13            1.4668    -6.7335     2.5303 C.3     
  14 C14            2.2496    -4.5037     2.2705 C.ar    
  15 O15            1.2957    -5.3347     2.7669 O.3     
  16 C16           -0.6997    -0.7089    -0.9472 C.2     
  17 N17           -1.5106    -0.0446    -1.8367 N.pl3   
  18 N18           -0.6007    -2.0075    -0.9999 N.2     
  19 H19           -0.5141     1.8269    -0.8956 H       
  20 H20           -0.5023     1.8326     0.8868 H       
  21 H21            0.3382    -0.5147     2.0103 H       
  22 H22            0.7758    -1.7754     0.8286 H       
  23 H23            2.6903    -0.4539     0.0638 H       
  24 H24            1.7175     1.6108     2.0911 H       
  25 H25            3.2345     1.7111     1.1658 H       
  26 H26            1.9291     1.6719    -0.9536 H       
  27 H27            1.4648     3.0486     0.0756 H       
  28 H28            4.0037    -0.3654     2.2040 H       
  29 H29            2.4875    -0.6056     3.1049 H       
  30 H30            1.3077    -2.7265     3.0082 H       
  31 H31            4.9452    -2.1511     0.8586 H       
  32 H32            5.1317    -4.5812     0.5134 H       
  33 H33            3.4101    -6.0901     1.4171 H       
  34 H34            1.4882    -6.9205     1.4566 H       
  35 H35            2.4048    -7.0652     2.9756 H       
  36 H36            0.6380    -7.2819     2.9781 H       
  37 H37           -1.6447     0.9121    -1.7495 H       
  38 H38           -1.9487    -0.5326    -2.5514 H       
  39 H39           -1.0993    -2.5052    -1.6668 H       
@<TRIPOS>BOND
   1    1    2 1
   2    1    6 1
   3    1   19 1
   4    1   20 1
   5    2    3 1
   6    2   16 1
   7    3    4 1
   8    3   21 1
   9    3   22 1
  10    4    5 1
  11    4    7 1
  12    4   23 1
  13    5    6 1
  14    5   24 1
  15    5   25 1
  16    6   26 1
  17    6   27 1
  18    7    8 1
  19    7   28 1
  20    7   29 1
  21    8   10 ar
  22    8    9 ar
  23    9   14 ar
  24    9   30 1
  25   10   11 ar
  26   10   31 1
  27   11   12 ar
  28   11   32 1
  29   12   14 ar
  30   12   33 1
  31   13   15 1
  32   13   34 1
  33   13   35 1
  34   13   36 1
  35   14   15 1
  36   16   17 1
  37   16   18 2
  38   17   37 1
  39   17   38 1
  40   18   39 1

#	End of record

