#	Name: ASD11310001
#	Creating user name:	WinNT
#	Creation time:	15. 06. 2019 21:29

#	Modifying user name:	WinNT
#	Modification time:	15. 06. 2019 21:29

#	Program:	/corina/corina34_cracker 3.40 0067  02.08.2006

@<TRIPOS>MOLECULE
ASD11310001
 109  113    0    0    0
SMALL
NO_CHARGES


@<TRIPOS>ATOM
   1 C1             0.5594    -0.3189    -2.3497 C.3     
   2 O2             0.7683    -1.5903    -2.9676 O.3     
   3 C3             1.6613    -1.5550    -4.0826 C.3     
   4 C4             0.8643    -1.7102    -5.3794 C.3     
   5 C5            -0.2087    -0.6219    -5.4519 C.3     
   6 O6             0.3693     0.5851    -5.9554 O.3     
   7 C7            -0.5458     1.6708    -6.0590 C.3     
   8 C8            -1.1047     2.0171    -4.6601 C.3     
   9 C9             0.0242     2.9329    -4.1116 C.3     
  10 C10            0.5127     3.6525    -5.3876 C.3     
  11 O11            0.1228     2.8530    -6.5117 O.3     
  12 C12           -0.1355     5.0350    -5.4842 C.3     
  13 C13            2.0358     3.7927    -5.3536 C.3     
  14 C14            2.5316     4.6518    -6.5446 C.3     
  15 C15            3.8795     5.1965    -6.0127 C.3     
  16 C16            3.7613     5.0675    -4.4817 C.3     
  17 O17            2.4510     4.5496    -4.1964 O.3     
  18 C18            4.8273     4.1035    -3.9569 C.3     
  19 C19            4.6252     2.7256    -4.5905 C.3     
  20 C20            3.9313     6.4409    -3.8292 C.3     
  21 O21            3.9051     6.3206    -2.3902 O.3     
  22 C22            3.5740     7.6396    -1.9040 C.3     
  23 C23            2.4903     8.1577    -2.8754 C.3     
  24 C24            2.7307     7.3510    -4.1710 C.3     
  25 C25            1.5003     6.5089    -4.5144 C.3     
  26 C26            2.6735     9.6545    -3.1341 C.3     
  27 O27            3.9525     9.8822    -3.7294 O.3     
  28 C28            4.2380    11.2578    -3.9906 C.3     
  29 O29            4.1814    11.9966    -2.7686 O.3     
  30 C30            5.6369    11.3823    -4.5977 C.3     
  31 O31            6.6019    10.8613    -3.6815 O.3     
  32 C32            3.2037    11.8147    -4.9723 C.3     
  33 C33            1.8017    11.6318    -4.3830 C.3     
  34 C34            1.5764    10.1470    -4.0814 C.3     
  35 C35            0.2090     9.9613    -3.4205 C.3     
  36 C36            3.4700    13.3032    -5.2058 C.3     
  37 C37           -1.6964     1.3160    -6.9969 C.3     
  38 C38           -2.3792     0.0386    -6.4960 C.3     
  39 C39           -1.3331    -1.0749    -6.3867 C.3     
  40 C40           -0.7568    -1.3722    -7.7725 C.3     
  41 O41           -2.9589     0.2781    -5.2120 O.3     
  42 C42            1.8075    -1.5770    -6.5767 C.3     
  43 C43            2.6705    -2.6988    -3.9643 C.3     
  44 C44            3.4555    -2.5460    -2.6870 C.2     
  45 O45            3.2308    -1.6175    -1.9472 O.2     
  46 O46            4.4042    -3.4414    -2.3710 O.3     
  47 C47            1.9266    -4.0357    -3.9488 C.3     
  48 H48            1.4868     0.0161    -1.8852 H       
  49 H49            0.2485     0.4047    -3.1034 H       
  50 H50           -0.2165    -0.4075    -1.5893 H       
  51 H51            2.1913    -0.6026    -4.0936 H       
  52 H52            0.3891    -2.6909    -5.3987 H       
  53 H53           -0.6134    -0.4434    -4.4557 H       
  54 H54           -2.0477     2.5585    -4.7365 H       
  55 H55           -1.2162     1.1217    -4.0486 H       
  56 H56           -0.3723     3.6480    -3.3909 H       
  57 H57            0.8250     2.3395    -3.6704 H       
  58 H58           -0.0914     5.5257    -4.5119 H       
  59 H59            0.3993     5.6364    -6.2194 H       
  60 H60           -1.1762     4.9278    -5.7903 H       
  61 H61            2.5107     2.8116    -5.3642 H       
  62 H62            2.6834     4.0366    -7.4315 H       
  63 H63            1.8376     5.4663    -6.7521 H       
  64 H64            4.7079     4.5929    -6.3836 H       
  65 H65            4.0088     6.2403    -6.2988 H       
  66 H66            5.8168     4.4806    -4.2151 H       
  67 H67            4.7411     4.0214    -2.8734 H       
  68 H68            5.4057     2.0483    -4.2438 H       
  69 H69            3.6497     2.3332    -4.3033 H       
  70 H70            4.6762     2.8137    -5.6757 H       
  71 H71            4.8638     6.9020    -4.1545 H       
  72 H72            3.1784     7.5820    -0.8900 H       
  73 H73            4.4509     8.2863    -1.9340 H       
  74 H74            1.4948     7.9566    -2.4795 H       
  75 H75            2.9802     8.0185    -4.9958 H       
  76 H76            0.6691     7.1668    -4.7683 H       
  77 H77            1.7265     5.8647    -5.3641 H       
  78 H78            1.2287     5.8953    -3.6554 H       
  79 H79            2.6099    10.1969    -2.1907 H       
  80 H80            4.8106    11.6970    -2.0983 H       
  81 H81            5.6798    10.8191    -5.5299 H       
  82 H82            5.8545    12.4317    -4.7968 H       
  83 H83            7.5132    10.9080    -4.0014 H       
  84 H84            3.2740    11.2784    -5.9186 H       
  85 H85            1.7152    12.2082    -3.4620 H       
  86 H86            1.0568    11.9752    -5.1009 H       
  87 H87            1.6137     9.5770    -5.0097 H       
  88 H88           -0.5753    10.2437    -4.1228 H       
  89 H89            0.0823     8.9170    -3.1350 H       
  90 H90            0.1459    10.5909    -2.5330 H       
  91 H91            4.4699    13.4329    -5.6198 H       
  92 H92            2.7331    13.6988    -5.9048 H       
  93 H93            3.3966    13.8383    -4.2590 H       
  94 H94           -2.4183     2.1325    -7.0128 H       
  95 H95           -1.3090     1.1516    -8.0024 H       
  96 H96           -3.1569    -0.2592    -7.1993 H       
  97 H97           -1.7998    -1.9745    -5.9853 H       
  98 H98           -0.1087    -0.5516    -8.0802 H       
  99 H99           -0.1800    -2.2964    -7.7355 H       
 100 H100          -1.5710    -1.4806    -8.4890 H       
 101 H101          -3.6257     0.9784    -5.2059 H       
 102 H102           2.5067    -2.4132    -6.5833 H       
 103 H103           1.2267    -1.5817    -7.4991 H       
 104 H104           2.3611    -0.6411    -6.5008 H       
 105 H105           3.3517    -2.6719    -4.8148 H       
 106 H106           4.8812    -3.3015    -1.5415 H       
 107 H107           1.3588    -4.1463    -4.8727 H       
 108 H108           2.6455    -4.8506    -3.8645 H       
 109 H109           1.2454    -4.0627    -3.0983 H       
@<TRIPOS>BOND
   1    1    2 1
   2    1   48 1
   3    1   49 1
   4    1   50 1
   5    2    3 1
   6    3    4 1
   7    3   43 1
   8    3   51 1
   9    4   42 1
  10    4    5 1
  11    4   52 1
  12    5    6 1
  13    5   39 1
  14    5   53 1
  15    6    7 1
  16    7    8 1
  17    7   37 1
  18    7   11 1
  19    8    9 1
  20    8   54 1
  21    8   55 1
  22    9   10 1
  23    9   56 1
  24    9   57 1
  25   10   11 1
  26   10   12 1
  27   10   13 1
  28   12   58 1
  29   12   59 1
  30   12   60 1
  31   13   14 1
  32   13   17 1
  33   13   61 1
  34   14   15 1
  35   14   62 1
  36   14   63 1
  37   15   16 1
  38   15   64 1
  39   15   65 1
  40   16   17 1
  41   16   18 1
  42   16   20 1
  43   18   19 1
  44   18   66 1
  45   18   67 1
  46   19   68 1
  47   19   69 1
  48   19   70 1
  49   20   21 1
  50   20   24 1
  51   20   71 1
  52   21   22 1
  53   22   23 1
  54   22   72 1
  55   22   73 1
  56   23   24 1
  57   23   26 1
  58   23   74 1
  59   24   25 1
  60   24   75 1
  61   25   76 1
  62   25   77 1
  63   25   78 1
  64   26   27 1
  65   26   34 1
  66   26   79 1
  67   27   28 1
  68   28   29 1
  69   28   30 1
  70   28   32 1
  71   29   80 1
  72   30   31 1
  73   30   81 1
  74   30   82 1
  75   31   83 1
  76   32   33 1
  77   32   36 1
  78   32   84 1
  79   33   34 1
  80   33   85 1
  81   33   86 1
  82   34   35 1
  83   34   87 1
  84   35   88 1
  85   35   89 1
  86   35   90 1
  87   36   91 1
  88   36   92 1
  89   36   93 1
  90   37   38 1
  91   37   94 1
  92   37   95 1
  93   38   39 1
  94   38   41 1
  95   38   96 1
  96   39   40 1
  97   39   97 1
  98   40   98 1
  99   40   99 1
 100   40  100 1
 101   41  101 1
 102   42  102 1
 103   42  103 1
 104   42  104 1
 105   43   44 1
 106   43   47 1
 107   43  105 1
 108   44   45 2
 109   44   46 1
 110   46  106 1
 111   47  107 1
 112   47  108 1
 113   47  109 1

#	End of record

