#	Name: ASD11920045
#	Creating user name:	WinNT
#	Creation time:	15. 06. 2019 21:29

#	Modifying user name:	WinNT
#	Modification time:	15. 06. 2019 21:29

#	Program:	/corina/corina34_cracker 3.40 0067  02.08.2006

@<TRIPOS>MOLECULE
ASD11920045
  37   39    0    0    0
SMALL
NO_CHARGES


@<TRIPOS>ATOM
   1 C1             0.0010     1.1641     0.1783 C.ar    
   2 N2            -2.2555     0.8059    -0.0255 N.am    
   3 O3            -1.5431     2.9645    -0.1819 O.2     
   4 S4            -4.6400     0.6301    -4.4790 S.2     
   5 C5            -0.2306    -0.2206     0.3030 C.ar    
   6 N6            -3.8520    -1.8593    -3.9929 N.am    
   7 O7            -2.2823    -1.4603     0.2096 O.2     
   8 C8             0.8346    -1.0809     0.5159 C.ar    
   9 O9            -3.7973    -0.3930    -2.1773 O.3     
  10 C10            2.1212    -0.5728     0.6046 C.ar    
  11 C11            2.3483     0.7852     0.4827 C.ar    
  12 C12            1.2927     1.6577     0.2687 C.ar    
  13 C13           -1.3267     1.7791    -0.0309 C.2     
  14 C14           -1.6907    -0.4009     0.1597 C.2     
  15 C15           -3.6922     1.0301    -0.2041 C.3     
  16 C16           -4.0391     0.9541    -1.6923 C.3     
  17 C17           -4.0549    -0.6301    -3.4788 C.2     
  18 C18           -4.2031    -2.1293    -5.3202 C.ar    
  19 C19           -3.8587    -1.2361    -6.3263 C.ar    
  20 C20           -4.2061    -1.5053    -7.6356 C.ar    
  21 C21           -4.8969    -2.6634    -7.9452 C.ar    
  22 C22           -5.2413    -3.5551    -6.9449 C.ar    
  23 C23           -4.8914    -3.2937    -5.6346 C.ar    
  24 Br24          -5.3719    -3.0280    -9.7389 Br      
  25 H25           -3.4625    -2.5569    -3.4427 H       
  26 H26            0.6630    -2.1428     0.6126 H       
  27 H27            2.9520    -1.2426     0.7705 H       
  28 H28            3.3552     1.1691     0.5540 H       
  29 H29            1.4760     2.7177     0.1735 H       
  30 H30           -4.2493     0.2663     0.3384 H       
  31 H31           -3.9568     2.0150     0.1808 H       
  32 H32           -3.4173     1.6569    -2.2467 H       
  33 H33           -5.0896     1.2082    -1.8339 H       
  34 H34           -3.3201    -0.3316    -6.0851 H       
  35 H35           -3.9386    -0.8110    -8.4184 H       
  36 H36           -5.7808    -4.4581    -7.1893 H       
  37 H37           -5.1565    -3.9922    -4.8548 H       
@<TRIPOS>BOND
   1    1    5 ar
   2    1   12 ar
   3    1   13 1
   4    2   13 am
   5    2   14 am
   6    2   15 1
   7    3   13 2
   8    4   17 2
   9    5    8 ar
  10    5   14 1
  11    6   17 am
  12    6   18 1
  13    6   25 1
  14    7   14 2
  15    8   10 ar
  16    8   26 1
  17    9   16 1
  18    9   17 1
  19   10   11 ar
  20   10   27 1
  21   11   12 ar
  22   11   28 1
  23   12   29 1
  24   15   16 1
  25   15   30 1
  26   15   31 1
  27   16   32 1
  28   16   33 1
  29   18   19 ar
  30   18   23 ar
  31   19   20 ar
  32   19   34 1
  33   20   21 ar
  34   20   35 1
  35   21   22 ar
  36   21   24 1
  37   22   23 ar
  38   22   36 1
  39   23   37 1

#	End of record

