#	Name: ASD11250002
#	Creating user name:	WinNT
#	Creation time:	15. 06. 2019 21:29

#	Modifying user name:	WinNT
#	Modification time:	15. 06. 2019 21:29

#	Program:	/corina/corina34_cracker 3.40 0067  02.08.2006

@<TRIPOS>MOLECULE
ASD11250002
  26   28    0    0    0
SMALL
NO_CHARGES


@<TRIPOS>ATOM
   1 O1             0.0021    -0.0041     0.0020 O.2     
   2 Se2           -0.0190     1.5493     0.0106 Du      
   3 C3             1.9115     1.9519    -0.0057 C.ar    
   4 C4             2.8829     1.9405     0.9524 C.ar    
   5 C5             4.1857     2.2834     0.6200 C.ar    
   6 C6             4.4761     2.6328    -0.6867 C.ar    
   7 C7             3.5006     2.6450    -1.6526 C.ar    
   8 C8             2.1654     2.3003    -1.3421 C.ar    
   9 C9             1.0199     2.2643    -2.2533 C.2     
  10 O10            1.1972     2.5583    -3.4195 O.2     
  11 N11           -0.2156     1.9230    -1.8606 N.am    
  12 C12           -1.3775     1.8530    -2.6357 C.ar    
  13 C13           -2.5810     1.4767    -2.0534 C.ar    
  14 C14           -3.7267     1.4091    -2.8216 C.ar    
  15 C15           -3.6765     1.7151    -4.1692 C.ar    
  16 C16           -2.4799     2.0902    -4.7521 C.ar    
  17 C17           -1.3317     2.1653    -3.9883 C.ar    
  18 H18            2.6382     1.6655     1.9677 H       
  19 H19            4.9619     2.2780     1.3708 H       
  20 H20            5.4882     2.9010    -0.9516 H       
  21 H21            3.7571     2.9221    -2.6645 H       
  22 H22           -2.6207     1.2369    -1.0011 H       
  23 H23           -4.6628     1.1165    -2.3694 H       
  24 H24           -4.5738     1.6608    -4.7679 H       
  25 H25           -2.4440     2.3286    -5.8048 H       
  26 H26           -0.3975     2.4587    -4.4440 H       
@<TRIPOS>BOND
   1    1    2 2
   2    2    3 1
   3    2   11 1
   4    3    4 ar
   5    3    8 ar
   6    4    5 ar
   7    4   18 1
   8    5    6 ar
   9    5   19 1
  10    6    7 ar
  11    6   20 1
  12    7    8 ar
  13    7   21 1
  14    8    9 1
  15    9   10 2
  16    9   11 am
  17   11   12 1
  18   12   13 ar
  19   12   17 ar
  20   13   14 ar
  21   13   22 1
  22   14   15 ar
  23   14   23 1
  24   15   16 ar
  25   15   24 1
  26   16   17 ar
  27   16   25 1
  28   17   26 1

#	End of record

