#	Name: ASD10160370
#	Creating user name:	WinNT
#	Creation time:	15. 06. 2019 21:25

#	Modifying user name:	WinNT
#	Modification time:	15. 06. 2019 21:25

#	Program:	/corina/corina34_cracker 3.40 0067  02.08.2006

@<TRIPOS>MOLECULE
ASD10160370
  25   25    0    0    0
SMALL
NO_CHARGES


@<TRIPOS>ATOM
   1 C1            -0.0167     1.3812     0.0096 C.ar    
   2 C2             0.0021    -0.0041     0.0020 C.ar    
   3 C3             1.2262    -0.6663    -0.0133 C.ar    
   4 C4             2.3855     0.0912    -0.0203 C.ar    
   5 C5             2.2884     1.4774    -0.0119 C.ar    
   6 N6             1.1077     2.0719     0.0026 N.ar    
   7 O7            -1.1613    -0.7082     0.0098 O.3     
   8 Cl8            3.9402    -0.6810    -0.0388 Cl      
   9 O9             3.4188     2.2296    -0.0183 O.3     
  10 C10            3.2535     3.6490    -0.0091 C.3     
  11 C11            2.4897     4.0654     1.2495 C.3     
  12 C12            4.6273     4.3225    -0.0181 C.3     
  13 C13            2.4667     4.0789    -1.2489 C.3     
  14 H14           -0.9628     1.9020     0.0169 H       
  15 H15            1.2709    -1.7453    -0.0191 H       
  16 H16           -1.5066    -0.9072    -0.8712 H       
  17 H17            3.0502     3.7592     2.1327 H       
  18 H18            2.3636     5.1481     1.2565 H       
  19 H19            1.5110     3.5856     1.2559 H       
  20 H20            5.1715     4.0258    -0.9148 H       
  21 H21            4.5013     5.4051    -0.0111 H       
  22 H22            5.1879     4.0162     0.8651 H       
  23 H23            1.4880     3.5991    -1.2424 H       
  24 H24            2.3406     5.1616    -1.2419 H       
  25 H25            3.0109     3.7823    -2.1455 H       
@<TRIPOS>BOND
   1    1    2 ar
   2    1    6 ar
   3    1   14 1
   4    2    3 ar
   5    2    7 1
   6    3    4 ar
   7    3   15 1
   8    4    5 ar
   9    4    8 1
  10    5    6 ar
  11    5    9 1
  12    7   16 1
  13    9   10 1
  14   10   11 1
  15   10   13 1
  16   10   12 1
  17   11   17 1
  18   11   18 1
  19   11   19 1
  20   12   20 1
  21   12   21 1
  22   12   22 1
  23   13   23 1
  24   13   24 1
  25   13   25 1

#	End of record

