#	Name: ASD11920007
#	Creating user name:	WinNT
#	Creation time:	15. 06. 2019 21:29

#	Modifying user name:	WinNT
#	Modification time:	15. 06. 2019 21:29

#	Program:	/corina/corina34_cracker 3.40 0067  02.08.2006

@<TRIPOS>MOLECULE
ASD11920007
  33   35    0    0    0
SMALL
NO_CHARGES


@<TRIPOS>ATOM
   1 C1            -0.0167     1.3804     0.0096 C.ar    
   2 C2             0.0021    -0.0041     0.0020 C.ar    
   3 C3             1.2110    -0.6789    -0.0131 C.ar    
   4 C4             2.3973     0.0299    -0.0207 C.ar    
   5 C5             2.3774     1.4122    -0.0131 C.ar    
   6 C6             1.1709     2.0870     0.0021 C.ar    
   7 C7             3.6717     2.1840    -0.0208 C.3     
   8 C8             4.0901     2.4488    -1.4441 C.ar    
   9 C9             3.6664     3.6023    -2.0846 C.ar    
  10 C10            4.0497     3.8416    -3.3821 C.ar    
  11 C11            4.8642     2.9298    -4.0608 C.ar    
  12 C12            5.2870     1.7712    -3.4092 C.ar    
  13 C13            4.9007     1.5420    -2.1042 C.ar    
  14 C14            3.6110     5.0851    -4.1191 C.3     
  15 C15            4.0885     5.2523    -5.5453 C.2     
  16 N16            4.8708     4.3115    -6.1018 N.am    
  17 C17            5.2625     3.2062    -5.4528 C.2     
  18 O18            5.9706     2.4057    -6.0309 O.2     
  19 O19            5.3012     4.4968    -7.4380 O.3     
  20 O20            3.7663     6.2312    -6.1839 O.2     
  21 F21           -1.1583    -0.6959     0.0098 F       
  22 H22           -0.9591     1.9078     0.0170 H       
  23 H23            1.2268    -1.7588    -0.0187 H       
  24 H24            3.3404    -0.4962    -0.0321 H       
  25 H25            1.1565     3.1669     0.0080 H       
  26 H26            3.5328     3.1317     0.4995 H       
  27 H27            4.4442     1.6029     0.4829 H       
  28 H28            3.0370     4.3102    -1.5660 H       
  29 H29            5.9163     1.0589    -3.9220 H       
  30 H30            5.2268     0.6457    -1.5976 H       
  31 H31            2.5212     5.1023    -4.1269 H       
  32 H32            3.9512     5.9495    -3.5488 H       
  33 H33            5.8600     3.7826    -7.7738 H       
@<TRIPOS>BOND
   1    1    2 ar
   2    1    6 ar
   3    1   22 1
   4    2    3 ar
   5    2   21 1
   6    3    4 ar
   7    3   23 1
   8    4    5 ar
   9    4   24 1
  10    5    6 ar
  11    5    7 1
  12    6   25 1
  13    7    8 1
  14    7   26 1
  15    7   27 1
  16    8    9 ar
  17    8   13 ar
  18    9   10 ar
  19    9   28 1
  20   10   11 ar
  21   10   14 1
  22   11   12 ar
  23   11   17 1
  24   12   13 ar
  25   12   29 1
  26   13   30 1
  27   14   15 1
  28   14   31 1
  29   14   32 1
  30   15   16 am
  31   15   20 2
  32   16   17 am
  33   16   19 1
  34   17   18 2
  35   19   33 1

#	End of record

