#	Name: ASD10160333
#	Creating user name:	WinNT
#	Creation time:	15. 06. 2019 21:25

#	Modifying user name:	WinNT
#	Modification time:	15. 06. 2019 21:25

#	Program:	/corina/corina34_cracker 3.40 0067  02.08.2006

@<TRIPOS>MOLECULE
ASD10160333
  18   18    0    0    0
SMALL
NO_CHARGES


@<TRIPOS>ATOM
   1 C1            -0.0178     1.4605     0.0101 C.2     
   2 C2             0.0021    -0.0041     0.0020 C.ar    
   3 C3            -1.2032    -0.7280     0.0096 C.ar    
   4 C4            -1.1721    -2.1133     0.0019 C.ar    
   5 C5             0.0422    -2.7819    -0.0132 C.ar    
   6 C6             1.2347    -2.0729    -0.0203 C.ar    
   7 C7             1.2242    -0.6936    -0.0192 C.ar    
   8 O8             1.0246     2.0814     0.0035 O.2     
   9 O9            -2.3913    -0.0732     0.0249 O.3     
  10 C10           -2.9718     0.2472    -1.2410 C.3     
  11 F11            2.3882    -0.0079    -0.0327 F       
  12 F12            0.0644    -4.1327    -0.0206 F       
  13 F13           -2.3274    -2.8136     0.0097 F       
  14 H14           -0.9603     1.9877     0.0174 H       
  15 H15            2.1754    -2.6034    -0.0317 H       
  16 H16           -2.2912     0.8884    -1.8010 H       
  17 H17           -3.1504    -0.6705    -1.8015 H       
  18 H18           -3.9168     0.7679    -1.0860 H       
@<TRIPOS>BOND
   1    1    2 1
   2    1    8 2
   3    1   14 1
   4    2    3 ar
   5    2    7 ar
   6    3    4 ar
   7    3    9 1
   8    4    5 ar
   9    4   13 1
  10    5    6 ar
  11    5   12 1
  12    6    7 ar
  13    6   15 1
  14    7   11 1
  15    9   10 1
  16   10   16 1
  17   10   17 1
  18   10   18 1

#	End of record

