#	Name: ASD10160055
#	Creating user name:	WinNT
#	Creation time:	15. 06. 2019 21:25

#	Modifying user name:	WinNT
#	Modification time:	15. 06. 2019 21:25

#	Program:	/corina/corina34_cracker 3.40 0067  02.08.2006

@<TRIPOS>MOLECULE
ASD10160055
  45   46    0    0    0
SMALL
NO_CHARGES


@<TRIPOS>ATOM
   1 C1            -2.2285    -2.6041     4.8622 C.2     
   2 C2            -1.6271    -3.0068     3.5777 C.ar    
   3 C3            -0.3025    -3.4583     3.5333 C.ar    
   4 C4             0.2555    -3.8340     2.3281 C.ar    
   5 C5            -0.4951    -3.7643     1.1618 C.ar    
   6 C6            -1.8120    -3.3158     1.2023 C.ar    
   7 C7            -2.3794    -2.9443     2.4010 C.ar    
   8 O8            -1.5740    -2.6639     5.8853 O.2     
   9 N9            -3.5020    -2.1645     4.9017 N.am    
  10 S10           -4.1775    -1.7122     6.3444 S.o2    
  11 O11           -5.5066    -1.3392     6.0074 O.2     
  12 O12           -3.9218    -2.8095     7.2103 O.2     
  13 C13           -3.2193    -0.2599     6.8573 C.3     
  14 F14            0.4280    -3.5258     4.6678 F       
  15 O15            0.0574    -4.1341    -0.0213 O.3     
  16 C16            2.4201    -3.8533    -0.1453 C.ar    
  17 C17            1.3080    -4.6676    -0.0027 C.ar    
  18 C18            1.4868    -6.0386     0.1602 C.ar    
  19 C19            2.7783    -6.5379     0.1735 C.ar    
  20 C20            3.8451    -5.6598     0.0247 C.ar    
  21 N21            3.6369    -4.3633    -0.1284 N.ar    
  22 O22            5.1155    -6.1390     0.0362 O.3     
  23 C23            6.1694    -5.1869    -0.1213 C.3     
  24 C24            7.5182    -5.9081    -0.0828 C.3     
  25 C25            7.6322    -6.8414    -1.2898 C.3     
  26 C26            8.6487    -4.8780    -0.1260 C.3     
  27 Cl27           3.0612    -8.2389     0.3740 Cl      
  28 Cl28          -2.7436    -3.2310    -0.2601 Cl      
  29 H29            1.2772    -4.1822     2.2920 H       
  30 H30           -3.4029    -2.6008     2.4313 H       
  31 H31           -4.0228    -2.1130     4.0850 H       
  32 H32           -3.3111     0.5211     6.1025 H       
  33 H33           -3.6001     0.1088     7.8098 H       
  34 H34           -2.1709    -0.5368     6.9680 H       
  35 H35            2.2891    -2.7894    -0.2767 H       
  36 H36            0.6384    -6.6971     0.2740 H       
  37 H37            6.0577    -4.6761    -1.0777 H       
  38 H38            6.1241    -4.4576     0.6875 H       
  39 H39            7.5925    -6.4908     0.8354 H       
  40 H40            6.8268    -7.5752    -1.2589 H       
  41 H41            7.5578    -6.2586    -2.2079 H       
  42 H42            8.5931    -7.3551    -1.2623 H       
  43 H43            8.5675    -4.2131     0.7339 H       
  44 H44            9.6096    -5.3918    -0.0985 H       
  45 H45            8.5743    -4.2953    -1.0442 H       
@<TRIPOS>BOND
   1    1    2 1
   2    1    8 2
   3    1    9 am
   4    2    3 ar
   5    2    7 ar
   6    3    4 ar
   7    3   14 1
   8    4    5 ar
   9    4   29 1
  10    5    6 ar
  11    5   15 1
  12    6    7 ar
  13    6   28 1
  14    7   30 1
  15    9   10 am
  16    9   31 1
  17   10   11 2
  18   10   12 2
  19   10   13 1
  20   13   32 1
  21   13   33 1
  22   13   34 1
  23   15   17 1
  24   16   17 ar
  25   16   21 ar
  26   16   35 1
  27   17   18 ar
  28   18   19 ar
  29   18   36 1
  30   19   20 ar
  31   19   27 1
  32   20   21 ar
  33   20   22 1
  34   22   23 1
  35   23   24 1
  36   23   37 1
  37   23   38 1
  38   24   25 1
  39   24   26 1
  40   24   39 1
  41   25   40 1
  42   25   41 1
  43   25   42 1
  44   26   43 1
  45   26   44 1
  46   26   45 1

#	End of record

