#	Name: ASD11000190
#	Creating user name:	WinNT
#	Creation time:	15. 06. 2019 21:28

#	Modifying user name:	WinNT
#	Modification time:	15. 06. 2019 21:28

#	Program:	/corina/corina34_cracker 3.40 0067  02.08.2006

@<TRIPOS>MOLECULE
ASD11000190
  48   51    0    0    0
SMALL
NO_CHARGES


@<TRIPOS>ATOM
   1 N1            -0.0172     1.3215    -0.0112 N.ar    
   2 C2             0.0016    -0.0034    -0.0060 C.ar    
   3 N3             1.1403    -0.6810    -0.0155 N.ar    
   4 C4             2.3025    -0.0498    -0.0306 C.ar    
   5 C5             2.3192     1.3363    -0.0364 C.ar    
   6 C6             1.1098     2.0136    -0.0262 C.ar    
   7 C7             3.6238     2.0904    -0.0531 C.3     
   8 O8             4.0222     2.3233    -1.4055 O.3     
   9 C9             5.1873     2.9971    -1.5985 C.ar    
  10 C10            5.6334     3.2641    -2.8863 C.ar    
  11 N11           -1.1973    -0.6965     0.0102 N.pl3   
  12 C12           -1.2008    -2.0923    -0.1029 C.ar    
  13 C13           -2.1491    -2.8421     0.5799 C.ar    
  14 C14           -0.2594    -2.7269    -0.9028 C.ar    
  15 C15           -0.2638    -4.1031    -1.0143 C.ar    
  16 C16           -1.2086    -4.8520    -0.3278 C.ar    
  17 C17           -2.1521    -4.2187     0.4674 C.ar    
  18 O18           -1.2126    -6.2073    -0.4384 O.3     
  19 C19            5.9325     3.4258    -0.5101 C.ar    
  20 C20            7.1146     4.1105    -0.7019 C.ar    
  21 C21            7.5693     4.3763    -1.9916 C.ar    
  22 C22            6.8132     3.9470    -3.0752 C.ar    
  23 C23           -0.2155    -6.7926    -1.2783 C.3     
  24 F24           -0.3618    -6.3086    -2.5827 F       
  25 F25            1.0547    -6.4585    -0.7966 F       
  26 N26            8.7154     5.0407    -2.4363 N.am    
  27 C27            8.7885     5.0857    -3.7772 C.2     
  28 C28            7.5613     4.3808    -4.3147 C.3     
  29 O29            9.6702     5.5982    -4.4337 O.2     
  30 C30           -3.1780    -5.0332     1.2126 C.3     
  31 H31            3.2273    -0.6075    -0.0379 H       
  32 H32            1.0881     3.0934    -0.0307 H       
  33 H33            3.4983     3.0449     0.4582 H       
  34 H34            4.3891     1.5038     0.4553 H       
  35 H35            5.0557     2.9362    -3.7378 H       
  36 H36           -2.0347    -0.2151     0.1000 H       
  37 H37           -2.8838    -2.3492     1.1992 H       
  38 H38            0.4757    -2.1440    -1.4378 H       
  39 H39            0.4682    -4.5967    -1.6362 H       
  40 H40            5.5855     3.2229     0.4923 H       
  41 H41            7.6892     4.4418     0.1504 H       
  42 H42           -0.3307    -7.8765    -1.2779 H       
  43 H43            9.3813     5.4254    -1.8451 H       
  44 H44            7.8488     3.5140    -4.9097 H       
  45 H45            6.9553     5.0671    -4.9063 H       
  46 H46           -2.7897    -5.2935     2.1973 H       
  47 H47           -4.0925    -4.4508     1.3249 H       
  48 H48           -3.3937    -5.9443     0.6546 H       
@<TRIPOS>BOND
   1    1    2 ar
   2    1    6 ar
   3    2    3 ar
   4    2   11 1
   5    3    4 ar
   6    4    5 ar
   7    4   31 1
   8    5    6 ar
   9    5    7 1
  10    6   32 1
  11    7    8 1
  12    7   33 1
  13    7   34 1
  14    8    9 1
  15    9   19 ar
  16    9   10 ar
  17   10   22 ar
  18   10   35 1
  19   11   12 1
  20   11   36 1
  21   12   13 ar
  22   12   14 ar
  23   13   17 ar
  24   13   37 1
  25   14   15 ar
  26   14   38 1
  27   15   16 ar
  28   15   39 1
  29   16   17 ar
  30   16   18 1
  31   17   30 1
  32   18   23 1
  33   19   20 ar
  34   19   40 1
  35   20   21 ar
  36   20   41 1
  37   21   22 ar
  38   21   26 1
  39   22   28 1
  40   23   24 1
  41   23   25 1
  42   23   42 1
  43   26   27 am
  44   26   43 1
  45   27   28 1
  46   27   29 2
  47   28   44 1
  48   28   45 1
  49   30   46 1
  50   30   47 1
  51   30   48 1

#	End of record

