#	Name: ASD10160159
#	Creating user name:	WinNT
#	Creation time:	15. 06. 2019 21:25

#	Modifying user name:	WinNT
#	Modification time:	15. 06. 2019 21:25

#	Program:	/corina/corina34_cracker 3.40 0067  02.08.2006

@<TRIPOS>MOLECULE
ASD10160159
  52   54    0    0    0
SMALL
NO_CHARGES


@<TRIPOS>ATOM
   1 C1            -2.2278    -2.6081     4.8627 C.2     
   2 C2            -1.6266    -3.0100     3.5778 C.ar    
   3 C3            -0.3021    -3.4608     3.5328 C.ar    
   4 C4             0.2562    -3.8359     2.3274 C.ar    
   5 C5            -0.4939    -3.7659     1.1611 C.ar    
   6 C6            -1.8119    -3.3180     1.2016 C.ar    
   7 C7            -2.3796    -2.9474     2.4012 C.ar    
   8 O8            -1.5728    -2.6680     5.8855 O.2     
   9 N9            -3.5014    -2.1691     4.9028 N.am    
  10 S10           -4.1766    -1.7178     6.3459 S.o2    
  11 O11           -5.5060    -1.3452     6.0096 O.2     
  12 O12           -3.9201    -2.8153     7.2113 O.2     
  13 C13           -3.2190    -0.2651     6.8590 C.3     
  14 F14           -2.5369    -3.2521     0.0635 F       
  15 F15            0.4286    -3.5282     4.6672 F       
  16 O16            0.0593    -4.1349    -0.0222 O.3     
  17 C17            2.4213    -3.8526    -0.1457 C.ar    
  18 C18            1.3102    -4.6677    -0.0036 C.ar    
  19 C19            1.4894    -6.0392     0.1590 C.ar    
  20 C20            2.7802    -6.5384     0.1724 C.ar    
  21 C21            3.8485    -5.6589     0.0240 C.ar    
  22 N22            3.6391    -4.3611    -0.1280 N.ar    
  23 N23            5.1520    -6.1498     0.0359 N.pl3   
  24 N24            8.9355    -4.7121    -1.1348 N.3     
  25 C25            8.7210    -4.9049     0.3051 C.3     
  26 C26            7.5304    -5.8412     0.5239 C.3     
  27 C27            6.2823    -5.2309    -0.1198 C.3     
  28 C28            6.5490    -4.9954    -1.6091 C.3     
  29 C29            7.7680    -4.0836    -1.7661 C.3     
  30 C30           10.1539    -3.9307    -1.3856 C.3     
  31 Cl31           3.0630    -8.2395     0.3725 Cl      
  32 H32            1.2780    -4.1838     2.2914 H       
  33 H33           -3.4034    -2.6048     2.4320 H       
  34 H34           -4.0226    -2.1176     4.0863 H       
  35 H35           -3.3114     0.5161     6.1045 H       
  36 H36           -3.5996     0.1030     7.8117 H       
  37 H37           -2.1704    -0.5416     6.9692 H       
  38 H38            2.2892    -2.7888    -0.2767 H       
  39 H39            0.6410    -6.6977     0.2724 H       
  40 H40            5.3114    -7.1001     0.1473 H       
  41 H41            9.6143    -5.3433     0.7498 H       
  42 H42            8.5170    -3.9423     0.7740 H       
  43 H43            7.7394    -6.8085     0.0671 H       
  44 H44            7.3617    -5.9717     1.5929 H       
  45 H45            6.0498    -4.2822     0.3641 H       
  46 H46            6.7425    -5.9494    -2.0994 H       
  47 H47            5.6791    -4.5216    -2.0640 H       
  48 H48            7.5685    -3.1249    -1.2875 H       
  49 H49            7.9692    -3.9255    -2.8256 H       
  50 H50           11.0142    -4.4563    -0.9714 H       
  51 H51           10.2888    -3.8027    -2.4596 H       
  52 H52           10.0626    -2.9533    -0.9118 H       
@<TRIPOS>BOND
   1    1    2 1
   2    1    8 2
   3    1    9 am
   4    2    3 ar
   5    2    7 ar
   6    3    4 ar
   7    3   15 1
   8    4    5 ar
   9    4   32 1
  10    5    6 ar
  11    5   16 1
  12    6    7 ar
  13    6   14 1
  14    7   33 1
  15    9   10 am
  16    9   34 1
  17   10   11 2
  18   10   12 2
  19   10   13 1
  20   13   35 1
  21   13   36 1
  22   13   37 1
  23   16   18 1
  24   17   18 ar
  25   17   22 ar
  26   17   38 1
  27   18   19 ar
  28   19   20 ar
  29   19   39 1
  30   20   21 ar
  31   20   31 1
  32   21   22 ar
  33   21   23 1
  34   23   27 1
  35   23   40 1
  36   24   25 1
  37   24   29 1
  38   24   30 1
  39   25   26 1
  40   25   41 1
  41   25   42 1
  42   26   27 1
  43   26   43 1
  44   26   44 1
  45   27   28 1
  46   27   45 1
  47   28   29 1
  48   28   46 1
  49   28   47 1
  50   29   48 1
  51   29   49 1
  52   30   50 1
  53   30   51 1
  54   30   52 1

#	End of record

