#	Name: ASD10610007
#	Creating user name:	WinNT
#	Creation time:	15. 06. 2019 21:27

#	Modifying user name:	WinNT
#	Modification time:	15. 06. 2019 21:27

#	Program:	/corina/corina34_cracker 3.40 0067  02.08.2006

@<TRIPOS>MOLECULE
ASD10610007
  55   59    0    0    0
SMALL
NO_CHARGES


@<TRIPOS>ATOM
   1 C1            -0.2420     1.7533     0.0345 C.ar    
   2 C2            -0.3838     0.3676     0.0857 C.ar    
   3 C3             0.7503    -0.4405     0.1245 C.ar    
   4 C4             2.0093     0.1302     0.1124 C.ar    
   5 C5             2.1442     1.5065     0.0616 C.ar    
   6 C6             1.0180     2.3133     0.0228 C.ar    
   7 C7             3.6126     1.8758     0.0580 C.3     
   8 C8            -1.7345    -0.2431     0.0992 C.ar    
   9 C9            -2.0466    -1.2698    -0.7866 C.ar    
  10 C10           -3.3070    -1.8370    -0.7720 C.ar    
  11 C11           -4.2660    -1.3895     0.1211 C.ar    
  12 C12           -3.9725    -0.3703     1.0086 C.ar    
  13 C13           -2.7036     0.2078     1.0098 C.ar    
  14 F14           -4.9130     0.0616     1.8769 F       
  15 C15           -2.3835     1.3003     1.9586 C.2     
  16 N16           -3.2191     1.8371     2.8771 N.2     
  17 N17            4.0282     2.3203     1.3906 N.am    
  18 C18            3.8758     3.6107     1.7486 C.2     
  19 O19            3.4806     4.4221     0.9384 O.2     
  20 C20            4.1965     4.0453     3.1555 C.3     
  21 N21            5.3406     3.3753     3.7785 N.am    
  22 C22            6.5483     3.4085     3.1810 C.2     
  23 C23            7.6980     2.6262     3.7617 C.3     
  24 O24            6.7097     4.0680     2.1760 O.2     
  25 F25            8.8375     2.8170     2.9728 F       
  26 F26            7.9529     3.0692     5.0640 F       
  27 F27            7.3710     1.2662     3.7874 F       
  28 Cl28          -3.6902    -3.1172    -1.8801 Cl      
  29 C29           -2.5224     2.7625     3.4881 C.2     
  30 O30           -1.3042     2.7664     2.9378 O.3     
  31 N31           -1.2378     1.9227     2.0689 N.2     
  32 C32            3.3776    -0.5168     0.1460 C.3     
  33 C33            4.3545     0.5793    -0.3296 C.3     
  34 C34            3.9569     5.5135     3.5133 C.3     
  35 C35            3.0243     4.4299     4.0605 C.3     
  36 C36           -3.0039     3.6557     4.6022 C.3     
  37 H37           -1.1164     2.3862    -0.0004 H       
  38 H38            0.6457    -1.5147     0.1645 H       
  39 H39            1.1279     3.3870    -0.0169 H       
  40 H40            3.8042     2.6572    -0.6775 H       
  41 H41           -1.3036    -1.6235    -1.4861 H       
  42 H42           -5.2482    -1.8385     0.1243 H       
  43 H43            4.4131     1.6859     2.0154 H       
  44 H44            5.2290     2.9077     4.6210 H       
  45 H45            3.6238    -0.8283     1.1611 H       
  46 H46            3.4089    -1.3708    -0.5306 H       
  47 H47            4.5022     0.5251    -1.4082 H       
  48 H48            5.3060     0.5052     0.1970 H       
  49 H49            4.6503     5.9807     4.2125 H       
  50 H50            3.5673     6.1650     2.7311 H       
  51 H51            2.0213     4.3690     3.6383 H       
  52 H52            3.1046     4.1848     5.1196 H       
  53 H53           -2.8059     3.1783     5.5619 H       
  54 H54           -2.4787     4.6097     4.5558 H       
  55 H55           -4.0752     3.8252     4.4948 H       
@<TRIPOS>BOND
   1    1    2 ar
   2    1    6 ar
   3    1   37 1
   4    2    3 ar
   5    2    8 1
   6    3    4 ar
   7    3   38 1
   8    4    5 ar
   9    4   32 1
  10    5    6 ar
  11    5    7 1
  12    6   39 1
  13    7   17 1
  14    7   33 1
  15    7   40 1
  16    8    9 ar
  17    8   13 ar
  18    9   10 ar
  19    9   41 1
  20   10   11 ar
  21   10   28 1
  22   11   12 ar
  23   11   42 1
  24   12   13 ar
  25   12   14 1
  26   13   15 1
  27   15   16 1
  28   15   31 2
  29   16   29 2
  30   17   18 am
  31   17   43 1
  32   18   19 2
  33   18   20 1
  34   20   21 1
  35   20   34 1
  36   20   35 1
  37   21   22 am
  38   21   44 1
  39   22   23 1
  40   22   24 2
  41   23   25 1
  42   23   26 1
  43   23   27 1
  44   29   30 1
  45   29   36 1
  46   30   31 1
  47   32   33 1
  48   32   45 1
  49   32   46 1
  50   33   47 1
  51   33   48 1
  52   34   35 1
  53   34   49 1
  54   34   50 1
  55   35   51 1
  56   35   52 1
  57   36   53 1
  58   36   54 1
  59   36   55 1

#	End of record

