#	Name: ASD13410002
#	Creating user name:	WinNT
#	Creation time:	15. 06. 2019 21:30

#	Modifying user name:	WinNT
#	Modification time:	15. 06. 2019 21:30

#	Program:	/corina/corina34_cracker 3.40 0067  02.08.2006

@<TRIPOS>MOLECULE
ASD13410002
  32   34    0    0    0
SMALL
NO_CHARGES


@<TRIPOS>ATOM
   1 O1             0.0812     1.1925     0.0722 O.3     
   2 C2             0.3691    -0.2193     0.1715 C.3     
   3 C3             1.5792    -0.3091     1.1275 C.3     
   4 C4             2.2531     1.0764     1.0113 C.3     
   5 C5             1.3704     1.8394    -0.0011 C.3     
   6 C6             1.5375     0.8279    -2.3069 C.2     
   7 N7             1.9245     1.7205    -1.3521 N.pl3   
   8 C8             2.9278     2.4874    -1.8884 C.ar    
   9 C9             3.1194     2.0140    -3.1976 C.ar    
  10 N10            2.2397     1.0017    -3.3888 N.2     
  11 N11            3.6775     3.4928    -1.4489 N.ar    
  12 C12            4.5882     4.0403    -2.2261 C.ar    
  13 N13            4.8041     3.6302    -3.4626 N.ar    
  14 C14            4.1037     2.6304    -3.9884 C.ar    
  15 N15            4.3379     2.2071    -5.2850 N.pl3   
  16 C16           -0.8298    -0.9673     0.7581 C.3     
  17 O17           -1.9235    -0.9084    -0.1596 O.3     
  18 O18            1.1422    -0.5425     2.4678 O.3     
  19 O19            2.2528     1.7410     2.2763 O.3     
  20 H20            0.6278    -0.6235    -0.8072 H       
  21 H21            2.2629    -1.0945     0.8054 H       
  22 H22            3.2699     0.9759     0.6317 H       
  23 H23            1.2855     2.8880     0.2841 H       
  24 H24            0.7653     0.0832    -2.1824 H       
  25 H25            5.1806     4.8557    -1.8380 H       
  26 H26            3.8196     1.4767    -5.6578 H       
  27 H27            5.0202     2.6407    -5.8210 H       
  28 H28           -0.5582    -2.0083     0.9333 H       
  29 H29           -1.1211    -0.5043     1.7008 H       
  30 H30           -2.7197    -1.3631     0.1476 H       
  31 H31            0.6591    -1.3720     2.5852 H       
  32 H32            2.7429     1.2733     2.9664 H       
@<TRIPOS>BOND
   1    1    2 1
   2    1    5 1
   3    2    3 1
   4    2   16 1
   5    2   20 1
   6    3    4 1
   7    3   18 1
   8    3   21 1
   9    4    5 1
  10    4   19 1
  11    4   22 1
  12    5    7 1
  13    5   23 1
  14    6    7 1
  15    6   10 2
  16    6   24 1
  17    7    8 1
  18    8   11 ar
  19    8    9 ar
  20    9   10 1
  21    9   14 ar
  22   11   12 ar
  23   12   13 ar
  24   12   25 1
  25   13   14 ar
  26   14   15 1
  27   15   26 1
  28   15   27 1
  29   16   17 1
  30   16   28 1
  31   16   29 1
  32   17   30 1
  33   18   31 1
  34   19   32 1

#	End of record

