#	Name: ASD10160351
#	Creating user name:	WinNT
#	Creation time:	15. 06. 2019 21:25

#	Modifying user name:	WinNT
#	Modification time:	15. 06. 2019 21:25

#	Program:	/corina/corina34_cracker 3.40 0067  02.08.2006

@<TRIPOS>MOLECULE
ASD10160351
  21   21    0    0    0
SMALL
NO_CHARGES


@<TRIPOS>ATOM
   1 C1            -0.0168     1.3861     0.0097 C.ar    
   2 C2             0.0021    -0.0041     0.0020 C.ar    
   3 C3             1.2210    -0.6607    -0.0131 C.ar    
   4 C4             2.3825     0.0998    -0.0201 C.ar    
   5 C5             2.2883     1.4769    -0.0118 C.ar    
   6 N6             1.1118     2.0749     0.0026 N.ar    
   7 O7            -1.2046     2.0422     0.0188 O.3     
   8 C8            -1.1569     3.4703     0.0264 C.3     
   9 C9            -2.5815     4.0282     0.0361 C.3     
  10 C10           -3.3135     3.5358     1.2861 C.3     
  11 F11           -4.6161     4.0459     1.2951 F       
  12 F12           -3.3602     2.1376     1.2788 F       
  13 F13           -2.5348     5.4264     0.0435 F       
  14 F14           -3.2616     3.5904    -1.1054 F       
  15 Cl15          -1.4823    -0.9043     0.0119 Cl      
  16 H16            1.2672    -1.7397    -0.0190 H       
  17 H17            3.3495    -0.3810    -0.0316 H       
  18 H18            3.1890     2.0728    -0.0172 H       
  19 H19           -0.6270     3.8115     0.9157 H       
  20 H20           -0.6354     3.8211    -0.8642 H       
  21 H21           -2.7836     3.8769     2.1755 H       
@<TRIPOS>BOND
   1    1    2 ar
   2    1    6 ar
   3    1    7 1
   4    2    3 ar
   5    2   15 1
   6    3    4 ar
   7    3   16 1
   8    4    5 ar
   9    4   17 1
  10    5    6 ar
  11    5   18 1
  12    7    8 1
  13    8    9 1
  14    8   19 1
  15    8   20 1
  16    9   10 1
  17    9   13 1
  18    9   14 1
  19   10   11 1
  20   10   12 1
  21   10   21 1

#	End of record

