#	Name: ASD10420082
#	Creating user name:	WinNT
#	Creation time:	15. 06. 2019 21:27

#	Modifying user name:	WinNT
#	Modification time:	15. 06. 2019 21:27

#	Program:	/corina/corina34_cracker 3.40 0067  02.08.2006

@<TRIPOS>MOLECULE
ASD10420082
  35   36    0    0    0
SMALL
NO_CHARGES


@<TRIPOS>ATOM
   1 C1             1.2083     1.4998    -1.3574 C.ar    
   2 C2             1.2337     0.1236    -1.4713 C.ar    
   3 C3             1.2316    -0.6670    -0.3317 C.ar    
   4 O4             1.2566    -2.0220    -0.4441 O.3     
   5 C5             1.2045    -0.0754     0.9230 C.ar    
   6 C6             1.1796     1.3015     1.0370 C.ar    
   7 C7             1.1812     2.0918    -0.1029 C.ar    
   8 C8             4.7616     5.4315     0.3020 C.ar    
   9 C9             3.5764     6.1320     0.4281 C.ar    
  10 C10            2.3673     5.4697     0.3306 C.ar    
  11 C11            2.3440     4.1003     0.1059 C.ar    
  12 O12            1.1566     3.4466     0.0091 O.3     
  13 C13            3.5353     3.4001    -0.0202 C.ar    
  14 C14            4.7409     4.0670     0.0781 C.ar    
  15 C15            6.0785     6.1572     0.4031 C.3     
  16 C16            6.5408     6.1743     1.8615 C.3     
  17 N17            6.8187     4.8011     2.3033 N.3     
  18 C18            7.7931     7.0039     1.9819 C.2     
  19 O19            8.8725     6.4639     2.0371 O.2     
  20 O20            7.7093     8.3428     2.0277 O.3     
  21 I21            0.5716     6.5315     0.5231 I       
  22 I22            1.2007    -1.2694     2.6444 I       
  23 H23            1.2141     2.1152    -2.2448 H       
  24 H24            1.2548    -0.3370    -2.4480 H       
  25 H25            2.1470    -2.3986    -0.4644 H       
  26 H26            1.1581     1.7623     2.0136 H       
  27 H27            3.5954     7.1976     0.6030 H       
  28 H28            3.5199     2.3344    -0.1947 H       
  29 H29            5.6683     3.5224    -0.0203 H       
  30 H30            6.8227     5.6463    -0.2079 H       
  31 H31            5.9576     7.1807     0.0482 H       
  32 H32            5.7580     6.6053     2.4857 H       
  33 H33            7.5417     4.3794     1.7397 H       
  34 H34            7.0638     4.7787     3.2818 H       
  35 H35            8.5397     8.8322     2.1052 H       
@<TRIPOS>BOND
   1    1    2 ar
   2    1    7 ar
   3    1   23 1
   4    2    3 ar
   5    2   24 1
   6    3    4 1
   7    3    5 ar
   8    4   25 1
   9    5    6 ar
  10    5   22 1
  11    6    7 ar
  12    6   26 1
  13    7   12 1
  14    8    9 ar
  15    8   14 ar
  16    8   15 1
  17    9   10 ar
  18    9   27 1
  19   10   11 ar
  20   10   21 1
  21   11   12 1
  22   11   13 ar
  23   13   14 ar
  24   13   28 1
  25   14   29 1
  26   15   16 1
  27   15   30 1
  28   15   31 1
  29   16   17 1
  30   16   18 1
  31   16   32 1
  32   17   33 1
  33   17   34 1
  34   18   19 2
  35   18   20 1
  36   20   35 1

#	End of record

