#	Name: ASD10610018
#	Creating user name:	WinNT
#	Creation time:	15. 06. 2019 21:27

#	Modifying user name:	WinNT
#	Modification time:	15. 06. 2019 21:27

#	Program:	/corina/corina34_cracker 3.40 0067  02.08.2006

@<TRIPOS>MOLECULE
ASD10610018
  55   59    0    0    0
SMALL
NO_CHARGES


@<TRIPOS>ATOM
   1 C1            -0.0089     1.5155     0.0198 C.3     
   2 C2             0.1340    -0.0071    -0.0266 C.3     
   3 C3             1.3814     0.8769     0.0345 C.3     
   4 C4            -0.4410     2.2127    -1.2444 C.2     
   5 O5            -0.2321     1.6980    -2.3226 O.2     
   6 N6            -1.0597     3.4082    -1.1770 N.am    
   7 C7            -1.3803     4.1375    -2.4065 C.3     
   8 C8            -2.5704     5.0908    -2.1687 C.3     
   9 C9            -1.8671     6.4089    -1.7817 C.3     
  10 C10           -0.5064     6.3406    -2.4419 C.ar    
  11 C11            0.4105     7.3419    -2.7051 C.ar    
  12 C12            1.6166     7.0393    -3.3322 C.ar    
  13 C13            1.8958     5.7222    -3.6930 C.ar    
  14 C14            0.9751     4.7283    -3.4262 C.ar    
  15 C15           -0.2263     5.0348    -2.8012 C.ar    
  16 F16            1.2444     3.4513    -3.7755 F       
  17 C17            2.5989     8.1130    -3.6151 C.ar    
  18 C18            3.9430     7.9565    -3.2401 C.ar    
  19 C19            4.8574     8.9734    -3.5120 C.ar    
  20 C20            4.4377    10.1276    -4.1478 C.ar    
  21 C21            3.1118    10.2801    -4.5168 C.ar    
  22 C22            2.1947     9.2786    -4.2587 C.ar    
  23 O23            4.3048     4.8408    -1.6963 O.3     
  24 N24            3.6375     5.6918    -2.2454 N.2     
  25 C25            4.3870     6.7177    -2.5586 C.2     
  26 N26            5.6433     6.4351    -2.1441 N.2     
  27 C27            5.5753     5.2454    -1.6011 C.2     
  28 C28            6.7154     4.4766    -0.9845 C.3     
  29 F29            6.1524     8.8314    -3.1543 F       
  30 Cl30           2.5997    11.7346    -5.3142 Cl      
  31 N31           -0.4926     2.1118     1.2675 N.am    
  32 C32           -1.7446     1.8559     1.6957 C.2     
  33 O33           -2.4395     1.0619     1.0977 O.2     
  34 C34           -2.2811     2.5564     2.9174 C.3     
  35 F35           -3.5909     2.1300     3.1619 F       
  36 F36           -1.4774     2.2505     4.0209 F       
  37 F37           -2.2730     3.9389     2.7035 F       
  38 H38           -0.1318    -0.5651     0.8712 H       
  39 H39           -0.0845    -0.5045    -0.9715 H       
  40 H40            1.9834     0.9610    -0.8702 H       
  41 H41            1.9361     0.9004     0.9725 H       
  42 H42           -1.2926     3.7858    -0.3144 H       
  43 H43           -1.6102     3.4387    -3.2108 H       
  44 H44           -3.1543     5.2165    -3.0805 H       
  45 H45           -3.1972     4.7319    -1.3523 H       
  46 H46           -2.4289     7.2627    -2.1605 H       
  47 H47           -1.7593     6.4763    -0.6991 H       
  48 H48            0.1905     8.3612    -2.4240 H       
  49 H49            2.8288     5.4799    -4.1800 H       
  50 H50            5.1475    10.9141    -4.3572 H       
  51 H51            1.1630     9.4024    -4.5533 H       
  52 H52            6.3502     3.5176    -0.6169 H       
  53 H53            7.4877     4.3079    -1.7349 H       
  54 H54            7.1329     5.0483    -0.1556 H       
  55 H55            0.0883     2.6908     1.7854 H       
@<TRIPOS>BOND
   1    1    2 1
   2    1    3 1
   3    1    4 1
   4    1   31 1
   5    2    3 1
   6    2   38 1
   7    2   39 1
   8    3   40 1
   9    3   41 1
  10    4    5 2
  11    4    6 am
  12    6    7 1
  13    6   42 1
  14    7    8 1
  15    7   15 1
  16    7   43 1
  17    8    9 1
  18    8   44 1
  19    8   45 1
  20    9   10 1
  21    9   46 1
  22    9   47 1
  23   10   11 ar
  24   10   15 ar
  25   11   12 ar
  26   11   48 1
  27   12   13 ar
  28   12   17 1
  29   13   14 ar
  30   13   49 1
  31   14   15 ar
  32   14   16 1
  33   17   18 ar
  34   17   22 ar
  35   18   19 ar
  36   18   25 1
  37   19   20 ar
  38   19   29 1
  39   20   21 ar
  40   20   50 1
  41   21   22 ar
  42   21   30 1
  43   22   51 1
  44   23   24 1
  45   23   27 1
  46   24   25 2
  47   25   26 1
  48   26   27 2
  49   27   28 1
  50   28   52 1
  51   28   53 1
  52   28   54 1
  53   31   32 am
  54   31   55 1
  55   32   33 2
  56   32   34 1
  57   34   35 1
  58   34   36 1
  59   34   37 1

#	End of record

