#	Name: ASD10160464
#	Creating user name:	WinNT
#	Creation time:	15. 06. 2019 21:26

#	Modifying user name:	WinNT
#	Modification time:	15. 06. 2019 21:26

#	Program:	/corina/corina34_cracker 3.40 0067  02.08.2006

@<TRIPOS>MOLECULE
ASD10160464
  27   28    0    0    0
SMALL
NO_CHARGES


@<TRIPOS>ATOM
   1 C1            -0.0033    -0.0035     0.1210 C.1     
   2 C2            -0.0208     1.4282     0.0984 C.ar    
   3 C3            -0.0069     2.1114    -1.1235 C.ar    
   4 C4            -0.0243     3.4916    -1.1401 C.ar    
   5 C5            -0.0555     4.2017     0.0526 C.ar    
   6 C6            -0.0694     3.5263     1.2699 C.ar    
   7 C7            -0.0576     2.1482     1.2964 C.ar    
   8 N8             0.0105    -1.1393     0.1390 N.1     
   9 O9            -0.0720     5.5592     0.0316 O.3     
  10 C10            2.2925     5.5096     0.3206 C.ar    
  11 C11            1.1159     6.2137     0.1289 C.ar    
  12 C12            1.1676     7.6065     0.0364 C.ar    
  13 C13            2.4074     8.2283     0.1418 C.ar    
  14 C14            3.5343     7.4537     0.3326 C.ar    
  15 N15            3.4480     6.1398     0.4153 N.ar    
  16 O16            0.0367     8.3348    -0.1520 O.3     
  17 C17            0.1850     9.7537    -0.2346 C.3     
  18 F18           -0.0998     4.2228     2.4271 F       
  19 F19            0.0239     1.4211    -2.2845 F       
  20 H20           -0.0132     4.0198    -2.0820 H       
  21 H21           -0.0726     1.6253     2.2413 H       
  22 H22            2.2638     4.4327     0.3981 H       
  23 H23            2.4876     9.3033     0.0750 H       
  24 H24            4.5001     7.9301     0.4149 H       
  25 H25            0.6234    10.1277     0.6906 H       
  26 H26            0.8366    10.0027    -1.0721 H       
  27 H27           -0.7920    10.2129    -0.3853 H       
@<TRIPOS>BOND
   1    1    2 1
   2    1    8 3
   3    2    3 ar
   4    2    7 ar
   5    3    4 ar
   6    3   19 1
   7    4    5 ar
   8    4   20 1
   9    5    6 ar
  10    5    9 1
  11    6    7 ar
  12    6   18 1
  13    7   21 1
  14    9   11 1
  15   10   11 ar
  16   10   15 ar
  17   10   22 1
  18   11   12 ar
  19   12   13 ar
  20   12   16 1
  21   13   14 ar
  22   13   23 1
  23   14   15 ar
  24   14   24 1
  25   16   17 1
  26   17   25 1
  27   17   26 1
  28   17   27 1

#	End of record

