#	Name: ASD14640035
#	Creating user name:	WinNT
#	Creation time:	15. 06. 2019 21:31

#	Modifying user name:	WinNT
#	Modification time:	15. 06. 2019 21:31

#	Program:	/corina/corina34_cracker 3.40 0067  02.08.2006

@<TRIPOS>MOLECULE
ASD14640035
  33   36    0    0    0
SMALL
NO_CHARGES


@<TRIPOS>ATOM
   1 C1            -0.0163     1.3482     0.0095 C.2     
   2 C2             2.3821     1.5248     0.0917 C.2     
   3 C3            -1.7418     2.7286     1.1593 C.ar    
   4 C4             1.2856    -0.7032    -0.1117 C.ar    
   5 C5             3.7077    -0.5937    -0.0344 C.ar    
   6 C6            -3.3547     2.6729    -1.0996 C.ar    
   7 C7            -2.9583     3.3785     1.1600 C.ar    
   8 C8             1.3560    -2.0950    -0.2168 C.ar    
   9 C9             3.7553    -1.9681    -0.1381 C.ar    
  10 C10           -3.7629     3.3512     0.0341 C.ar    
  11 C11            2.5871    -2.7127    -0.2291 C.ar    
  12 N12            1.1371     2.1026     0.1007 N.pl3   
  13 C13            1.2972     3.5644     0.2181 C.3     
  14 C14           -1.3213     2.0412     0.0193 C.ar    
  15 C15            0.0035    -0.0001    -0.0941 C.2     
  16 C16            2.4736     0.0509    -0.0203 C.ar    
  17 N17            3.3562     2.3933     0.1865 N.2     
  18 C18            2.8233     3.7558     0.2765 C.3     
  19 C19           -2.1405     2.0120    -1.1130 C.ar    
  20 F20           -1.7422     1.3491    -2.2207 F       
  21 H21           -1.1138     2.7551     2.0375 H       
  22 H22            4.6210    -0.0216     0.0356 H       
  23 H23           -3.9856     2.6592    -1.9760 H       
  24 H24           -3.2840     3.9104     2.0417 H       
  25 H25            0.4521    -2.6818    -0.2876 H       
  26 H26            4.7113    -2.4704    -0.1492 H       
  27 H27           -4.7142     3.8625     0.0410 H       
  28 H28            2.6442    -3.7882    -0.3099 H       
  29 H29            0.8805     4.0674    -0.6546 H       
  30 H30            0.8271     3.9299     1.1310 H       
  31 H31           -0.9213    -0.5537    -0.1629 H       
  32 H32            3.1655     4.3563    -0.5664 H       
  33 H33            3.1145     4.2184     1.2195 H       
@<TRIPOS>BOND
   1    1   15 2
   2    1   12 1
   3    1   14 1
   4    2   16 1
   5    2   12 1
   6    2   17 2
   7    3   14 ar
   8    3   21 1
   9    3    7 ar
  10    4    8 ar
  11    4   15 1
  12    4   16 ar
  13    5    9 ar
  14    5   22 1
  15    5   16 ar
  16    6   19 ar
  17    6   23 1
  18    6   10 ar
  19    7   24 1
  20    7   10 ar
  21    8   11 ar
  22    8   25 1
  23    9   11 ar
  24    9   26 1
  25   10   27 1
  26   11   28 1
  27   12   13 1
  28   13   29 1
  29   13   30 1
  30   13   18 1
  31   14   19 ar
  32   15   31 1
  33   17   18 1
  34   18   32 1
  35   18   33 1
  36   19   20 1

#	End of record

