#	Name: ASD10160286
#	Creating user name:	WinNT
#	Creation time:	15. 06. 2019 21:25

#	Modifying user name:	WinNT
#	Modification time:	15. 06. 2019 21:25

#	Program:	/corina/corina34_cracker 3.40 0067  02.08.2006

@<TRIPOS>MOLECULE
ASD10160286
  39   40    0    0    0
SMALL
NO_CHARGES


@<TRIPOS>ATOM
   1 C1             2.2685    -2.5210    -4.9015 C.2     
   2 C2             1.6864    -2.9450    -3.6142 C.ar    
   3 C3             2.4463    -2.8716    -2.4475 C.ar    
   4 C4             1.8913    -3.2727    -1.2351 C.ar    
   5 C5             0.5703    -3.7483    -1.1965 C.ar    
   6 C6            -0.1775    -3.8172    -2.3649 C.ar    
   7 C7             0.3692    -3.4156    -3.5630 C.ar    
   8 O8             3.4103    -2.1078    -4.9451 O.2     
   9 O9             1.5360    -2.5972    -6.0298 O.3     
  10 C10            2.6648    -3.2011    -0.0321 C.1     
  11 N11            3.2784    -3.1443     0.9223 N.1     
  12 O12            0.0255    -4.1404    -0.0194 O.3     
  13 C13           -2.3416    -3.9023     0.1081 C.ar    
  14 C14           -1.2155    -4.6954    -0.0438 C.ar    
  15 C15           -1.3704    -6.0674    -0.2222 C.ar    
  16 C16           -2.6530    -6.5890    -0.2409 C.ar    
  17 C17           -3.7349    -5.7314    -0.0821 C.ar    
  18 N18           -3.5494    -4.4332     0.0851 N.ar    
  19 O19           -4.9967    -6.2324    -0.0993 O.3     
  20 C20           -6.0670    -5.3007     0.0690 C.3     
  21 C21           -7.4031    -6.0448     0.0220 C.3     
  22 C22           -7.5007    -6.9938     1.2181 C.3     
  23 C23           -8.5514    -5.0352     0.0770 C.3     
  24 Cl24          -2.9062    -8.2923    -0.4605 Cl      
  25 H25            3.4616    -2.5053    -2.4841 H       
  26 H26           -1.1931    -4.1832    -2.3329 H       
  27 H27           -0.2191    -3.4674    -4.4672 H       
  28 H28            1.9605    -2.3080    -6.8491 H       
  29 H29           -2.2293    -2.8378     0.2514 H       
  30 H30           -0.5106    -6.7096    -0.3435 H       
  31 H31           -5.9642    -4.7992     1.0313 H       
  32 H32           -6.0345    -4.5615    -0.7313 H       
  33 H33           -7.4673    -6.6181    -0.9028 H       
  34 H34           -6.6826    -7.7131     1.1789 H       
  35 H35           -7.4364    -6.4206     2.1430 H       
  36 H36           -8.4525    -7.5239     1.1846 H       
  37 H37           -8.4818    -4.3591    -0.7751 H       
  38 H38           -9.5032    -5.5653     0.0435 H       
  39 H39           -8.4871    -4.4619     1.0018 H       
@<TRIPOS>BOND
   1    1    2 1
   2    1    8 2
   3    1    9 1
   4    2    3 ar
   5    2    7 ar
   6    3    4 ar
   7    3   25 1
   8    4    5 ar
   9    4   10 1
  10    5    6 ar
  11    5   12 1
  12    6    7 ar
  13    6   26 1
  14    7   27 1
  15    9   28 1
  16   10   11 3
  17   12   14 1
  18   13   14 ar
  19   13   18 ar
  20   13   29 1
  21   14   15 ar
  22   15   16 ar
  23   15   30 1
  24   16   17 ar
  25   16   24 1
  26   17   18 ar
  27   17   19 1
  28   19   20 1
  29   20   21 1
  30   20   31 1
  31   20   32 1
  32   21   22 1
  33   21   23 1
  34   21   33 1
  35   22   34 1
  36   22   35 1
  37   22   36 1
  38   23   37 1
  39   23   38 1
  40   23   39 1

#	End of record

