#	Name: ASD13490037
#	Creating user name:	WinNT
#	Creation time:	15. 06. 2019 21:30

#	Modifying user name:	WinNT
#	Modification time:	15. 06. 2019 21:30

#	Program:	/corina/corina34_cracker 3.40 0067  02.08.2006

@<TRIPOS>MOLECULE
ASD13490037
  50   54    0    0    0
SMALL
NO_CHARGES


@<TRIPOS>ATOM
   1 C1             0.2408     1.3116    -0.7322 C.ar    
   2 C2            -1.4289     1.3294    -2.3226 C.ar    
   3 N3            -0.5233     1.9654    -1.5927 N.ar    
   4 N4             0.1294     0.0028    -0.5579 N.ar    
   5 C5            -1.5836    -0.0380    -2.1726 C.ar    
   6 C6            -0.7637    -0.6990    -1.2432 C.ar    
   7 O7            -2.4871    -0.7007    -2.9436 O.3     
   8 C8            -1.3350    -2.6819    -2.3368 C.3     
   9 C9            -2.7006    -2.1022    -2.6971 C.3     
  10 N10            1.1861     2.0134     0.0015 N.pl3   
  11 C11            1.2413     3.4089    -0.0818 C.ar    
  12 C12            2.5151     5.4440    -0.0587 C.ar    
  13 C13            1.3442     6.1744    -0.2468 C.ar    
  14 C14            0.1264     5.5179    -0.3466 C.ar    
  15 C15            0.0743     4.1403    -0.2641 C.ar    
  16 C16            2.4617     4.0625     0.0235 C.ar    
  17 N17            1.3959     7.5759    -0.3305 N.pl3   
  18 C18            2.0202     8.4091     0.5322 C.2     
  19 N19            1.8486     9.6377     0.1252 N.2     
  20 C20            1.1171     9.6339    -0.9990 C.2     
  21 C21            0.8282     8.3541    -1.3050 C.2     
  22 C22            0.6973    10.8486    -1.7859 C.3     
  23 O23            3.7089     6.0862     0.0436 O.3     
  24 C24            4.8685     5.2734     0.2351 C.3     
  25 N25           -0.9283    -2.0400    -1.0575 N.3     
  26 C26            0.1940    -2.8596    -0.5953 C.3     
  27 C27           -0.2869    -4.3115    -0.8704 C.3     
  28 C28           -1.3447    -4.1746    -1.9971 C.3     
  29 H29           -2.0458     1.8742    -3.0219 H       
  30 H30           -0.6166    -2.4822    -3.1318 H       
  31 H31           -3.4066    -2.2343    -1.8772 H       
  32 H32           -3.0768    -2.5872    -3.5978 H       
  33 H33            1.8087     1.5366     0.5724 H       
  34 H34           -0.7815     6.0843    -0.4925 H       
  35 H35           -0.8748     3.6310    -0.3417 H       
  36 H36            3.3684     3.4943     0.1696 H       
  37 H37            2.5696     8.1083     1.4120 H       
  38 H38            0.2567     8.0083    -2.1537 H       
  39 H39            1.4556    11.0761    -2.5351 H       
  40 H40           -0.2538    10.6505    -2.2801 H       
  41 H41            0.5865    11.6979    -1.1117 H       
  42 H42            4.9754     4.5889    -0.6063 H       
  43 H43            5.7513     5.9095     0.3005 H       
  44 H44            4.7634     4.7020     1.1574 H       
  45 H45            1.0940    -2.6375    -1.1687 H       
  46 H46            0.3682    -2.7076     0.4699 H       
  47 H47            0.5460    -4.9297    -1.2054 H       
  48 H48           -0.7398    -4.7369     0.0251 H       
  49 H49           -2.3277    -4.4780    -1.6369 H       
  50 H50           -1.0559    -4.7660    -2.8660 H       
@<TRIPOS>BOND
   1    1    4 ar
   2    1   10 1
   3    1    3 ar
   4    2    3 ar
   5    2    5 ar
   6    2   29 1
   7    4    6 ar
   8    5    6 ar
   9    5    7 1
  10    6   25 1
  11    7    9 1
  12    8    9 1
  13    8   28 1
  14    8   25 1
  15    8   30 1
  16    9   31 1
  17    9   32 1
  18   10   11 1
  19   10   33 1
  20   11   16 ar
  21   11   15 ar
  22   12   16 ar
  23   12   13 ar
  24   12   23 1
  25   13   14 ar
  26   13   17 1
  27   14   15 ar
  28   14   34 1
  29   15   35 1
  30   16   36 1
  31   17   18 1
  32   17   21 1
  33   18   19 2
  34   18   37 1
  35   19   20 1
  36   20   21 2
  37   20   22 1
  38   21   38 1
  39   22   39 1
  40   22   40 1
  41   22   41 1
  42   23   24 1
  43   24   42 1
  44   24   43 1
  45   24   44 1
  46   25   26 1
  47   26   27 1
  48   26   45 1
  49   26   46 1
  50   27   28 1
  51   27   47 1
  52   27   48 1
  53   28   49 1
  54   28   50 1

#	End of record

