#	Name: ASD11000283
#	Creating user name:	WinNT
#	Creation time:	15. 06. 2019 21:29

#	Modifying user name:	WinNT
#	Modification time:	15. 06. 2019 21:29

#	Program:	/corina/corina34_cracker 3.40 0067  02.08.2006

@<TRIPOS>MOLECULE
ASD11000283
  34   35    0    0    0
SMALL
NO_CHARGES


@<TRIPOS>ATOM
   1 C1            -0.0180     1.4276     0.0430 C.3     
   2 O2             0.0005    -0.0012     0.0278 O.3     
   3 C3             3.9117     2.8754    -0.0107 C.ar    
   4 N4             2.9092     3.7414     0.0157 N.ar    
   5 C5             1.6510     3.3194     0.0331 C.ar    
   6 C6             1.3960     1.9485     0.0234 C.ar    
   7 C7             2.4693     1.0781    -0.0043 C.ar    
   8 N8             3.6999     1.5678    -0.0206 N.ar    
   9 O9             0.6284     4.2082     0.0606 O.3     
  10 C10            0.9742     5.5948     0.0695 C.3     
  11 N11            5.2128     3.3491    -0.0342 N.pl3   
  12 C12            6.2857     2.4536     0.0568 C.ar    
  13 C13            7.4628     2.7072    -0.6349 C.ar    
  14 C14            8.5204     1.8239    -0.5443 C.ar    
  15 C15            8.4071     0.6834     0.2370 C.ar    
  16 C16            7.2314     0.4291     0.9278 C.ar    
  17 C17            6.1750     1.3145     0.8432 C.ar    
  18 O18            9.4489    -0.1862     0.3254 O.3     
  19 C19            9.2629    -1.3400     1.1477 C.3     
  20 F20            8.9960    -0.9385     2.4610 F       
  21 F21            8.1870    -2.0906     0.6617 F       
  22 H22           -0.5521     1.7935    -0.8339 H       
  23 H23           -0.5206     1.7749     0.9457 H       
  24 H24           -0.8777    -0.4060     0.0391 H       
  25 H25            2.3064     0.0105    -0.0122 H       
  26 H26            0.0651     6.1958     0.0918 H       
  27 H27            1.5761     5.8135     0.9515 H       
  28 H28            1.5450     5.8327    -0.8281 H       
  29 H29            5.3811     4.3010    -0.1137 H       
  30 H30            7.5510     3.5948    -1.2438 H       
  31 H31            9.4360     2.0210    -1.0821 H       
  32 H32            7.1436    -0.4595     1.5354 H       
  33 H33            5.2613     1.1186     1.3847 H       
  34 H34           10.1674    -1.9480     1.1304 H       
@<TRIPOS>BOND
   1    1    2 1
   2    1    6 1
   3    1   22 1
   4    1   23 1
   5    2   24 1
   6    3    4 ar
   7    3    8 ar
   8    3   11 1
   9    4    5 ar
  10    5    6 ar
  11    5    9 1
  12    6    7 ar
  13    7    8 ar
  14    7   25 1
  15    9   10 1
  16   10   26 1
  17   10   27 1
  18   10   28 1
  19   11   12 1
  20   11   29 1
  21   12   13 ar
  22   12   17 ar
  23   13   14 ar
  24   13   30 1
  25   14   15 ar
  26   14   31 1
  27   15   16 ar
  28   15   18 1
  29   16   17 ar
  30   16   32 1
  31   17   33 1
  32   18   19 1
  33   19   20 1
  34   19   21 1
  35   19   34 1

#	End of record

