#	Name: ASD10458001
#	Creating user name:	WinNT
#	Creation time:	15. 06. 2019 21:27

#	Modifying user name:	WinNT
#	Modification time:	15. 06. 2019 21:27

#	Program:	/corina/corina34_cracker 3.40 0067  02.08.2006

@<TRIPOS>MOLECULE
ASD10458001
  70   73    0    0    0
SMALL
NO_CHARGES


@<TRIPOS>ATOM
   1 C1             0.2089     1.9270    -0.0607 C.3     
   2 C2             1.6948     2.1869     0.0791 C.3     
   3 C3             2.2945     3.5514    -0.3201 C.3     
   4 C4             1.6742     4.8695    -0.9035 C.3     
   5 C5             0.9998     5.5813     0.3661 C.3     
   6 C6            -0.6419     5.6148     0.2810 C.3     
   7 C7            -0.9034     4.0105     0.1933 C.3     
   8 C8            -0.4419     1.5598    -1.3257 C.3     
   9 C9            -0.7489     2.8498    -2.0499 C.2     
  10 C10           -0.9164     3.8324    -1.2271 C.2     
  11 C11           -2.3072     3.4538     0.5999 C.3     
  12 C12           -1.9685     2.1526     1.2969 C.2     
  13 C13           -0.2030     3.6159     1.5135 C.3     
  14 C14           -0.4411     2.1042     1.3414 C.3     
  15 C15           -1.2058     6.2906     1.5172 C.3     
  16 O16            2.0980     1.9144     1.4586 O.3     
  17 C17            3.0082     5.7401    -1.0514 C.3     
  18 C18            1.1743     4.9151    -2.2602 C.2     
  19 C19            1.2364     3.8479    -3.0174 C.2     
  20 O20            1.4112     6.9772     0.3460 O.3     
  21 C21            3.3588     1.4851     1.6533 C.2     
  22 N22            3.7941     1.2158     2.9001 N.am    
  23 O23            4.1043     1.3404     0.7053 O.2     
  24 C24            5.0565     0.7860     3.0950 C.2     
  25 C25            5.5337     0.4908     4.4620 C.ar    
  26 O26            5.8023     0.6413     2.1466 O.2     
  27 N27            4.7202     0.6483     5.5000 N.ar    
  28 N28            5.0943     0.4029     6.7031 N.ar    
  29 C29            6.3196    -0.0247     6.9896 C.ar    
  30 C30            7.2460    -0.2203     5.9641 C.ar    
  31 C31            6.8435     0.0384     4.6664 C.ar    
  32 N32            6.6768    -0.2756     8.3038 N.pl3   
  33 O33           -2.7318     1.3312     1.7244 O.2     
  34 O34           -3.0344     4.3078     1.4624 O.3     
  35 C35            0.4483     0.6619    -2.1801 C.3     
  36 C36            0.4827     0.4299     0.2707 C.3     
  37 H37            2.2364     1.4340    -0.5288 H       
  38 H38            2.8286     3.8903     0.5704 H       
  39 H39            3.0892     3.3070    -1.0285 H       
  40 H40            1.3373     5.1977     1.3106 H       
  41 H41           -0.9507     6.0958    -0.6429 H       
  42 H42           -1.3771     1.0298    -1.1068 H       
  43 H43           -0.8344     2.9538    -3.1062 H       
  44 H44           -1.2683     4.7051    -1.7686 H       
  45 H45           -2.8757     3.2466    -0.3113 H       
  46 H46            0.8552     3.7893     1.5247 H       
  47 H47           -0.7279     3.9790     2.3864 H       
  48 H48           -0.0385     1.4723     2.1063 H       
  49 H49           -0.8267     7.3108     1.5784 H       
  50 H50           -2.2939     6.3104     1.4560 H       
  51 H51           -0.9018     5.7362     2.4050 H       
  52 H52            3.6998     5.2338    -1.7248 H       
  53 H53            2.7590     6.7208    -1.4565 H       
  54 H54            3.4748     5.8588    -0.0735 H       
  55 H55            0.7499     5.8290    -2.6488 H       
  56 H56            0.8631     3.8820    -4.0303 H       
  57 H57            1.6608     2.9340    -2.6288 H       
  58 H58            2.3683     7.1059     0.3960 H       
  59 H59            3.1987     1.3314     3.6571 H       
  60 H60            8.2463    -0.5673     6.1772 H       
  61 H61            7.5212    -0.0967     3.8364 H       
  62 H62            6.0326    -0.1392     9.0160 H       
  63 H63            7.5713    -0.5877     8.5122 H       
  64 H64           -3.9027     3.9652     1.7148 H       
  65 H65            0.4812    -0.3370    -1.7452 H       
  66 H66            0.0438     0.6050    -3.1907 H       
  67 H67            1.4558     1.0764    -2.2149 H       
  68 H68            0.7933     0.3390     1.3115 H       
  69 H69           -0.4264    -0.1498     0.1109 H       
  70 H70            1.2729     0.0527    -0.3786 H       
@<TRIPOS>BOND
   1    1   36 1
   2    1    2 1
   3    1    8 1
   4    1   14 1
   5    2    3 1
   6    2   16 1
   7    2   37 1
   8    3    4 1
   9    3   38 1
  10    3   39 1
  11    4   17 1
  12    4   18 1
  13    4    5 1
  14    5    6 1
  15    5   20 1
  16    5   40 1
  17    6    7 1
  18    6   15 1
  19    6   41 1
  20    7   10 1
  21    7   13 1
  22    7   11 1
  23    8    9 1
  24    8   35 1
  25    8   42 1
  26    9   10 2
  27    9   43 1
  28   10   44 1
  29   11   12 1
  30   11   34 1
  31   11   45 1
  32   12   14 1
  33   12   33 2
  34   13   14 1
  35   13   46 1
  36   13   47 1
  37   14   48 1
  38   15   49 1
  39   15   50 1
  40   15   51 1
  41   16   21 1
  42   17   52 1
  43   17   53 1
  44   17   54 1
  45   18   19 2
  46   18   55 1
  47   19   56 1
  48   19   57 1
  49   20   58 1
  50   21   22 am
  51   21   23 2
  52   22   24 am
  53   22   59 1
  54   24   25 1
  55   24   26 2
  56   25   27 ar
  57   25   31 ar
  58   27   28 ar
  59   28   29 ar
  60   29   30 ar
  61   29   32 1
  62   30   31 ar
  63   30   60 1
  64   31   61 1
  65   32   62 1
  66   32   63 1
  67   34   64 1
  68   35   65 1
  69   35   66 1
  70   35   67 1
  71   36   68 1
  72   36   69 1
  73   36   70 1

#	End of record

