#	Name: ASD10420032
#	Creating user name:	WinNT
#	Creation time:	15. 06. 2019 21:27

#	Modifying user name:	WinNT
#	Modification time:	15. 06. 2019 21:27

#	Program:	/corina/corina34_cracker 3.40 0067  02.08.2006

@<TRIPOS>MOLECULE
ASD10420032
  48   51    0    0    0
SMALL
NO_CHARGES


@<TRIPOS>ATOM
   1 C1            -0.0169     1.3936     0.0097 C.2     
   2 C2             0.0021    -0.0041     0.0020 C.2     
   3 C3             1.2962    -0.4048    -0.0125 C.2     
   4 N4             2.1008     0.6954    -0.0142 N.pl3   
   5 C5             3.4665     0.8294    -0.0265 C.2     
   6 C6             4.0373     2.0489    -0.0250 C.2     
   7 C7             3.2429     3.2106    -0.0112 C.2     
   8 C8             1.8888     3.1000     0.0006 C.2     
   9 C9             1.3008     1.8174    -0.0006 C.2     
  10 C10           -1.2048    -0.9065     0.0091 C.3     
  11 C11           -1.6953    -1.1006    -1.4025 C.ar    
  12 C12           -1.1331    -2.0789    -2.2009 C.ar    
  13 C13           -1.5842    -2.2573    -3.4975 C.ar    
  14 C14           -2.5983    -1.4550    -3.9931 C.ar    
  15 C15           -3.1588    -0.4776    -3.1932 C.ar    
  16 C16           -2.7110    -0.3039    -1.8966 C.ar    
  17 C17           -0.0292    -2.9508    -1.6601 C.3     
  18 F18           -1.0351    -3.2129    -4.2788 F       
  19 C19           -1.2407     2.2729     0.0205 C.3     
  20 C20           -1.2279     3.1494     1.2745 C.3     
  21 C21           -2.4704     4.0421     1.2855 C.3     
  22 C22           -2.4699     4.9322     0.0411 C.3     
  23 C23           -2.4828     4.0557    -1.2129 C.3     
  24 C24           -1.2403     3.1630    -1.2239 C.3     
  25 H25            1.6354    -1.4301    -0.0209 H       
  26 H26            4.0899    -0.0524    -0.0372 H       
  27 H27            5.1137     2.1363    -0.0341 H       
  28 H28            3.7076     4.1855    -0.0098 H       
  29 H29            1.2691     3.9845     0.0116 H       
  30 H30           -0.9338    -1.8723     0.4356 H       
  31 H31           -1.9940    -0.4531     0.6089 H       
  32 H32           -2.9507    -1.5930    -5.0046 H       
  33 H33           -3.9497     0.1481    -3.5796 H       
  34 H34           -3.1528     0.4573    -1.2707 H       
  35 H35           -0.4611    -3.8363    -1.1937 H       
  36 H36            0.6273    -3.2534    -2.4759 H       
  37 H37            0.5444    -2.3933    -0.9197 H       
  38 H38           -2.1354     1.6503     0.0216 H       
  39 H39           -1.2282     2.5153     2.1611 H       
  40 H40           -0.3332     3.7720     1.2735 H       
  41 H41           -3.3651     3.4195     1.2866 H       
  42 H42           -2.4612     4.6665     2.1789 H       
  43 H43           -3.3551     5.5681     0.0489 H       
  44 H44           -1.5752     5.5548     0.0400 H       
  45 H45           -3.3775     3.4331    -1.2118 H       
  46 H46           -2.4824     4.6898    -2.0994 H       
  47 H47           -0.3456     3.7855    -1.2249 H       
  48 H48           -1.2494     2.5385    -2.1172 H       
@<TRIPOS>BOND
   1    1    2 1
   2    1    9 2
   3    1   19 1
   4    2    3 2
   5    2   10 1
   6    3    4 1
   7    3   25 1
   8    4    5 1
   9    4    9 1
  10    5    6 2
  11    5   26 1
  12    6    7 1
  13    6   27 1
  14    7    8 2
  15    7   28 1
  16    8    9 1
  17    8   29 1
  18   10   11 1
  19   10   30 1
  20   10   31 1
  21   11   12 ar
  22   11   16 ar
  23   12   13 ar
  24   12   17 1
  25   13   14 ar
  26   13   18 1
  27   14   15 ar
  28   14   32 1
  29   15   16 ar
  30   15   33 1
  31   16   34 1
  32   17   35 1
  33   17   36 1
  34   17   37 1
  35   19   20 1
  36   19   24 1
  37   19   38 1
  38   20   21 1
  39   20   39 1
  40   20   40 1
  41   21   22 1
  42   21   41 1
  43   21   42 1
  44   22   23 1
  45   22   43 1
  46   22   44 1
  47   23   24 1
  48   23   45 1
  49   23   46 1
  50   24   47 1
  51   24   48 1

#	End of record

