#	Name: ASD11710008
#	Creating user name:	WinNT
#	Creation time:	15. 06. 2019 21:29

#	Modifying user name:	WinNT
#	Modification time:	15. 06. 2019 21:29

#	Program:	/corina/corina34_cracker 3.40 0067  02.08.2006

@<TRIPOS>MOLECULE
ASD11710008
  51   53    0    0    0
SMALL
NO_CHARGES


@<TRIPOS>ATOM
   1 C1             2.9654     5.4262     2.6504 C.ar    
   2 C2             2.0803     6.4872     2.6943 C.ar    
   3 C3             1.0292     6.5480     1.7987 C.ar    
   4 C4             0.8633     5.5480     0.8587 C.ar    
   5 C5             1.7489     4.4875     0.8141 C.ar    
   6 C6             2.7992     4.4260     1.7107 C.ar    
   7 C7             1.5678     3.3972    -0.2103 C.3     
   8 N8             2.3036     3.7446    -1.4285 N.am    
   9 C9             3.5865     3.3580    -1.5743 C.2     
  10 C10            4.2965     3.6160    -2.8452 C.ar    
  11 O11            4.1598     2.7972    -0.6608 O.2     
  12 C12            4.0307     4.7767    -3.5734 C.ar    
  13 C13            5.2397     2.7028    -3.3190 C.ar    
  14 C14            5.8990     2.9498    -4.5054 C.ar    
  15 C15            5.6274     4.0999    -5.2249 C.ar    
  16 C16            4.6970     5.0116    -4.7583 C.ar    
  17 S17            6.4748     4.4083    -6.7386 S.o2    
  18 N18            5.5046     3.8607    -7.9639 N.am    
  19 C19            5.1708     2.5038    -8.0388 C.ar    
  20 C20            3.8568     2.1239    -8.2782 C.ar    
  21 C21            6.1543     1.5366    -7.8796 C.ar    
  22 C22            5.8240     0.1977    -7.9542 C.ar    
  23 C23            4.5104    -0.1810    -8.1885 C.ar    
  24 C24            3.5282     0.7845    -8.3524 C.ar    
  25 O25            6.5418     5.8206    -6.8805 O.2     
  26 O26            7.6239     3.5724    -6.7326 O.2     
  27 C27            1.6450     4.5122    -2.4883 C.3     
  28 O28            4.1862    -1.4997    -8.2627 O.3     
  29 C29            2.8145    -1.8179    -8.5064 C.3     
  30 H30            3.7892     5.3810     3.3472 H       
  31 H31            2.2099     7.2684     3.4287 H       
  32 H32            0.3373     7.3765     1.8335 H       
  33 H33            0.0417     5.5952     0.1594 H       
  34 H34            3.4913     3.5977     1.6757 H       
  35 H35            1.9486     2.4570     0.1886 H       
  36 H36            0.5084     3.2903    -0.4437 H       
  37 H37            3.3047     5.4891    -3.2103 H       
  38 H38            5.4531     1.8049    -2.7580 H       
  39 H39            6.6290     2.2440    -4.8732 H       
  40 H40            4.4896     5.9075    -5.3247 H       
  41 H41            5.1677     4.4806    -8.6296 H       
  42 H42            3.0918     2.8756    -8.4058 H       
  43 H43            7.1773     1.8313    -7.6979 H       
  44 H44            6.5888    -0.5547    -7.8304 H       
  45 H45            2.5057     0.4888    -8.5349 H       
  46 H46            1.8186     5.5762    -2.3278 H       
  47 H47            2.0527     4.2195    -3.4559 H       
  48 H48            0.5737     4.3120    -2.4698 H       
  49 H49            2.6934    -2.9005    -8.5419 H       
  50 H50            2.1990    -1.4096    -7.7048 H       
  51 H51            2.5050    -1.3862    -9.4581 H       
@<TRIPOS>BOND
   1    1    2 ar
   2    1    6 ar
   3    1   30 1
   4    2    3 ar
   5    2   31 1
   6    3    4 ar
   7    3   32 1
   8    4    5 ar
   9    4   33 1
  10    5    6 ar
  11    5    7 1
  12    6   34 1
  13    7    8 1
  14    7   35 1
  15    7   36 1
  16    8    9 am
  17    8   27 1
  18    9   10 1
  19    9   11 2
  20   10   12 ar
  21   10   13 ar
  22   12   16 ar
  23   12   37 1
  24   13   14 ar
  25   13   38 1
  26   14   15 ar
  27   14   39 1
  28   15   16 ar
  29   15   17 1
  30   16   40 1
  31   17   18 am
  32   17   25 2
  33   17   26 2
  34   18   19 1
  35   18   41 1
  36   19   20 ar
  37   19   21 ar
  38   20   24 ar
  39   20   42 1
  40   21   22 ar
  41   21   43 1
  42   22   23 ar
  43   22   44 1
  44   23   24 ar
  45   23   28 1
  46   24   45 1
  47   27   46 1
  48   27   47 1
  49   27   48 1
  50   28   29 1
  51   29   49 1
  52   29   50 1
  53   29   51 1

#	End of record

