#	Name: ASD10420134
#	Creating user name:	WinNT
#	Creation time:	15. 06. 2019 21:27

#	Modifying user name:	WinNT
#	Modification time:	15. 06. 2019 21:27

#	Program:	/corina/corina34_cracker 3.40 0067  02.08.2006

@<TRIPOS>MOLECULE
ASD10420134
  30   32    0    0    0
SMALL
NO_CHARGES


@<TRIPOS>ATOM
   1 C1            -0.0184     1.5028     0.0103 C.3     
   2 C2             0.0644    -2.8346     2.5051 C.3     
   3 C3             0.0189    -5.6473    -5.9943 C.ar    
   4 C4            -0.0049    -4.4485    -6.6912 C.ar    
   5 C5             0.0327    -5.6534    -4.6173 C.ar    
   6 C6            -0.0146    -3.2456    -6.0152 C.ar    
   7 C7             0.0229    -0.7007     1.1972 C.ar    
   8 C8            -0.0005    -0.6859    -1.1973 C.ar    
   9 C9             0.0404    -2.7781     0.0061 C.ar    
  10 C10            0.0021    -0.0041     0.0020 C.ar    
  11 C11            0.0418    -2.0841     1.1984 C.ar    
  12 C12            0.0185    -2.0815    -1.2032 C.ar    
  13 C13            0.0154    -2.8185    -2.4845 C.2     
  14 C14            0.0229    -4.4435    -3.9192 C.ar    
  15 C15           -0.0008    -3.2317    -4.6294 C.ar    
  16 N16            0.0320    -4.1221    -2.6002 N.2     
  17 O17           -0.0041    -2.2471    -3.7036 O.3     
  18 H18            1.0042     1.8801     0.0026 H       
  19 H19           -0.5455     1.8639    -0.8728 H       
  20 H20           -0.5286     1.8543     0.9071 H       
  21 H21           -0.9577    -3.0295     2.8299 H       
  22 H22            0.5899    -3.7802     2.3720 H       
  23 H23            0.5773    -2.2368     3.2586 H       
  24 H24            0.0221    -6.5822    -6.5350 H       
  25 H25           -0.0155    -4.4565    -7.7711 H       
  26 H26            0.0505    -6.5897    -4.0794 H       
  27 H27           -0.0324    -2.3162    -6.5652 H       
  28 H28            0.0289    -0.1621     2.1333 H       
  29 H29           -0.0174    -0.1409    -2.1296 H       
  30 H30            0.0558    -3.8580     0.0084 H       
@<TRIPOS>BOND
   1    1   10 1
   2    1   18 1
   3    1   19 1
   4    1   20 1
   5    2   11 1
   6    2   21 1
   7    2   22 1
   8    2   23 1
   9    3    4 ar
  10    3    5 ar
  11    3   24 1
  12    4    6 ar
  13    4   25 1
  14    5   14 ar
  15    5   26 1
  16    6   15 ar
  17    6   27 1
  18    7   10 ar
  19    7   11 ar
  20    7   28 1
  21    8   10 ar
  22    8   12 ar
  23    8   29 1
  24    9   11 ar
  25    9   12 ar
  26    9   30 1
  27   12   13 1
  28   13   16 2
  29   13   17 1
  30   14   15 ar
  31   14   16 1
  32   15   17 1

#	End of record

