#	Name: ASD10160197
#	Creating user name:	WinNT
#	Creation time:	15. 06. 2019 21:25

#	Modifying user name:	WinNT
#	Modification time:	15. 06. 2019 21:25

#	Program:	/corina/corina34_cracker 3.40 0067  02.08.2006

@<TRIPOS>MOLECULE
ASD10160197
  42   43    0    0    0
SMALL
NO_CHARGES


@<TRIPOS>ATOM
   1 C1            -0.0141     1.4705    -0.0070 C.2     
   2 C2             0.0051    -0.0040    -0.0111 C.ar    
   3 C3             0.0416    -0.7089     1.1976 C.ar    
   4 C4             0.0595    -2.0893     1.1884 C.ar    
   5 C5             0.0412    -2.7776    -0.0169 C.ar    
   6 C6             0.0048    -2.0802    -1.2214 C.ar    
   7 C7            -0.0190    -0.7022    -1.2221 C.ar    
   8 O8             0.0019     2.0759     1.0475 O.2     
   9 N9            -0.0437     2.1473    -1.1722 N.am    
  10 S10           -0.0652     3.8032    -1.1676 S.o2    
  11 O11           -0.1201     4.1567    -2.5428 O.2     
  12 O12           -1.1253     4.1374    -0.2824 O.2     
  13 C13            1.5338     4.2746    -0.4525 C.3     
  14 F14           -0.0123    -2.7555    -2.3914 F       
  15 F15            0.0599    -0.0397     2.3710 F       
  16 O16            0.0593    -4.1353    -0.0213 O.3     
  17 C17            1.2581    -4.7549    -0.1408 C.ar    
  18 N18            1.3137    -6.0738    -0.0511 N.ar    
  19 C19            2.4741    -6.7119    -0.1643 C.ar    
  20 C20            3.6373    -5.9691    -0.3800 C.ar    
  21 C21            3.5337    -4.5950    -0.4671 C.ar    
  22 N22            2.3424    -4.0262    -0.3496 N.ar    
  23 C23            4.7609    -3.7517    -0.6990 C.3     
  24 N24            2.5293    -8.0928    -0.0695 N.pl3   
  25 C25            3.8246    -8.7770    -0.0861 C.3     
  26 C26            1.2923    -8.8690     0.0474 C.3     
  27 H27            0.0881    -2.6345     2.1203 H       
  28 H28           -0.0517    -0.1624    -2.1570 H       
  29 H29           -0.0524     1.6645    -2.0134 H       
  30 H30            2.3393     3.8799    -1.0717 H       
  31 H31            1.6069     5.3614    -0.4107 H       
  32 H32            1.6161     3.8660     0.5546 H       
  33 H33            4.5954    -6.4582    -0.4759 H       
  34 H34            4.9165    -3.6233    -1.7702 H       
  35 H35            4.6249    -2.7761    -0.2322 H       
  36 H36            5.6290    -4.2456    -0.2624 H       
  37 H37            4.1972    -8.8744     0.9336 H       
  38 H38            3.7068    -9.7674    -0.5260 H       
  39 H39            4.5336    -8.1985    -0.6783 H       
  40 H40            0.4373    -8.1929     0.0425 H       
  41 H41            1.2152    -9.5584    -0.7934 H       
  42 H42            1.3041    -9.4331     0.9800 H       
@<TRIPOS>BOND
   1    1    2 1
   2    1    8 2
   3    1    9 am
   4    2    3 ar
   5    2    7 ar
   6    3    4 ar
   7    3   15 1
   8    4    5 ar
   9    4   27 1
  10    5    6 ar
  11    5   16 1
  12    6    7 ar
  13    6   14 1
  14    7   28 1
  15    9   10 am
  16    9   29 1
  17   10   11 2
  18   10   12 2
  19   10   13 1
  20   13   30 1
  21   13   31 1
  22   13   32 1
  23   16   17 1
  24   17   18 ar
  25   17   22 ar
  26   18   19 ar
  27   19   20 ar
  28   19   24 1
  29   20   21 ar
  30   20   33 1
  31   21   22 ar
  32   21   23 1
  33   23   34 1
  34   23   35 1
  35   23   36 1
  36   24   25 1
  37   24   26 1
  38   25   37 1
  39   25   38 1
  40   25   39 1
  41   26   40 1
  42   26   41 1
  43   26   42 1

#	End of record

