#	Name: ASD11000147
#	Creating user name:	WinNT
#	Creation time:	15. 06. 2019 21:28

#	Modifying user name:	WinNT
#	Modification time:	15. 06. 2019 21:28

#	Program:	/corina/corina34_cracker 3.40 0067  02.08.2006

@<TRIPOS>MOLECULE
ASD11000147
  48   51    0    0    0
SMALL
NO_CHARGES


@<TRIPOS>ATOM
   1 N1            -0.0172     1.3214    -0.0112 N.ar    
   2 C2             0.0016    -0.0034    -0.0060 C.ar    
   3 N3             1.1402    -0.6810    -0.0155 N.ar    
   4 C4             2.3025    -0.0498    -0.0306 C.ar    
   5 C5             2.3192     1.3362    -0.0364 C.ar    
   6 C6             1.1098     2.0135    -0.0262 C.ar    
   7 C7             3.6238     2.0903    -0.0531 C.3     
   8 O8             4.0222     2.3232    -1.4055 O.3     
   9 C9             5.1872     2.9969    -1.5986 C.ar    
  10 C10            5.9304     3.4244    -0.5012 C.ar    
  11 C11            7.1134     4.1080    -0.6776 C.ar    
  12 C12            7.5754     4.3770    -1.9614 C.ar    
  13 C13            6.8273     3.9467    -3.0736 C.ar    
  14 C14            5.6306     3.2490    -2.8816 C.ar    
  15 N15            8.7576     5.0613    -2.1592 N.am    
  16 C16            9.2059     5.3234    -3.3993 C.2     
  17 C17            8.4931     4.9141    -4.5465 C.2     
  18 C18            7.3250     4.2375    -4.4195 C.2     
  19 O19           10.2542     5.9302    -3.5362 O.2     
  20 N20           -1.1976    -0.6966     0.0102 N.pl3   
  21 C21           -1.2012    -2.0902    -0.1028 C.ar    
  22 C22           -2.1493    -2.8414     0.5799 C.ar    
  23 C23           -0.2601    -2.7260    -0.9024 C.ar    
  24 C24           -0.2667    -4.1027    -1.0122 C.ar    
  25 C25           -1.2087    -4.8480    -0.3271 C.ar    
  26 C26           -2.1502    -4.2178     0.4657 C.ar    
  27 C27           -1.2131    -6.3500    -0.4497 C.3     
  28 C28           -0.3198    -6.9530     0.6363 C.3     
  29 H29            3.2273    -0.6076    -0.0379 H       
  30 H30            1.0881     3.0933    -0.0307 H       
  31 H31            3.4983     3.0448     0.4582 H       
  32 H32            4.3891     1.5037     0.4552 H       
  33 H33            5.5758     3.2184     0.4979 H       
  34 H34            7.6815     4.4352     0.1806 H       
  35 H35            5.0530     2.9163    -3.7313 H       
  36 H36            9.2723     5.3578    -1.3923 H       
  37 H37            8.8798     5.1404    -5.5292 H       
  38 H38            6.7736     3.9200    -5.2922 H       
  39 H39           -2.0349    -0.2152     0.1000 H       
  40 H40           -2.8847    -2.3499     1.1995 H       
  41 H41            0.4756    -2.1445    -1.4380 H       
  42 H42            0.4645    -4.5977    -1.6341 H       
  43 H43           -2.8846    -4.8028     0.9995 H       
  44 H44           -2.2310    -6.7213    -0.3304 H       
  45 H45           -0.8349    -6.6356    -1.4313 H       
  46 H46            0.6981    -6.5817     0.5170 H       
  47 H47           -0.6980    -6.6674     1.6178 H       
  48 H48           -0.3230    -8.0394     0.5476 H       
@<TRIPOS>BOND
   1    1    2 ar
   2    1    6 ar
   3    2    3 ar
   4    2   20 1
   5    3    4 ar
   6    4    5 ar
   7    4   29 1
   8    5    6 ar
   9    5    7 1
  10    6   30 1
  11    7    8 1
  12    7   31 1
  13    7   32 1
  14    8    9 1
  15    9   10 ar
  16    9   14 ar
  17   10   11 ar
  18   10   33 1
  19   11   12 ar
  20   11   34 1
  21   12   13 ar
  22   12   15 1
  23   13   14 ar
  24   13   18 1
  25   14   35 1
  26   15   16 am
  27   15   36 1
  28   16   17 1
  29   16   19 2
  30   17   18 2
  31   17   37 1
  32   18   38 1
  33   20   21 1
  34   20   39 1
  35   21   22 ar
  36   21   23 ar
  37   22   26 ar
  38   22   40 1
  39   23   24 ar
  40   23   41 1
  41   24   25 ar
  42   24   42 1
  43   25   26 ar
  44   25   27 1
  45   26   43 1
  46   27   28 1
  47   27   44 1
  48   27   45 1
  49   28   46 1
  50   28   47 1
  51   28   48 1

#	End of record

