#	Name: ASD13010009
#	Creating user name:	WinNT
#	Creation time:	15. 06. 2019 21:30

#	Modifying user name:	WinNT
#	Modification time:	15. 06. 2019 21:30

#	Program:	/corina/corina34_cracker 3.40 0067  02.08.2006

@<TRIPOS>MOLECULE
ASD13010009
  50   53    0    0    0
SMALL
NO_CHARGES


@<TRIPOS>ATOM
   1 C1            -0.3073     1.1386     1.0335 C.ar    
   2 C2            -0.1976    -0.2001     0.8030 C.ar    
   3 C3             1.0293    -0.7616     0.4195 C.ar    
   4 C4             2.1506     0.0463     0.2700 C.ar    
   5 C5             0.8035     1.9680     0.8895 C.ar    
   6 N6             1.0035     3.3159     1.0456 N.pl3   
   7 C7             2.0433     1.4174     0.5044 C.ar    
   8 C8             2.9860     2.5322     0.4445 C.2     
   9 N9             2.3403     3.6163     0.7658 N.2     
  10 C10            0.0284     4.2402     1.4230 C.ar    
  11 S11            4.6917     2.4280     0.0150 S.o     
  12 C12            4.6750     2.6544    -1.7323 C.ar    
  13 C13            4.5522     1.5608    -2.5706 C.ar    
  14 C14            4.7791     3.9262    -2.2663 C.ar    
  15 C15            4.7660     4.1034    -3.6384 C.ar    
  16 C16            4.6485     3.0098    -4.4756 C.ar    
  17 C17            4.5392     1.7392    -3.9425 C.ar    
  18 Cl18           4.4150    -0.0351    -1.9012 Cl      
  19 C19           -1.9080     6.0756     2.1724 C.ar    
  20 C20           -2.2517     4.9815     1.3729 C.ar    
  21 C21           -1.2873     4.0718     1.0025 C.ar    
  22 C22            0.3730     5.3248     2.2235 C.ar    
  23 C23           -0.5863     6.2385     2.5977 C.ar    
  24 C24           -2.9384     7.0526     2.5708 C.2     
  25 O25           -4.0877     6.9072     2.2042 O.2     
  26 O26           -2.6054     8.1066     3.3415 O.3     
  27 Cl27           4.9255     5.2999    -1.2149 Cl      
  28 O28            5.2172     3.6591     0.4919 O.2     
  29 C29            1.1300    -2.2144     0.1743 C.2     
  30 O30            2.0902    -2.8354     0.5871 O.2     
  31 N31            0.1575    -2.8519    -0.5071 N.am    
  32 C32            0.2993    -4.2743    -0.8278 C.3     
  33 C33           -1.0415    -2.1224    -0.9271 C.3     
  34 H34           -1.2588     1.5586     1.3242 H       
  35 H35           -1.0637    -0.8350     0.9171 H       
  36 H36            3.0966    -0.3836    -0.0245 H       
  37 H37            4.8472     5.0963    -4.0554 H       
  38 H38            4.6376     3.1487    -5.5466 H       
  39 H39            4.4434     0.8855    -4.5971 H       
  40 H40           -3.2719     4.8524     1.0428 H       
  41 H41           -1.5520     3.2265     0.3846 H       
  42 H42            1.3942     5.4498     2.5520 H       
  43 H43           -0.3171     7.0827     3.2152 H       
  44 H44           -3.3149     8.7200     3.5769 H       
  45 H45           -0.1252    -4.8726    -0.0215 H       
  46 H46           -0.2270    -4.4915    -1.7572 H       
  47 H47            1.3557    -4.5172    -0.9430 H       
  48 H48           -0.9246    -1.0647    -0.6911 H       
  49 H49           -1.1816    -2.2415    -2.0015 H       
  50 H50           -1.9105    -2.5181    -0.4013 H       
@<TRIPOS>BOND
   1    1    2 ar
   2    1    5 ar
   3    1   34 1
   4    2    3 ar
   5    2   35 1
   6    3    4 ar
   7    3   29 1
   8    4    7 ar
   9    4   36 1
  10    5    7 ar
  11    5    6 1
  12    6    9 1
  13    6   10 1
  14    7    8 1
  15    8    9 2
  16    8   11 1
  17   10   22 ar
  18   10   21 ar
  19   11   12 1
  20   11   28 2
  21   12   14 ar
  22   12   13 ar
  23   13   17 ar
  24   13   18 1
  25   14   15 ar
  26   14   27 1
  27   15   16 ar
  28   15   37 1
  29   16   17 ar
  30   16   38 1
  31   17   39 1
  32   19   20 ar
  33   19   23 ar
  34   19   24 1
  35   20   21 ar
  36   20   40 1
  37   21   41 1
  38   22   23 ar
  39   22   42 1
  40   23   43 1
  41   24   25 2
  42   24   26 1
  43   26   44 1
  44   29   30 2
  45   29   31 am
  46   31   32 1
  47   31   33 1
  48   32   45 1
  49   32   46 1
  50   32   47 1
  51   33   48 1
  52   33   49 1
  53   33   50 1

#	End of record

