#	Name: ASD10420031
#	Creating user name:	WinNT
#	Creation time:	15. 06. 2019 21:27

#	Modifying user name:	WinNT
#	Modification time:	15. 06. 2019 21:27

#	Program:	/corina/corina34_cracker 3.40 0067  02.08.2006

@<TRIPOS>MOLECULE
ASD10420031
  30   31    0    0    0
SMALL
NO_CHARGES


@<TRIPOS>ATOM
   1 C1            -0.0167     1.3781     0.0096 C.ar    
   2 C2             0.0021    -0.0041     0.0020 C.ar    
   3 C3             1.2216    -0.6630    -0.0131 C.ar    
   4 C4             2.3820     0.0963    -0.0201 C.ar    
   5 C5             2.2849     1.4746    -0.0118 C.ar    
   6 N6             1.1070     2.0678     0.0026 N.ar    
   7 C7            -1.3367     2.1050     0.0198 C.3     
   8 C8            -1.3788     3.0693     1.2069 C.3     
   9 C9            -2.6646     3.8963     1.1468 C.3     
  10 C10           -2.7067     4.8606     2.3339 C.3     
  11 C11           -2.6733     4.0639     3.6396 C.3     
  12 C12           -1.3875     3.2369     3.6997 C.3     
  13 C13           -1.3454     2.2725     2.5126 C.3     
  14 H14           -0.9217    -0.5635     0.0082 H       
  15 H15            1.2670    -1.7420    -0.0190 H       
  16 H16            3.3495    -0.3836    -0.0316 H       
  17 H17            3.1839     2.0731    -0.0171 H       
  18 H18           -1.4499     2.6657    -0.9080 H       
  19 H19           -2.1484     1.3830     0.1092 H       
  20 H20           -0.5165     3.7347     1.1651 H       
  21 H21           -2.6884     4.4639     0.2166 H       
  22 H22           -3.5269     3.2308     1.1885 H       
  23 H23           -1.8444     5.5261     2.2922 H       
  24 H24           -3.6227     5.4498     2.2911 H       
  25 H25           -2.7033     4.7509     4.4854 H       
  26 H26           -3.5356     3.3984     3.6814 H       
  27 H27           -0.5252     3.9023     3.6580 H       
  28 H28           -1.3637     2.6692     4.6300 H       
  29 H29           -2.2077     1.6071     2.5544 H       
  30 H30           -0.4294     1.6834     2.5554 H       
@<TRIPOS>BOND
   1    1    2 ar
   2    1    6 ar
   3    1    7 1
   4    2    3 ar
   5    2   14 1
   6    3    4 ar
   7    3   15 1
   8    4    5 ar
   9    4   16 1
  10    5    6 ar
  11    5   17 1
  12    7    8 1
  13    7   18 1
  14    7   19 1
  15    8    9 1
  16    8   13 1
  17    8   20 1
  18    9   10 1
  19    9   21 1
  20    9   22 1
  21   10   11 1
  22   10   23 1
  23   10   24 1
  24   11   12 1
  25   11   25 1
  26   11   26 1
  27   12   13 1
  28   12   27 1
  29   12   28 1
  30   13   29 1
  31   13   30 1

#	End of record

