#	Name: ASD10160282
#	Creating user name:	WinNT
#	Creation time:	15. 06. 2019 21:25

#	Modifying user name:	WinNT
#	Modification time:	15. 06. 2019 21:25

#	Program:	/corina/corina34_cracker 3.40 0067  02.08.2006

@<TRIPOS>MOLECULE
ASD10160282
  42   43    0    0    0
SMALL
NO_CHARGES


@<TRIPOS>ATOM
   1 C1             0.1473     1.4714    -1.3794 C.2     
   2 C2             0.1434     0.0351    -1.0461 C.ar    
   3 C3             1.3269    -0.7080    -1.1283 C.ar    
   4 C4             1.3182    -2.0523    -0.8147 C.ar    
   5 C5             0.1381    -2.6669    -0.4184 C.ar    
   6 C6            -1.0415    -1.9314    -0.3358 C.ar    
   7 C7            -1.0412    -0.5877    -0.6413 C.ar    
   8 O8             1.1797     2.0122    -1.7264 O.2     
   9 N9            -0.9945     2.1835    -1.3049 N.am    
  10 S10           -0.9901     3.7967    -1.6793 S.o2    
  11 O11           -2.3330     4.2095    -1.4663 O.2     
  12 O12            0.0730     4.3334    -0.9041 O.2     
  13 C13           -0.5802     3.8503    -3.4456 C.3     
  14 F14           -2.1869    -2.5350     0.0500 F       
  15 F15            2.4755    -0.1106    -1.5143 F       
  16 O16            0.1340    -3.9891    -0.1109 O.3     
  17 C17            1.5747    -5.4785    -1.2892 C.ar    
  18 C18            1.3086    -4.6675    -0.1954 C.ar    
  19 C19            2.2597    -4.5574     0.8132 C.ar    
  20 C20            3.4457    -5.2697     0.6822 C.ar    
  21 C21            3.6380    -6.0607    -0.4432 C.ar    
  22 N22            2.7117    -6.1400    -1.3789 N.ar    
  23 O23            4.4049    -5.1931     1.6423 O.3     
  24 C24            4.1534    -4.3159     2.7420 C.3     
  25 C25            4.9690    -4.7707     3.9540 C.3     
  26 C26            4.5583    -2.8907     2.3605 C.3     
  27 Cl27           5.1147    -6.9561    -0.6201 Cl      
  28 H28            2.2306    -2.6267    -0.8781 H       
  29 H29           -1.9557    -0.0172    -0.5722 H       
  30 H30           -1.8188     1.7512    -1.0320 H       
  31 H31           -1.3351     3.3035    -4.0105 H       
  32 H32           -0.5551     4.8870    -3.7814 H       
  33 H33            0.3960     3.3927    -3.6061 H       
  34 H34            0.8394    -5.5729    -2.0746 H       
  35 H35            2.0813    -3.9336     1.6766 H       
  36 H36            3.0921    -4.3382     2.9892 H       
  37 H37            6.0304    -4.7484     3.7067 H       
  38 H38            4.7772    -4.1016     4.7928 H       
  39 H39            4.6806    -5.7861     4.2258 H       
  40 H40            5.6197    -2.8683     2.1133 H       
  41 H41            3.9773    -2.5667     1.4970 H       
  42 H42            4.3665    -2.2216     3.1993 H       
@<TRIPOS>BOND
   1    1    2 1
   2    1    8 2
   3    1    9 am
   4    2    3 ar
   5    2    7 ar
   6    3    4 ar
   7    3   15 1
   8    4    5 ar
   9    4   28 1
  10    5    6 ar
  11    5   16 1
  12    6    7 ar
  13    6   14 1
  14    7   29 1
  15    9   10 am
  16    9   30 1
  17   10   11 2
  18   10   12 2
  19   10   13 1
  20   13   31 1
  21   13   32 1
  22   13   33 1
  23   16   18 1
  24   17   18 ar
  25   17   22 ar
  26   17   34 1
  27   18   19 ar
  28   19   20 ar
  29   19   35 1
  30   20   21 ar
  31   20   23 1
  32   21   22 ar
  33   21   27 1
  34   23   24 1
  35   24   25 1
  36   24   26 1
  37   24   36 1
  38   25   37 1
  39   25   38 1
  40   25   39 1
  41   26   40 1
  42   26   41 1
  43   26   42 1

#	End of record

