#	Name: ASD13680035
#	Creating user name:	WinNT
#	Creation time:	15. 06. 2019 21:30

#	Modifying user name:	WinNT
#	Modification time:	15. 06. 2019 21:30

#	Program:	/corina/corina34_cracker 3.40 0067  02.08.2006

@<TRIPOS>MOLECULE
ASD13680035
  52   55    0    0    0
SMALL
NO_CHARGES


@<TRIPOS>ATOM
   1 C1            -0.0193     1.5123     0.0250 C.3     
   2 C2             0.0023    -0.0020     0.0103 C.2     
   3 C3             0.7558    -0.7679     0.8049 C.2     
   4 C4             1.7296    -0.2384     1.8434 C.3     
   5 C5             1.8870     2.2208     1.4608 C.3     
   6 C6             1.4085     2.0562     0.0211 C.3     
   7 C7             1.2754     1.1313     2.3387 C.3     
   8 C8             0.5458    -2.1872     0.5653 C.2     
   9 C9            -0.3617    -2.4431    -0.4224 C.2     
  10 S10           -0.9723    -0.9920    -1.0681 S.3     
  11 N11           -0.7342    -3.7111    -0.8419 N.am    
  12 C12            1.2410    -3.2403     1.3111 C.2     
  13 O13            0.7545    -3.6834     2.3350 O.2     
  14 N14            2.4190    -3.7179     0.8631 N.am    
  15 C15           -1.6415    -3.8552    -1.8280 C.2     
  16 O16           -2.1322    -2.8758    -2.3485 O.2     
  17 C17            3.1322    -4.6400     1.6260 C.ar    
  18 C18            4.2914    -5.2102     1.1112 C.ar    
  19 C19            4.9899    -6.1244     1.8793 C.ar    
  20 C20            4.5033    -6.4384     3.1413 C.ar    
  21 C21            3.3457    -5.8338     3.5891 C.ar    
  22 N22            2.7033    -4.9612     2.8363 N.ar    
  23 C23           -2.0463    -5.2334    -2.2839 C.3     
  24 C24           -3.0653    -5.1181    -3.3881 C.ar    
  25 C25           -2.6506    -4.9511    -4.6988 C.ar    
  26 C26           -3.5879    -4.8452    -5.7121 C.ar    
  27 C27           -4.9363    -4.9064    -5.4147 C.ar    
  28 C28           -5.3491    -5.0727    -4.1060 C.ar    
  29 C29           -4.4138    -5.1846    -3.0939 C.ar    
  30 F30           -1.3324    -4.8910    -4.9882 F       
  31 H31           -0.5469     1.8751    -0.8571 H       
  32 H32           -0.5355     1.8579     0.9206 H       
  33 H33            1.7729    -0.9306     2.6843 H       
  34 H34            2.7207    -0.1512     1.3982 H       
  35 H35            2.9738     2.1436     1.4923 H       
  36 H36            1.5837     3.1992     1.8336 H       
  37 H37            2.0624     1.3587    -0.5024 H       
  38 H38            1.4285     3.0229    -0.4821 H       
  39 H39            0.1882     1.1930     2.2895 H       
  40 H40            1.6004     1.2707     3.3697 H       
  41 H41           -0.3417    -4.4944    -0.4256 H       
  42 H42            2.7702    -3.4197     0.0096 H       
  43 H43            4.6413    -4.9433     0.1249 H       
  44 H44            5.8932    -6.5838     1.5057 H       
  45 H45            5.0248    -7.1485     3.7660 H       
  46 H46            2.9633    -6.0753     4.5698 H       
  47 H47           -1.1698    -5.7662    -2.6526 H       
  48 H48           -2.4785    -5.7808    -1.4463 H       
  49 H49           -3.2656    -4.7146    -6.7346 H       
  50 H50           -5.6677    -4.8239    -6.2050 H       
  51 H51           -6.4029    -5.1196    -3.8745 H       
  52 H52           -4.7374    -5.3197    -2.0724 H       
@<TRIPOS>BOND
   1    1    2 1
   2    1    6 1
   3    1   31 1
   4    1   32 1
   5    2   10 1
   6    2    3 2
   7    3    4 1
   8    3    8 1
   9    4    7 1
  10    4   33 1
  11    4   34 1
  12    5    6 1
  13    5    7 1
  14    5   35 1
  15    5   36 1
  16    6   37 1
  17    6   38 1
  18    7   39 1
  19    7   40 1
  20    8    9 2
  21    8   12 1
  22    9   10 1
  23    9   11 1
  24   11   15 am
  25   11   41 1
  26   12   13 2
  27   12   14 am
  28   14   17 1
  29   14   42 1
  30   15   16 2
  31   15   23 1
  32   17   18 ar
  33   17   22 ar
  34   18   19 ar
  35   18   43 1
  36   19   20 ar
  37   19   44 1
  38   20   21 ar
  39   20   45 1
  40   21   22 ar
  41   21   46 1
  42   23   24 1
  43   23   47 1
  44   23   48 1
  45   24   25 ar
  46   24   29 ar
  47   25   26 ar
  48   25   30 1
  49   26   27 ar
  50   26   49 1
  51   27   28 ar
  52   27   50 1
  53   28   29 ar
  54   28   51 1
  55   29   52 1

#	End of record

