#	Name: ASD13790002
#	Creating user name:	WinNT
#	Creation time:	15. 06. 2019 21:30

#	Modifying user name:	WinNT
#	Modification time:	15. 06. 2019 21:30

#	Program:	/corina/corina34_cracker 3.40 0067  02.08.2006

@<TRIPOS>MOLECULE
ASD13790002
  30   32    0    0    0
SMALL
NO_CHARGES


@<TRIPOS>ATOM
   1 C1            -0.0474     1.4107    -0.0132 C.ar    
   2 C2            -0.0484     0.0146    -0.0445 C.ar    
   3 C3             1.1354    -0.6882    -0.0849 C.ar    
   4 C4             2.3454    -0.0119    -0.0943 C.ar    
   5 C5             2.3653     1.3641    -0.0633 C.ar    
   6 C6             1.1670     2.0935    -0.0220 C.ar    
   7 N7            -1.2788     2.0476     0.0199 N.am    
   8 C8             1.2629     3.5613     0.0125 C.2     
   9 C9            -1.5666     3.1202     0.7537 C.2     
  10 N10            0.5232     4.3305     0.7300 N.2     
  11 C11           -0.5267     3.8006     1.6016 C.3     
  12 C12            2.2889     4.2011    -0.8434 C.ar    
  13 C13            2.7722     3.5384    -1.9714 C.ar    
  14 C14            3.7279     4.1395    -2.7647 C.ar    
  15 C15            4.2068     5.3969    -2.4430 C.ar    
  16 C16            3.7316     6.0592    -1.3251 C.ar    
  17 C17            2.7714     5.4711    -0.5276 C.ar    
  18 O18           -2.6965     3.5607     0.7380 O.2     
  19 Cl19           3.8359    -0.9005    -0.1447 Cl      
  20 H20           -0.9870    -0.5195    -0.0367 H       
  21 H21            1.1209    -1.7678    -0.1088 H       
  22 H22            3.3105     1.8865    -0.0707 H       
  23 H23           -1.9856     1.6831    -0.5354 H       
  24 H24           -0.9866     4.6173     2.1580 H       
  25 H25           -0.0945     3.0808     2.2967 H       
  26 H26            2.3994     2.5566    -2.2233 H       
  27 H27            4.1031     3.6271    -3.6382 H       
  28 H28            4.9548     5.8634    -3.0669 H       
  29 H29            4.1097     7.0403    -1.0787 H       
  30 H30            2.3977     5.9910     0.3422 H       
@<TRIPOS>BOND
   1    1    2 ar
   2    1    6 ar
   3    1    7 1
   4    2    3 ar
   5    2   20 1
   6    3    4 ar
   7    3   21 1
   8    4    5 ar
   9    4   19 1
  10    5    6 ar
  11    5   22 1
  12    6    8 1
  13    7    9 am
  14    7   23 1
  15    8   10 2
  16    8   12 1
  17    9   11 1
  18    9   18 2
  19   10   11 1
  20   11   24 1
  21   11   25 1
  22   12   13 ar
  23   12   17 ar
  24   13   14 ar
  25   13   26 1
  26   14   15 ar
  27   14   27 1
  28   15   16 ar
  29   15   28 1
  30   16   17 ar
  31   16   29 1
  32   17   30 1

#	End of record

