#	Name: ASD10160348
#	Creating user name:	WinNT
#	Creation time:	15. 06. 2019 21:25

#	Modifying user name:	WinNT
#	Modification time:	15. 06. 2019 21:25

#	Program:	/corina/corina34_cracker 3.40 0067  02.08.2006

@<TRIPOS>MOLECULE
ASD10160348
  47   48    0    0    0
SMALL
NO_CHARGES


@<TRIPOS>ATOM
   1 C1            -0.3987     1.1096    -1.9419 C.2     
   2 C2            -0.2787    -0.2690    -1.4369 C.ar    
   3 C3             0.9057    -0.9897    -1.6361 C.ar    
   4 C4             1.0127    -2.2807    -1.1603 C.ar    
   5 C5            -0.0518    -2.8643    -0.4855 C.ar    
   6 C6            -1.2303    -2.1511    -0.2857 C.ar    
   7 C7            -1.3450    -0.8605    -0.7519 C.ar    
   8 O8             0.5309     1.6234    -2.5325 O.2     
   9 O9            -1.5413     1.7990    -1.7539 O.3     
  10 F10            1.9411    -0.4224    -2.2929 F       
  11 O11            0.0574    -4.1342    -0.0197 O.3     
  12 C12            1.5451    -5.5225    -1.2590 C.ar    
  13 C13            1.2602    -4.7569    -0.1396 C.ar    
  14 C14            2.2207    -4.6328     0.8604 C.ar    
  15 C15            3.4316    -5.2840     0.6958 C.ar    
  16 C16            3.6459    -6.0344    -0.4541 C.ar    
  17 N17            2.7100    -6.1296    -1.3830 N.ar    
  18 O18            4.8298    -6.6766    -0.6257 O.3     
  19 C19            4.9898    -7.4318    -1.8282 C.3     
  20 C20            6.3763    -8.0787    -1.8434 C.3     
  21 C21            6.5195    -9.0067    -0.6355 C.3     
  22 F22            7.7872    -9.5981    -0.6494 F       
  23 F23            6.3628    -8.2673     0.5418 F       
  24 F24            6.5330    -8.8181    -3.0207 F       
  25 F25            7.3565    -7.0822    -1.7847 F       
  26 Cl26           4.6665    -5.1641     1.9100 Cl      
  27 Cl27          -2.5563    -2.8881     0.5584 Cl      
  28 C28           -1.5886     3.1522    -2.2783 C.3     
  29 C29           -1.3722     3.1202    -3.7926 C.3     
  30 C30           -2.9539     3.7708    -1.9712 C.3     
  31 C31           -0.4895     3.9915    -1.6237 C.3     
  32 H32            1.9250    -2.8381    -1.3133 H       
  33 H33           -2.2586    -0.3071    -0.5921 H       
  34 H34            0.8032    -5.6271    -2.0369 H       
  35 H35            2.0262    -4.0422     1.7435 H       
  36 H36            4.2262    -8.2083    -1.8740 H       
  37 H37            4.8879    -6.7707    -2.6888 H       
  38 H38            5.7558    -9.7831    -0.6812 H       
  39 H39           -2.1552     2.5222    -4.2590 H       
  40 H40           -1.4077     4.1360    -4.1863 H       
  41 H41           -0.3995     2.6795    -4.0114 H       
  42 H42           -3.1080     3.7936    -0.8924 H       
  43 H43           -2.9894     4.7866    -2.3649 H       
  44 H44           -3.7368     3.1728    -2.4376 H       
  45 H45            0.4831     3.5509    -1.8425 H       
  46 H46           -0.5250     5.0073    -2.0174 H       
  47 H47           -0.6437     4.0144    -0.5449 H       
@<TRIPOS>BOND
   1    1    2 1
   2    1    8 2
   3    1    9 1
   4    2    3 ar
   5    2    7 ar
   6    3    4 ar
   7    3   10 1
   8    4    5 ar
   9    4   32 1
  10    5    6 ar
  11    5   11 1
  12    6    7 ar
  13    6   27 1
  14    7   33 1
  15    9   28 1
  16   11   13 1
  17   12   13 ar
  18   12   17 ar
  19   12   34 1
  20   13   14 ar
  21   14   15 ar
  22   14   35 1
  23   15   16 ar
  24   15   26 1
  25   16   17 ar
  26   16   18 1
  27   18   19 1
  28   19   20 1
  29   19   36 1
  30   19   37 1
  31   20   21 1
  32   20   24 1
  33   20   25 1
  34   21   22 1
  35   21   23 1
  36   21   38 1
  37   28   29 1
  38   28   31 1
  39   28   30 1
  40   29   39 1
  41   29   40 1
  42   29   41 1
  43   30   42 1
  44   30   43 1
  45   30   44 1
  46   31   45 1
  47   31   46 1
  48   31   47 1

#	End of record

