#	Name: ASD10160205
#	Creating user name:	WinNT
#	Creation time:	15. 06. 2019 21:25

#	Modifying user name:	WinNT
#	Modification time:	15. 06. 2019 21:25

#	Program:	/corina/corina34_cracker 3.40 0067  02.08.2006

@<TRIPOS>MOLECULE
ASD10160205
  35   36    0    0    0
SMALL
NO_CHARGES


@<TRIPOS>ATOM
   1 C1            -0.0335     1.4701     0.0134 C.2     
   2 C2            -0.0094    -0.0043     0.0045 C.ar    
   3 C3             1.2056    -0.6857    -0.1325 C.ar    
   4 C4             1.2229    -2.0661    -0.1398 C.ar    
   5 C5             0.0378    -2.7777    -0.0120 C.ar    
   6 C6            -1.1730    -2.1036     0.1240 C.ar    
   7 C7            -1.1994    -0.7258     0.1386 C.ar    
   8 O8             1.0032     2.0958    -0.0983 O.2     
   9 N9            -1.2051     2.1242     0.1398 N.am    
  10 O10            0.0593    -4.1351    -0.0202 O.3     
  11 C11           -0.1516    -4.7684    -1.2014 C.ar    
  12 C12           -0.0379    -6.1514    -1.2705 C.ar    
  13 C13           -0.2556    -6.7850    -2.4813 C.ar    
  14 C14           -0.5809    -6.0092    -3.5856 C.ar    
  15 C15           -0.6767    -4.6392    -3.4440 C.ar    
  16 N16           -0.4688    -4.0639    -2.2749 N.ar    
  17 C17           -0.8262    -6.6554    -4.9247 C.3     
  18 F18           -2.1826    -6.9757    -5.0465 F       
  19 F19           -0.4631    -5.7686    -5.9440 F       
  20 F20           -0.0606    -7.8219    -5.0269 F       
  21 S21           -1.2322     3.7799     0.1499 S.o2    
  22 O22           -2.6043     4.1069     0.3219 O.2     
  23 O23           -0.2651     4.1403     1.1267 O.2     
  24 C24           -0.6684     4.2519    -1.5084 C.3     
  25 F25           -2.3231    -2.8015     0.2475 F       
  26 F26            2.3592     0.0062    -0.2577 F       
  27 H27            2.1597    -2.5931    -0.2454 H       
  28 H28           -2.1386    -0.2042     0.2490 H       
  29 H29           -2.0325     1.6251     0.2249 H       
  30 H30            0.2172    -6.7241    -0.3912 H       
  31 H31           -0.1739    -7.8587    -2.5653 H       
  32 H32           -0.9295    -4.0311    -4.3000 H       
  33 H33           -1.3471     3.8383    -2.2543 H       
  34 H34           -0.6551     5.3386    -1.5920 H       
  35 H35            0.3359     3.8623    -1.6753 H       
@<TRIPOS>BOND
   1    1    2 1
   2    1    8 2
   3    1    9 am
   4    2    3 ar
   5    2    7 ar
   6    3    4 ar
   7    3   26 1
   8    4    5 ar
   9    4   27 1
  10    5    6 ar
  11    5   10 1
  12    6    7 ar
  13    6   25 1
  14    7   28 1
  15    9   21 am
  16    9   29 1
  17   10   11 1
  18   11   12 ar
  19   11   16 ar
  20   12   13 ar
  21   12   30 1
  22   13   14 ar
  23   13   31 1
  24   14   15 ar
  25   14   17 1
  26   15   16 ar
  27   15   32 1
  28   17   18 1
  29   17   19 1
  30   17   20 1
  31   21   22 2
  32   21   23 2
  33   21   24 1
  34   24   33 1
  35   24   34 1
  36   24   35 1

#	End of record

