#	Name: ASD10160083
#	Creating user name:	WinNT
#	Creation time:	15. 06. 2019 21:25

#	Modifying user name:	WinNT
#	Modification time:	15. 06. 2019 21:25

#	Program:	/corina/corina34_cracker 3.40 0067  02.08.2006

@<TRIPOS>MOLECULE
ASD10160083
  42   43    0    0    0
SMALL
NO_CHARGES


@<TRIPOS>ATOM
   1 C1            -0.3975     1.1114    -1.9432 C.2     
   2 C2            -0.2776    -0.2684    -1.4375 C.ar    
   3 C3             0.9063    -0.9885    -1.6362 C.ar    
   4 C4             1.0137    -2.2800    -1.1609 C.ar    
   5 C5            -0.0504    -2.8645    -0.4872 C.ar    
   6 C6            -1.2299    -2.1516    -0.2878 C.ar    
   7 C7            -1.3439    -0.8595    -0.7529 C.ar    
   8 O8             0.5328     1.6255    -2.5340 O.2     
   9 N9            -1.5402     1.8009    -1.7556 N.am    
  10 S10           -1.6750     3.3506    -2.3237 S.o2    
  11 O11           -2.9777     3.7570    -1.9275 O.2     
  12 O12           -0.5187     4.0086    -1.8243 O.2     
  13 C13           -1.5819     3.1813    -4.1273 C.3     
  14 O14            0.0593    -4.1349    -0.0218 O.3     
  15 C15            1.5483    -5.5218    -1.2606 C.ar    
  16 C16            1.2624    -4.7569    -0.1412 C.ar    
  17 C17            2.2223    -4.6325     0.8595 C.ar    
  18 C18            3.4342    -5.2833     0.6952 C.ar    
  19 C19            3.6492    -6.0335    -0.4559 C.ar    
  20 N20            2.7137    -6.1284    -1.3848 N.ar    
  21 O21            4.8336    -6.6754    -0.6277 O.3     
  22 C22            4.9942    -7.4299    -1.8306 C.3     
  23 C23            6.4707    -7.4429    -2.2312 C.3     
  24 C24            4.5155    -8.8647    -1.6004 C.3     
  25 F25            4.3948    -5.1900     1.6406 F       
  26 F26           -2.2622    -2.7257     0.3681 F       
  27 F27            1.9417    -0.4207    -2.2925 F       
  28 H28            1.9265    -2.8367    -1.3135 H       
  29 H29           -2.2574    -0.3060    -0.5935 H       
  30 H30           -2.2837     1.3894    -1.2879 H       
  31 H31           -2.3979     2.5479    -4.4754 H       
  32 H32           -1.6632     4.1652    -4.5893 H       
  33 H33           -0.6287     2.7290    -4.4011 H       
  34 H34            0.8068    -5.6264    -2.0388 H       
  35 H35            2.0269    -4.0424     1.7427 H       
  36 H36            4.4057    -6.9739    -2.6268 H       
  37 H37            7.0592    -7.8989    -1.4351 H       
  38 H38            6.5932    -8.0184    -3.1488 H       
  39 H39            6.8117    -6.4207    -2.3953 H       
  40 H40            3.4636    -8.8554    -1.3149 H       
  41 H41            4.6380    -9.4402    -2.5179 H       
  42 H42            5.1040    -9.3207    -0.8042 H       
@<TRIPOS>BOND
   1    1    2 1
   2    1    8 2
   3    1    9 am
   4    2    3 ar
   5    2    7 ar
   6    3    4 ar
   7    3   27 1
   8    4    5 ar
   9    4   28 1
  10    5    6 ar
  11    5   14 1
  12    6    7 ar
  13    6   26 1
  14    7   29 1
  15    9   10 am
  16    9   30 1
  17   10   11 2
  18   10   12 2
  19   10   13 1
  20   13   31 1
  21   13   32 1
  22   13   33 1
  23   14   16 1
  24   15   16 ar
  25   15   20 ar
  26   15   34 1
  27   16   17 ar
  28   17   18 ar
  29   17   35 1
  30   18   19 ar
  31   18   25 1
  32   19   20 ar
  33   19   21 1
  34   21   22 1
  35   22   23 1
  36   22   24 1
  37   22   36 1
  38   23   37 1
  39   23   38 1
  40   23   39 1
  41   24   40 1
  42   24   41 1
  43   24   42 1

#	End of record

