#	Name: ASD11000268
#	Creating user name:	WinNT
#	Creation time:	15. 06. 2019 21:29

#	Modifying user name:	WinNT
#	Modification time:	15. 06. 2019 21:29

#	Program:	/corina/corina34_cracker 3.40 0067  02.08.2006

@<TRIPOS>MOLECULE
ASD11000268
  65   68    0    0    0
SMALL
NO_CHARGES


@<TRIPOS>ATOM
   1 O1             0.0369     1.2978     0.0453 O.3     
   2 C2             0.0632    -0.0442     0.0358 C.2     
   3 N3             1.3422    -0.4682     0.0112 N.am    
   4 C4             2.1592     0.6646     0.0050 C.ar    
   5 C5             1.3077     1.7692     0.0269 C.ar    
   6 C6             1.8400     3.0485     0.0262 C.ar    
   7 C7             3.2145     3.2242     0.0036 C.ar    
   8 C8             4.0590     2.1227    -0.0181 C.ar    
   9 C9             3.5328     0.8455    -0.0166 C.ar    
  10 O10           -0.9156    -0.7657     0.0479 O.2     
  11 C11            1.7930    -1.8620    -0.0051 C.3     
  12 O12            1.5861    -2.4144    -1.3067 O.3     
  13 C13            2.5922    -2.0569    -2.2565 C.3     
  14 C14            2.2704    -2.7003    -3.6068 C.3     
  15 Si15           3.5820    -2.2342    -4.8451 Si      
  16 C16            5.2409    -2.8374    -4.2493 C.3     
  17 C17            3.1902    -3.0176    -6.4893 C.3     
  18 C18            3.6265    -0.3814    -5.0348 C.3     
  19 O19            3.7375     4.4793     0.0024 O.3     
  20 C20            5.1621     4.5886    -0.0214 C.3     
  21 C21            6.2522     8.6282    -0.0152 C.ar    
  22 N22            6.1032     7.9967     1.1402 N.ar    
  23 C23            5.7592     6.7200     1.1734 C.ar    
  24 C24            5.5544     6.0436    -0.0191 C.ar    
  25 C25            5.7188     6.7346    -1.2095 C.ar    
  26 N26            6.0640     8.0108    -1.1724 N.ar    
  27 N27            6.6075     9.9668    -0.0130 N.pl3   
  28 C28            6.8845    10.6197    -1.2205 C.ar    
  29 C29            6.5445    11.9564    -1.3814 C.ar    
  30 C30            6.8184    12.5996    -2.5724 C.ar    
  31 C31            7.4330    11.9108    -3.6077 C.ar    
  32 C32            7.7725    10.5754    -3.4480 C.ar    
  33 C33            7.5044     9.9323    -2.2556 C.ar    
  34 O34            7.7023    12.5449    -4.7801 O.3     
  35 C35            8.3366    11.7750    -5.8033 C.3     
  36 F36            7.5225    10.6888    -6.1419 F       
  37 F37            8.5385    12.5761    -6.9323 F       
  38 F38            9.5697    11.3062    -5.3375 F       
  39 H39            1.1850     3.9070     0.0427 H       
  40 H40            5.1295     2.2645    -0.0360 H       
  41 H41            4.1909    -0.0107    -0.0333 H       
  42 H42            2.8536    -1.9038     0.2429 H       
  43 H43            1.2257    -2.4360     0.7276 H       
  44 H44            2.6182    -0.9728    -2.3675 H       
  45 H45            3.5627    -2.4098    -1.9079 H       
  46 H46            2.2444    -3.7843    -3.4958 H       
  47 H47            1.2998    -2.3473    -3.9554 H       
  48 H48            5.2149    -3.9214    -4.1382 H       
  49 H49            6.0083    -2.5647    -4.9738 H       
  50 H50            5.4701    -2.3790    -3.2873 H       
  51 H51            2.2196    -2.6647    -6.8379 H       
  52 H52            3.9576    -2.7449    -7.2138 H       
  53 H53            3.1642    -4.1016    -6.3783 H       
  54 H54            3.8557     0.0770    -4.0728 H       
  55 H55            4.3939    -0.1087    -5.7593 H       
  56 H56            2.6559    -0.0285    -5.3834 H       
  57 H57            5.5788     4.0986     0.8586 H       
  58 H58            5.5482     4.1095    -0.9211 H       
  59 H59            5.6396     6.2105     2.1181 H       
  60 H60            5.5671     6.2367    -2.1558 H       
  61 H61            6.6646    10.4521     0.8249 H       
  62 H62            6.0657    12.4927    -0.5755 H       
  63 H63            6.5537    13.6391    -2.6978 H       
  64 H64            8.2506    10.0397    -4.2547 H       
  65 H65            7.7732     8.8939    -2.1297 H       
@<TRIPOS>BOND
   1    1    2 1
   2    1    5 1
   3    2    3 am
   4    2   10 2
   5    3    4 1
   6    3   11 1
   7    4    5 ar
   8    4    9 ar
   9    5    6 ar
  10    6    7 ar
  11    6   39 1
  12    7    8 ar
  13    7   19 1
  14    8    9 ar
  15    8   40 1
  16    9   41 1
  17   11   12 1
  18   11   42 1
  19   11   43 1
  20   12   13 1
  21   13   14 1
  22   13   44 1
  23   13   45 1
  24   14   15 1
  25   14   46 1
  26   14   47 1
  27   15   16 1
  28   15   17 1
  29   15   18 1
  30   16   48 1
  31   16   49 1
  32   16   50 1
  33   17   51 1
  34   17   52 1
  35   17   53 1
  36   18   54 1
  37   18   55 1
  38   18   56 1
  39   19   20 1
  40   20   24 1
  41   20   57 1
  42   20   58 1
  43   21   22 ar
  44   21   26 ar
  45   21   27 1
  46   22   23 ar
  47   23   24 ar
  48   23   59 1
  49   24   25 ar
  50   25   26 ar
  51   25   60 1
  52   27   28 1
  53   27   61 1
  54   28   29 ar
  55   28   33 ar
  56   29   30 ar
  57   29   62 1
  58   30   31 ar
  59   30   63 1
  60   31   32 ar
  61   31   34 1
  62   32   33 ar
  63   32   64 1
  64   33   65 1
  65   34   35 1
  66   35   36 1
  67   35   37 1
  68   35   38 1

#	End of record

