#	Name: ASD13620004
#	Creating user name:	WinNT
#	Creation time:	15. 06. 2019 21:30

#	Modifying user name:	WinNT
#	Modification time:	15. 06. 2019 21:30

#	Program:	/corina/corina34_cracker 3.40 0067  02.08.2006

@<TRIPOS>MOLECULE
ASD13620004
  50   53    0    0    0
SMALL
NO_CHARGES


@<TRIPOS>ATOM
   1 C1            -0.0221     1.2709     0.1731 C.ar    
   2 C2             0.0280    -0.1110     0.2371 C.ar    
   3 C3             1.2502    -0.7585     0.2156 C.ar    
   4 C4             2.4232    -0.0354     0.1297 C.ar    
   5 C5             2.3879     1.3538     0.0629 C.ar    
   6 C6             1.1538     2.0018     0.0873 C.ar    
   7 S7             1.0994     3.7637     0.0123 S.3     
   8 N8             3.5825     2.0640    -0.0321 N.am    
   9 C9             3.7595     3.3400     0.3032 C.2     
  10 C10            2.6584     4.2188     0.8280 C.3     
  11 C11            2.9847     5.6832     0.5284 C.3     
  12 O12            4.8670     3.8187     0.1788 O.2     
  13 C13            2.1077     7.0349     2.4429 C.ar    
  14 C14            1.9366     6.5690     1.1513 C.ar    
  15 C15            4.7486     1.3417    -0.5466 C.3     
  16 C16            5.5180     0.7455     0.6038 C.ar    
  17 C17            6.6209    -0.0514     0.3587 C.ar    
  18 C18            7.0536    -0.3237    -1.0589 C.3     
  19 F19            8.2347    -1.0735    -1.0500 F       
  20 C20            5.1245     0.9999     1.9041 C.ar    
  21 C21            5.8304     0.4529     2.9596 C.ar    
  22 C22            6.9293    -0.3487     2.7144 C.ar    
  23 C23            7.3268    -0.5979     1.4139 C.ar    
  24 C24            0.8078     6.9130     0.4289 C.ar    
  25 C25            1.1523     7.8461     3.0191 C.ar    
  26 C26            0.0108     8.1971     2.2958 C.ar    
  27 C27           -0.1553     7.7238     0.9927 C.ar    
  28 C28           -1.0169     9.0650     2.9066 C.2     
  29 O29           -0.8698     9.4750     4.0405 O.2     
  30 O30           -2.1171     9.4018     2.2060 O.3     
  31 F31            6.0518    -1.0396    -1.7229 F       
  32 F32            7.2762     0.8891    -1.7197 F       
  33 F33           -1.2143     1.9062     0.1886 F       
  34 H34           -0.8858    -0.6827     0.3039 H       
  35 H35            1.2871    -1.8366     0.2668 H       
  36 H36            3.3723    -0.5505     0.1147 H       
  37 H37            2.5610     4.0795     1.9047 H       
  38 H38            3.9621     5.9299     0.9432 H       
  39 H39            2.9979     5.8392    -0.5503 H       
  40 H40            2.9891     6.7590     3.0028 H       
  41 H41            4.4177     0.5458    -1.2138 H       
  42 H42            5.3906     2.0315    -1.0944 H       
  43 H43            4.2658     1.6263     2.0957 H       
  44 H44            5.5233     0.6523     3.9756 H       
  45 H45            7.4809    -0.7757     3.5389 H       
  46 H46            8.1855    -1.2243     1.2223 H       
  47 H47            0.6806     6.5462    -0.5789 H       
  48 H48            1.2870     8.2088     4.0275 H       
  49 H49           -1.0356     7.9921     0.4275 H       
  50 H50           -2.7614     9.9717     2.6477 H       
@<TRIPOS>BOND
   1    1    2 ar
   2    1    6 ar
   3    1   33 1
   4    2    3 ar
   5    2   34 1
   6    3    4 ar
   7    3   35 1
   8    4    5 ar
   9    4   36 1
  10    5    6 ar
  11    5    8 1
  12    6    7 1
  13    7   10 1
  14    8    9 am
  15    8   15 1
  16    9   12 2
  17    9   10 1
  18   10   11 1
  19   10   37 1
  20   11   14 1
  21   11   38 1
  22   11   39 1
  23   13   25 ar
  24   13   14 ar
  25   13   40 1
  26   14   24 ar
  27   15   16 1
  28   15   41 1
  29   15   42 1
  30   16   17 ar
  31   16   20 ar
  32   17   18 1
  33   17   23 ar
  34   18   19 1
  35   18   31 1
  36   18   32 1
  37   20   21 ar
  38   20   43 1
  39   21   22 ar
  40   21   44 1
  41   22   23 ar
  42   22   45 1
  43   23   46 1
  44   24   27 ar
  45   24   47 1
  46   25   26 ar
  47   25   48 1
  48   26   27 ar
  49   26   28 1
  50   27   49 1
  51   28   29 2
  52   28   30 1
  53   30   50 1

#	End of record

