#	Name: ASD11000051
#	Creating user name:	WinNT
#	Creation time:	15. 06. 2019 21:28

#	Modifying user name:	WinNT
#	Modification time:	15. 06. 2019 21:28

#	Program:	/corina/corina34_cracker 3.40 0067  02.08.2006

@<TRIPOS>MOLECULE
ASD11000051
  61   64    0    0    0
SMALL
NO_CHARGES


@<TRIPOS>ATOM
   1 C1            -2.8892    -0.6760     1.8102 C.ar    
   2 C2            -2.3817    -1.8957     1.4067 C.ar    
   3 C3            -1.0105    -2.0765     1.3039 C.ar    
   4 C4            -0.1487    -1.0328     1.6066 C.ar    
   5 C5            -0.6562     0.1869     2.0102 C.ar    
   6 C6            -2.0275     0.3679     2.1125 C.ar    
   7 O7            -2.5271     1.5687     2.5093 O.3     
   8 O8            -0.5109    -3.2773     0.9066 O.3     
   9 C9             0.9110    -3.3927     0.8229 C.3     
  10 C10            1.2819    -4.8041     0.3631 C.3     
  11 N11            1.0806    -4.9141    -1.0856 N.am    
  12 C12            2.7271    -5.0773     0.6976 C.ar    
  13 C13            3.6090    -5.6027    -0.2207 C.ar    
  14 C14            3.1590    -4.7818     1.9837 C.ar    
  15 C15            4.9254    -5.8470     0.1525 C.ar    
  16 C16            5.3594    -5.5584     1.4329 C.ar    
  17 C17            4.4698    -5.0177     2.3564 C.ar    
  18 C18            1.7022    -6.0605    -1.7689 C.3     
  19 C19            3.2180    -5.9183    -1.6406 C.3     
  20 O20            4.8862    -4.7246     3.6174 O.3     
  21 C21            3.9157    -4.1721     4.5090 C.3     
  22 O22            6.6495    -5.8011     1.7881 O.3     
  23 C23            7.5046    -6.3565     0.7869 C.3     
  24 C24           -3.9489     1.6843     2.5927 C.3     
  25 C25            0.3555    -4.0027    -1.7638 C.2     
  26 O26           -0.2379    -3.1283    -1.1624 O.2     
  27 N27            0.2881    -4.0606    -3.1086 N.am    
  28 C28           -0.5123    -3.1510    -3.8089 C.ar    
  29 C29           -1.2156    -3.5644    -4.9326 C.ar    
  30 C30           -2.0050    -2.6644    -5.6213 C.ar    
  31 C31           -2.0955    -1.3527    -5.1929 C.ar    
  32 C32           -1.3963    -0.9379    -4.0743 C.ar    
  33 C33           -0.6094    -1.8343    -3.3782 C.ar    
  34 H34           -3.9571    -0.5339     1.8860 H       
  35 H35           -3.0527    -2.7087     1.1716 H       
  36 H36            0.9191    -1.1738     1.5273 H       
  37 H37            0.0149     0.9995     2.2463 H       
  38 H38            1.2930    -2.6652     0.1067 H       
  39 H39            1.3493    -3.2028     1.8026 H       
  40 H40            0.6487    -5.5299     0.8734 H       
  41 H41            2.4658    -4.3639     2.6987 H       
  42 H42            5.6155    -6.2666    -0.5645 H       
  43 H43            1.3780    -6.9895    -1.3000 H       
  44 H44            1.4196    -6.0599    -2.8217 H       
  45 H45            3.5591    -5.1148    -2.2934 H       
  46 H46            3.6925    -6.8515    -1.9441 H       
  47 H47            3.0909    -4.8746     4.6289 H       
  48 H48            4.3777    -3.9855     5.4785 H       
  49 H49            3.5383    -3.2350     4.0999 H       
  50 H50            8.5028    -6.5001     1.2004 H       
  51 H51            7.1052    -7.3166     0.4598 H       
  52 H52            7.5579    -5.6765    -0.0634 H       
  53 H53           -4.2132     2.6899     2.9199 H       
  54 H54           -4.3870     1.4942     1.6128 H       
  55 H55           -4.3312     0.9570     3.3088 H       
  56 H56            0.7944    -4.7327    -3.5911 H       
  57 H57           -1.1451    -4.5887    -5.2679 H       
  58 H58           -2.5520    -2.9853    -6.4955 H       
  59 H59           -2.7132    -0.6507    -5.7333 H       
  60 H60           -1.4690     0.0872    -3.7422 H       
  61 H61           -0.0639    -1.5098    -2.5044 H       
@<TRIPOS>BOND
   1    1    2 ar
   2    1    6 ar
   3    1   34 1
   4    2    3 ar
   5    2   35 1
   6    3    4 ar
   7    3    8 1
   8    4    5 ar
   9    4   36 1
  10    5    6 ar
  11    5   37 1
  12    6    7 1
  13    7   24 1
  14    8    9 1
  15    9   10 1
  16    9   38 1
  17    9   39 1
  18   10   11 1
  19   10   12 1
  20   10   40 1
  21   11   18 1
  22   11   25 am
  23   12   13 ar
  24   12   14 ar
  25   13   15 ar
  26   13   19 1
  27   14   17 ar
  28   14   41 1
  29   15   16 ar
  30   15   42 1
  31   16   17 ar
  32   16   22 1
  33   17   20 1
  34   18   19 1
  35   18   43 1
  36   18   44 1
  37   19   45 1
  38   19   46 1
  39   20   21 1
  40   21   47 1
  41   21   48 1
  42   21   49 1
  43   22   23 1
  44   23   50 1
  45   23   51 1
  46   23   52 1
  47   24   53 1
  48   24   54 1
  49   24   55 1
  50   25   26 2
  51   25   27 am
  52   27   28 1
  53   27   56 1
  54   28   29 ar
  55   28   33 ar
  56   29   30 ar
  57   29   57 1
  58   30   31 ar
  59   30   58 1
  60   31   32 ar
  61   31   59 1
  62   32   33 ar
  63   32   60 1
  64   33   61 1

#	End of record

