#	Name: ASD11000237
#	Creating user name:	WinNT
#	Creation time:	15. 06. 2019 21:29

#	Modifying user name:	WinNT
#	Modification time:	15. 06. 2019 21:29

#	Program:	/corina/corina34_cracker 3.40 0067  02.08.2006

@<TRIPOS>MOLECULE
ASD11000237
  51   54    0    0    0
SMALL
NO_CHARGES


@<TRIPOS>ATOM
   1 N1            -0.0172     1.3215    -0.0112 N.ar    
   2 C2             0.0016    -0.0034    -0.0060 C.ar    
   3 N3             1.1403    -0.6810    -0.0155 N.ar    
   4 C4             2.3025    -0.0498    -0.0305 C.ar    
   5 C5             2.3192     1.3363    -0.0364 C.ar    
   6 C6             1.1098     2.0136    -0.0261 C.ar    
   7 N7            -1.1973    -0.6965     0.0102 N.pl3   
   8 C8            -1.2008    -2.0923    -0.1029 C.ar    
   9 C9            -2.1492    -2.8423     0.5800 C.ar    
  10 C10           -0.2595    -2.7268    -0.9027 C.ar    
  11 C11           -0.2639    -4.1032    -1.0141 C.ar    
  12 C12           -1.2086    -4.8520    -0.3278 C.ar    
  13 C13           -2.1523    -4.2186     0.4675 C.ar    
  14 C14            3.6238     2.0904    -0.0530 C.3     
  15 C15            3.6914     2.9649    -1.3066 C.3     
  16 C16            5.0442     3.6242    -1.3868 C.ar    
  17 C17            6.0649     2.9976    -2.0444 C.ar    
  18 C18            7.3202     3.6093    -2.1194 C.ar    
  19 C19            7.5248     4.8656    -1.5177 C.ar    
  20 C20            6.4708     5.4846    -0.8542 C.ar    
  21 C21            5.2406     4.8652    -0.7970 C.ar    
  22 C22           -2.2134    -6.9153     0.2959 C.3     
  23 O23           -1.2126    -6.2073    -0.4384 O.3     
  24 F24           -2.0650    -6.6500     1.6615 F       
  25 F25           -3.4815    -6.5001    -0.1247 F       
  26 C26            3.7174     2.9752     1.1917 C.3     
  27 C27            8.4360     2.9659    -2.8155 C.2     
  28 C28            9.6304     3.6064    -2.8554 C.2     
  29 C29            9.7831     4.8652    -2.2355 C.2     
  30 N30            8.7645     5.4640    -1.5939 N.am    
  31 O31           10.8655     5.4234    -2.2830 O.2     
  32 H32            3.2273    -0.6075    -0.0378 H       
  33 H33            1.0881     3.0934    -0.0307 H       
  34 H34           -2.0347    -0.2151     0.0999 H       
  35 H35           -2.8840    -2.3493     1.1993 H       
  36 H36            0.4756    -2.1439    -1.4377 H       
  37 H37            0.4681    -4.5968    -1.6361 H       
  38 H38           -2.8875    -4.8023     1.0016 H       
  39 H39            4.4527     1.3825    -0.0587 H       
  40 H40            3.5359     2.3460    -2.1902 H       
  41 H41            2.9167     3.7301    -1.2580 H       
  42 H42            5.9030     2.0337    -2.5040 H       
  43 H43            6.6146     6.4483    -0.3885 H       
  44 H44            4.4232     5.3471    -0.2813 H       
  45 H45           -2.1045    -7.9854     0.1197 H       
  46 H46            3.6692     2.3521     2.0848 H       
  47 H47            4.6610     3.5206     1.1797 H       
  48 H48            2.8885     3.6831     1.1974 H       
  49 H49            8.3106     2.0021    -3.2866 H       
  50 H50           10.4681     3.1516    -3.3631 H       
  51 H51            8.9039     6.3294    -1.1786 H       
@<TRIPOS>BOND
   1    1    2 ar
   2    1    6 ar
   3    2    3 ar
   4    2    7 1
   5    3    4 ar
   6    4    5 ar
   7    4   32 1
   8    5    6 ar
   9    5   14 1
  10    6   33 1
  11    7    8 1
  12    7   34 1
  13    8    9 ar
  14    8   10 ar
  15    9   13 ar
  16    9   35 1
  17   10   11 ar
  18   10   36 1
  19   11   12 ar
  20   11   37 1
  21   12   13 ar
  22   12   23 1
  23   13   38 1
  24   14   15 1
  25   14   26 1
  26   14   39 1
  27   15   16 1
  28   15   40 1
  29   15   41 1
  30   16   17 ar
  31   16   21 ar
  32   17   18 ar
  33   17   42 1
  34   18   19 ar
  35   18   27 1
  36   19   20 ar
  37   19   30 1
  38   20   21 ar
  39   20   43 1
  40   21   44 1
  41   22   23 1
  42   22   24 1
  43   22   25 1
  44   22   45 1
  45   26   46 1
  46   26   47 1
  47   26   48 1
  48   27   28 2
  49   27   49 1
  50   28   29 1
  51   28   50 1
  52   29   30 am
  53   29   31 2
  54   30   51 1

#	End of record

