#	Name: ASD10160007
#	Creating user name:	WinNT
#	Creation time:	15. 06. 2019 21:25

#	Modifying user name:	WinNT
#	Modification time:	15. 06. 2019 21:25

#	Program:	/corina/corina34_cracker 3.40 0067  02.08.2006

@<TRIPOS>MOLECULE
ASD10160007
  47   52    0    0    0
SMALL
NO_CHARGES


@<TRIPOS>ATOM
   1 C1             0.0239     1.3822     0.0626 C.ar    
   2 C2             0.0294    -0.0091     0.0357 C.ar    
   3 C3            -1.1543    -0.7166     0.0111 C.ar    
   4 C4            -2.3661    -0.0466     0.0239 C.ar    
   5 C5            -2.3844     1.3458     0.0609 C.ar    
   6 C6            -1.1955     2.0527     0.0788 C.ar    
   7 O7             1.2930     1.8816     0.0634 O.3     
   8 C8             2.2106     0.8483     0.4699 C.3     
   9 C9             1.4736    -0.4330     0.0568 C.3     
  10 O10           -3.6540    -0.5005     0.0074 O.3     
  11 C11           -4.4569     0.6092     0.4516 C.3     
  12 O12           -3.6845     1.7635     0.0721 O.3     
  13 C13            1.7239    -1.5573     1.0176 C.ar    
  14 C14            2.2778    -2.5856     0.2586 C.ar    
  15 N15            2.3897    -2.1934    -1.0774 N.am    
  16 C16            1.9380    -0.9394    -1.2783 C.2     
  17 C17            1.5182    -1.7170     2.3693 C.ar    
  18 C18            1.8620    -2.9066     2.9871 C.ar    
  19 C19            2.4123    -3.9341     2.2435 C.ar    
  20 C20            2.6204    -3.7790     0.8885 C.ar    
  21 O21            1.9113    -0.3381    -2.3313 O.2     
  22 C22            2.9352    -3.0456    -2.1368 C.3     
  23 C23            1.8516    -3.9530    -2.6595 C.ar    
  24 C24            1.4283    -3.8274    -3.9689 C.ar    
  25 C25            0.4305    -4.6673    -4.4401 C.ar    
  26 C26           -0.1060    -5.6060    -3.5724 C.ar    
  27 C27            0.3679    -5.6730    -2.2757 C.ar    
  28 N28            1.3220    -4.8615    -1.8635 N.ar    
  29 C29            2.0429    -2.7904    -4.8733 C.3     
  30 F30            1.5333    -2.9395    -6.1676 F       
  31 F31            1.7341    -1.5125    -4.3949 F       
  32 F32            3.4318    -2.9565    -4.8970 F       
  33 H33           -1.1361    -1.7961    -0.0186 H       
  34 H34           -1.2137     3.1322     0.1069 H       
  35 H35            3.1569     0.9394    -0.0633 H       
  36 H36            2.3687     0.8734     1.5481 H       
  37 H37           -5.4220     0.6107    -0.0551 H       
  38 H38           -4.5909     0.5765     1.5328 H       
  39 H39            1.0884    -0.9129     2.9483 H       
  40 H40            1.7012    -3.0320     4.0477 H       
  41 H41            2.6809    -4.8625     2.7257 H       
  42 H42            3.0506    -4.5862     0.3143 H       
  43 H43            3.3095    -2.4216    -2.9484 H       
  44 H44            3.7507    -3.6472    -1.7353 H       
  45 H45            0.0796    -4.5918    -5.4587 H       
  46 H46           -0.8848    -6.2761    -3.9053 H       
  47 H47           -0.0451    -6.4012    -1.5934 H       
@<TRIPOS>BOND
   1    1    2 ar
   2    1    7 1
   3    1    6 ar
   4    2    3 ar
   5    2    9 1
   6    3    4 ar
   7    3   33 1
   8    4    5 ar
   9    4   10 1
  10    5    6 ar
  11    5   12 1
  12    6   34 1
  13    7    8 1
  14    8    9 1
  15    8   35 1
  16    8   36 1
  17    9   13 1
  18    9   16 1
  19   10   11 1
  20   11   12 1
  21   11   37 1
  22   11   38 1
  23   13   14 ar
  24   13   17 ar
  25   14   15 1
  26   14   20 ar
  27   15   16 am
  28   15   22 1
  29   16   21 2
  30   17   18 ar
  31   17   39 1
  32   18   19 ar
  33   18   40 1
  34   19   20 ar
  35   19   41 1
  36   20   42 1
  37   22   23 1
  38   22   43 1
  39   22   44 1
  40   23   24 ar
  41   23   28 ar
  42   24   25 ar
  43   24   29 1
  44   25   26 ar
  45   25   45 1
  46   26   27 ar
  47   26   46 1
  48   27   28 ar
  49   27   47 1
  50   29   30 1
  51   29   31 1
  52   29   32 1

#	End of record

