#	Name: ASD10410248
#	Creating user name:	WinNT
#	Creation time:	15. 06. 2019 21:27

#	Modifying user name:	WinNT
#	Modification time:	15. 06. 2019 21:27

#	Program:	/corina/corina34_cracker 3.40 0067  02.08.2006

@<TRIPOS>MOLECULE
ASD10410248
  56   60    0    0    0
SMALL
NO_CHARGES


@<TRIPOS>ATOM
   1 C1            -0.0505     1.3700    -0.2276 C.ar    
   2 C2            -0.0131    -0.0044    -0.0439 C.ar    
   3 C3             1.1967    -0.6408     0.1916 C.ar    
   4 C4             2.3651     0.0934     0.2429 C.ar    
   5 C5             2.3287     1.4694     0.0587 C.ar    
   6 C6             1.1170     2.1058    -0.1766 C.ar    
   7 O7            -1.1633    -0.7283    -0.0943 O.3     
   8 N8             3.5125     2.2146     0.1110 N.pl3   
   9 C9             3.6381     3.3780    -0.6473 C.2     
  10 N10            4.6556     4.2044    -0.6085 N.2     
  11 N11            2.7421     3.8259    -1.5347 N.2     
  12 C12            3.1716     4.9478    -2.0715 C.2     
  13 N13            4.3815     5.2362    -1.5208 N.pl3   
  14 C14            5.1870     6.3342    -1.8051 C.ar    
  15 N15            2.5129     5.6972    -3.0268 N.pl3   
  16 C16            6.5611     6.1568    -2.0406 C.ar    
  17 C17           -1.0511    -2.1391     0.1036 C.3     
  18 C18           -2.4380    -2.7787     0.0125 C.3     
  19 N19           -2.9628    -2.6179    -1.3501 N.3     
  20 C20           -4.1837    -3.4214    -1.5444 C.3     
  21 C21           -5.3011    -2.4548    -1.9901 C.3     
  22 C22           -4.5117    -1.2524    -2.5715 C.3     
  23 C23           -3.2814    -1.2019    -1.6315 C.3     
  24 N24            4.6598     7.5460    -1.8595 N.ar    
  25 C25            5.3841     8.6191    -2.1263 C.ar    
  26 C26            6.7391     8.5352    -2.3645 C.ar    
  27 C27            7.3546     7.2856    -2.3269 C.ar    
  28 N28            8.7014     7.1368    -2.5562 N.am    
  29 C29            7.1636     4.8758    -1.9975 C.2     
  30 C30            9.2663     5.9144    -2.5131 C.2     
  31 C31            8.4953     4.7665    -2.2338 C.2     
  32 O32           10.4622     5.7985    -2.7187 O.2     
  33 H33           -0.9923     1.8641    -0.4150 H       
  34 H34            1.2248    -1.7109     0.3353 H       
  35 H35            3.3069    -0.4022     0.4267 H       
  36 H36            1.0877     3.1758    -0.3204 H       
  37 H37            4.2455     1.9216     0.6747 H       
  38 H38            1.6502     5.4063    -3.3614 H       
  39 H39            2.9131     6.5143    -3.3631 H       
  40 H40           -0.4041    -2.5634    -0.6642 H       
  41 H41           -0.6244    -2.3352     1.0872 H       
  42 H42           -2.3651    -3.8398     0.2509 H       
  43 H43           -3.1095    -2.2926     0.7202 H       
  44 H44           -4.0142    -4.1730    -2.3153 H       
  45 H45           -4.4628    -3.9041    -0.6078 H       
  46 H46           -5.9244    -2.9139    -2.7574 H       
  47 H47           -5.9043    -2.1436    -1.1373 H       
  48 H48           -4.2090    -1.4450    -3.6007 H       
  49 H49           -5.0936    -0.3333    -2.5028 H       
  50 H50           -3.5304    -0.6783    -0.7085 H       
  51 H51           -2.4427    -0.7160    -2.1300 H       
  52 H52            4.9024     9.5852    -2.1588 H       
  53 H53            7.3140     9.4235    -2.5807 H       
  54 H54            9.2473     7.9147    -2.7502 H       
  55 H55            6.5720     3.9989    -1.7793 H       
  56 H56            8.9683     3.7960    -2.2040 H       
@<TRIPOS>BOND
   1    1    2 ar
   2    1    6 ar
   3    1   33 1
   4    2    3 ar
   5    2    7 1
   6    3    4 ar
   7    3   34 1
   8    4    5 ar
   9    4   35 1
  10    5    6 ar
  11    5    8 1
  12    6   36 1
  13    7   17 1
  14    8    9 1
  15    8   37 1
  16    9   10 2
  17    9   11 1
  18   10   13 1
  19   11   12 2
  20   12   13 1
  21   12   15 1
  22   13   14 1
  23   14   16 ar
  24   14   24 ar
  25   15   38 1
  26   15   39 1
  27   16   29 1
  28   16   27 ar
  29   17   18 1
  30   17   40 1
  31   17   41 1
  32   18   19 1
  33   18   42 1
  34   18   43 1
  35   19   20 1
  36   19   23 1
  37   20   21 1
  38   20   44 1
  39   20   45 1
  40   21   22 1
  41   21   46 1
  42   21   47 1
  43   22   23 1
  44   22   48 1
  45   22   49 1
  46   23   50 1
  47   23   51 1
  48   24   25 ar
  49   25   26 ar
  50   25   52 1
  51   26   27 ar
  52   26   53 1
  53   27   28 1
  54   28   30 am
  55   28   54 1
  56   29   31 2
  57   29   55 1
  58   30   31 1
  59   30   32 2
  60   31   56 1

#	End of record

