#	Name: ASD13490052
#	Creating user name:	WinNT
#	Creation time:	15. 06. 2019 21:30

#	Modifying user name:	WinNT
#	Modification time:	15. 06. 2019 21:30

#	Program:	/corina/corina34_cracker 3.40 0067  02.08.2006

@<TRIPOS>MOLECULE
ASD13490052
  52   56    0    0    0
SMALL
NO_CHARGES


@<TRIPOS>ATOM
   1 C1            -1.4533     1.4721     0.0086 C.ar    
   2 C2            -1.6911     0.1120    -0.0464 C.ar    
   3 C3            -1.2442    -0.6980     0.9914 C.ar    
   4 N4            -0.5979    -0.1833     2.0250 N.ar    
   5 C5            -0.3508     1.1077     2.1161 C.ar    
   6 C6            -0.7668     1.9829     1.1157 C.ar    
   7 N7            -1.4812    -2.0752     0.9424 N.pl3   
   8 C8            -1.1060    -3.0013     1.8821 C.2     
   9 C9            -1.5318    -4.1995     1.4401 C.2     
  10 N10           -2.1505    -4.0170     0.2640 N.2     
  11 C11           -2.1322    -2.7486    -0.0424 C.2     
  12 C12           -0.4860     3.4353     1.2222 C.2     
  13 N13           -0.8656     4.3008     0.2916 N.2     
  14 C14           -0.5661     5.5475     0.4903 C.2     
  15 S15            0.2973     5.7047     2.0171 S.3     
  16 C16            0.1658     3.9660     2.2715 C.2     
  17 N17           -0.8768     6.5925    -0.3658 N.pl3   
  18 C18           -1.3451    -5.5184     2.1449 C.3     
  19 C19           -0.5176     7.8964    -0.0324 C.2     
  20 N20           -1.3149     8.8255     0.5611 N.pl3   
  21 C21            0.6918     8.4719    -0.2336 C.2     
  22 C22            0.6304     9.7896     0.2459 C.2     
  23 N23           -0.5644    10.0004     0.7175 N.2     
  24 C24            1.9241     7.8643    -0.8568 C.3     
  25 C25            2.8790     9.0026    -1.2380 C.3     
  26 C26            3.0752     9.9343    -0.0399 C.3     
  27 C27            1.7968    10.7472     0.1991 C.3     
  28 C28           -2.7100     8.6333     0.9648 C.3     
  29 C29           -2.7640     8.2437     2.4434 C.3     
  30 H30           -1.7853     2.1243    -0.7856 H       
  31 H31           -2.2184    -0.3168    -0.8858 H       
  32 H32            0.1793     1.4912     2.9754 H       
  33 H33           -0.5711    -2.8066     2.7999 H       
  34 H34           -2.5600    -2.3083    -0.9309 H       
  35 H35            0.5450     3.4204     3.1229 H       
  36 H36           -1.3444     6.4158    -1.1971 H       
  37 H37           -2.1925    -5.7004     2.8058 H       
  38 H38           -1.2811    -6.3186     1.4074 H       
  39 H39           -0.4266    -5.4903     2.7311 H       
  40 H40            2.4096     7.2013    -0.1406 H       
  41 H41            1.6464     7.3029    -1.7489 H       
  42 H42            3.8413     8.5850    -1.5340 H       
  43 H43            2.4574     9.5661    -2.0704 H       
  44 H44            3.2992     9.3418     0.8471 H       
  45 H45            3.9042    10.6130    -0.2404 H       
  46 H46            1.6561    11.4588    -0.6144 H       
  47 H47            1.8724    11.2811     1.1464 H       
  48 H48           -3.2633     9.5600     0.8128 H       
  49 H49           -3.1563     7.8410     0.3638 H       
  50 H50           -3.8020     8.1007     2.7438 H       
  51 H51           -2.2108     7.3170     2.5954 H       
  52 H52           -2.3178     9.0360     3.0444 H       
@<TRIPOS>BOND
   1    1    2 ar
   2    1    6 ar
   3    1   30 1
   4    2    3 ar
   5    2   31 1
   6    3    4 ar
   7    3    7 1
   8    4    5 ar
   9    5    6 ar
  10    5   32 1
  11    6   12 1
  12    7    8 1
  13    7   11 1
  14    8    9 2
  15    8   33 1
  16    9   10 1
  17    9   18 1
  18   10   11 2
  19   11   34 1
  20   12   13 1
  21   12   16 2
  22   13   14 2
  23   14   15 1
  24   14   17 1
  25   15   16 1
  26   16   35 1
  27   17   19 1
  28   17   36 1
  29   18   37 1
  30   18   38 1
  31   18   39 1
  32   19   21 2
  33   19   20 1
  34   20   23 1
  35   20   28 1
  36   21   24 1
  37   21   22 1
  38   22   23 2
  39   22   27 1
  40   24   25 1
  41   24   40 1
  42   24   41 1
  43   25   26 1
  44   25   42 1
  45   25   43 1
  46   26   27 1
  47   26   44 1
  48   26   45 1
  49   27   46 1
  50   27   47 1
  51   28   29 1
  52   28   48 1
  53   28   49 1
  54   29   50 1
  55   29   51 1
  56   29   52 1

#	End of record

