#	Name: ASD11000114
#	Creating user name:	WinNT
#	Creation time:	15. 06. 2019 21:28

#	Modifying user name:	WinNT
#	Modification time:	15. 06. 2019 21:28

#	Program:	/corina/corina34_cracker 3.40 0067  02.08.2006

@<TRIPOS>MOLECULE
ASD11000114
  55   58    0    0    0
SMALL
NO_CHARGES


@<TRIPOS>ATOM
   1 C1             0.3629     1.4580     0.7931 C.ar    
   2 C2             0.3133     0.0778     0.7669 C.ar    
   3 C3             1.4271    -0.6488     0.3729 C.ar    
   4 C4             2.5906     0.0105     0.0049 C.ar    
   5 C5             2.6400     1.3907     0.0307 C.ar    
   6 C6             1.5265     2.1172     0.4255 C.ar    
   7 O7             1.3786    -2.0075     0.3479 O.3     
   8 C8             2.5624    -2.6914    -0.0681 C.3     
   9 C9             2.3182    -4.2014    -0.0324 C.3     
  10 N10            1.5411    -4.5981    -1.2113 N.am    
  11 C11            3.6422    -4.9239    -0.0297 C.ar    
  12 C12            3.9096    -5.9746    -0.8792 C.ar    
  13 C13            4.6087    -4.4972     0.8712 C.ar    
  14 C14            5.1438    -6.6108    -0.8183 C.ar    
  15 C15            6.1080    -6.1924     0.0798 C.ar    
  16 C16            5.8401    -5.1239     0.9301 C.ar    
  17 C17            1.5017    -6.0319    -1.5435 C.3     
  18 C18            2.9208    -6.4702    -1.9017 C.3     
  19 O19            6.7824    -4.6997     1.8141 O.3     
  20 C20            6.4344    -3.5973     2.6542 C.3     
  21 O21            7.3126    -6.8216     0.1316 O.3     
  22 C22            7.5155    -7.9098    -0.7721 C.3     
  23 C23            0.8889    -3.6869    -1.9602 C.2     
  24 O24            0.8437    -2.5258    -1.6021 O.2     
  25 C25            0.2301    -4.0982    -3.2143 C.2     
  26 C26           -0.5732    -3.3294    -4.0117 C.2     
  27 O27            1.5750     3.4760     0.4505 O.3     
  28 C28            0.3916     4.1598     0.8674 C.3     
  29 O29            0.3024    -5.3041    -3.8087 O.3     
  30 N30           -0.3476    -5.3350    -4.8274 N.2     
  31 C31           -0.9322    -4.1973    -5.0669 C.2     
  32 H32           -0.5058     2.0239     1.0956 H       
  33 H33           -0.5926    -0.4355     1.0534 H       
  34 H34            3.4580    -0.5553    -0.3015 H       
  35 H35            3.5462     1.9040    -0.2551 H       
  36 H36            2.8190    -2.3888    -1.0833 H       
  37 H37            3.3825    -2.4399     0.6043 H       
  38 H38            1.7640    -4.4579     0.8705 H       
  39 H39            4.3972    -3.6688     1.5311 H       
  40 H40            5.3514    -7.4400    -1.4784 H       
  41 H41            1.1462    -6.6000    -0.6838 H       
  42 H42            0.8396    -6.1954    -2.3937 H       
  43 H43            3.1842    -6.0674    -2.8797 H       
  44 H44            2.9606    -7.5588    -1.9407 H       
  45 H45            6.2002    -2.7299     2.0370 H       
  46 H46            5.5648    -3.8600     3.2566 H       
  47 H47            7.2726    -3.3612     3.3097 H       
  48 H48            6.7722    -8.6839    -0.5814 H       
  49 H49            7.4147    -7.5542    -1.7976 H       
  50 H50            8.5143    -8.3214    -0.6268 H       
  51 H51           -0.8650    -2.2996    -3.8678 H       
  52 H52           -0.4291     3.9084     0.1956 H       
  53 H53            0.1357     3.8572     1.8828 H       
  54 H54            0.5655     5.2356     0.8419 H       
  55 H55           -1.5679    -3.9626    -5.9078 H       
@<TRIPOS>BOND
   1    1    2 ar
   2    1    6 ar
   3    1   32 1
   4    2    3 ar
   5    2   33 1
   6    3    4 ar
   7    3    7 1
   8    4    5 ar
   9    4   34 1
  10    5    6 ar
  11    5   35 1
  12    6   27 1
  13    7    8 1
  14    8    9 1
  15    8   36 1
  16    8   37 1
  17    9   10 1
  18    9   11 1
  19    9   38 1
  20   10   17 1
  21   10   23 am
  22   11   12 ar
  23   11   13 ar
  24   12   14 ar
  25   12   18 1
  26   13   16 ar
  27   13   39 1
  28   14   15 ar
  29   14   40 1
  30   15   16 ar
  31   15   21 1
  32   16   19 1
  33   17   18 1
  34   17   41 1
  35   17   42 1
  36   18   43 1
  37   18   44 1
  38   19   20 1
  39   20   45 1
  40   20   46 1
  41   20   47 1
  42   21   22 1
  43   22   48 1
  44   22   49 1
  45   22   50 1
  46   23   24 2
  47   23   25 1
  48   25   29 1
  49   25   26 2
  50   26   31 1
  51   26   51 1
  52   27   28 1
  53   28   52 1
  54   28   53 1
  55   28   54 1
  56   29   30 1
  57   30   31 2
  58   31   55 1

#	End of record

