#	Name: ASD11000156
#	Creating user name:	WinNT
#	Creation time:	15. 06. 2019 21:28

#	Modifying user name:	WinNT
#	Modification time:	15. 06. 2019 21:28

#	Program:	/corina/corina34_cracker 3.40 0067  02.08.2006

@<TRIPOS>MOLECULE
ASD11000156
  40   41    0    0    0
SMALL
NO_CHARGES


@<TRIPOS>ATOM
   1 C1            -0.0187     1.5270     0.0104 C.3     
   2 C2             0.0021    -0.0041     0.0020 C.3     
   3 C3             0.7933    -0.5053     1.2123 C.3     
   4 N4             2.1631     0.0210     1.1552 N.3     
   5 C5             2.1708     1.4884     1.2098 C.3     
   6 C6             1.4207     2.0492    -0.0005 C.3     
   7 C7             3.6156     1.9916     1.1921 C.3     
   8 C8             4.3195     1.5422     2.4465 C.2     
   9 C9             5.7631     1.9103     2.6736 C.3     
  10 C10            6.2318     1.3347     4.0114 C.3     
  11 O11            3.7267     0.8870     3.2698 O.2     
  12 C12            8.1895     1.0399     5.5328 C.3     
  13 C13            7.7291     1.5998     4.1840 C.3     
  14 N14            5.4908     1.9746     5.1059 N.3     
  15 C15            5.8821     1.4194     6.4079 C.3     
  16 C16            7.3690     1.6870     6.6520 C.3     
  17 H17           -0.5443     1.8890    -0.8732 H       
  18 H18           -0.5272     1.8794     0.9078 H       
  19 H19           -1.0190    -0.3821     0.0528 H       
  20 H20            0.4761    -0.3565    -0.9140 H       
  21 H21            0.3110    -0.1640     2.1282 H       
  22 H22            0.8222    -1.5949     1.2014 H       
  23 H23            2.7320    -0.3712     1.8905 H       
  24 H24            1.6820     1.8203     2.1258 H       
  25 H25            1.9170     1.7290    -0.9166 H       
  26 H26            1.4131     3.1380     0.0485 H       
  27 H27            4.1308     1.5863     0.3213 H       
  28 H28            3.6205     3.0805     1.1429 H       
  29 H29            6.3733     1.5014     1.8683 H       
  30 H30            5.8630     2.9956     2.6900 H       
  31 H31            6.0490     0.2603     4.0285 H       
  32 H32            8.0402    -0.0397     5.5491 H       
  33 H33            9.2460     1.2648     5.6790 H       
  34 H34            8.2802     1.1116     3.3801 H       
  35 H35            7.9145     2.6735     4.1533 H       
  36 H36            5.6131     2.9760     5.0884 H       
  37 H37            5.2942     1.8909     7.1953 H       
  38 H38            5.7008     0.3446     6.4136 H       
  39 H39            7.6627     1.2611     7.6114 H       
  40 H40            7.5487     2.7620     6.6601 H       
@<TRIPOS>BOND
   1    1    2 1
   2    1    6 1
   3    1   17 1
   4    1   18 1
   5    2    3 1
   6    2   19 1
   7    2   20 1
   8    3    4 1
   9    3   21 1
  10    3   22 1
  11    4    5 1
  12    4   23 1
  13    5    6 1
  14    5    7 1
  15    5   24 1
  16    6   25 1
  17    6   26 1
  18    7    8 1
  19    7   27 1
  20    7   28 1
  21    8    9 1
  22    8   11 2
  23    9   10 1
  24    9   29 1
  25    9   30 1
  26   10   14 1
  27   10   13 1
  28   10   31 1
  29   12   13 1
  30   12   16 1
  31   12   32 1
  32   12   33 1
  33   13   34 1
  34   13   35 1
  35   14   15 1
  36   14   36 1
  37   15   16 1
  38   15   37 1
  39   15   38 1
  40   16   39 1
  41   16   40 1

#	End of record

