#	Name: ASD14620001
#	Creating user name:	WinNT
#	Creation time:	15. 06. 2019 21:31

#	Modifying user name:	WinNT
#	Modification time:	15. 06. 2019 21:31

#	Program:	/corina/corina34_cracker 3.40 0067  02.08.2006

@<TRIPOS>MOLECULE
ASD14620001
  48   50    0    0    0
SMALL
NO_CHARGES


@<TRIPOS>ATOM
   1 P1            -0.0198     1.6058     0.0109 P.3     
   2 O2            -0.0384    -2.6398     1.2420 O.3     
   3 O3            -2.4571    -3.5931    -1.1627 O.3     
   4 O4             0.0021    -0.0041     0.0020 O.3     
   5 O5            -1.3494    -3.0766     3.5435 O.2     
   6 O6             1.4907     2.1630    -0.0006 O.3     
   7 O7            -0.7984     2.1391    -1.2935 O.3     
   8 O8             0.8906    -5.6035     6.4257 O.2     
   9 O9            -0.7125     2.0831     1.2285 O.2     
  10 O10            1.9519     8.2493     1.5734 O.2     
  11 O11            1.8682     8.4331    -0.5265 O.2     
  12 N12            0.1304    -4.5051     2.7244 N.am    
  13 N13           -0.2614    -4.3115     5.0250 N.am    
  14 N14            1.8690     7.7357     0.4721 N.pl3   
  15 C15           -2.0719    -3.1606     0.1436 C.3     
  16 C16           -0.8037    -2.2815     0.0707 C.3     
  17 C17           -1.6432    -4.3669     1.0088 C.3     
  18 C18           -0.1668    -4.0738     1.3562 C.3     
  19 C19           -1.1801    -0.7991     0.1135 C.3     
  20 C20            1.0697    -5.4765     2.9399 C.2     
  21 C21           -0.5188    -3.9383     3.7576 C.2     
  22 C22            1.3476    -5.8699     4.2013 C.2     
  23 C23            0.6571    -5.2653     5.2793 C.2     
  24 C24            2.3786    -6.9386     4.4582 C.3     
  25 C25            1.5823     3.5141     0.1140 C.ar    
  26 C26            1.6767     4.1003     1.3679 C.ar    
  27 C27            1.5872     4.3091    -1.0229 C.ar    
  28 C28            1.7702     5.4738     1.4817 C.ar    
  29 C29            1.6809     5.6822    -0.9038 C.ar    
  30 C30            1.7692     6.2643     0.3473 C.ar    
  31 H31           -2.8870    -2.6163     0.6205 H       
  32 H32           -0.2389    -2.5045    -0.8344 H       
  33 H33           -2.2457    -4.4198     1.9156 H       
  34 H34           -1.7251    -5.2931     0.4400 H       
  35 H35            0.4957    -4.5717     0.6482 H       
  36 H36           -1.6790    -0.5780     1.0570 H       
  37 H37           -1.8511    -0.5706    -0.7146 H       
  38 H38           -3.2483    -4.1488    -1.1757 H       
  39 H39            1.5861    -5.9266     2.1050 H       
  40 H40           -0.7386    -3.8926     5.7582 H       
  41 H41            3.3576    -6.4762     4.5838 H       
  42 H42            2.1165    -7.4861     5.3635 H       
  43 H43            2.4073    -7.6264     3.6131 H       
  44 H44           -0.3990     1.8638    -2.1300 H       
  45 H45            1.6768     3.4833     2.2543 H       
  46 H46            1.5183     3.8549    -2.0003 H       
  47 H47            1.8438     5.9306     2.4576 H       
  48 H48            1.6852     6.3015    -1.7885 H       
@<TRIPOS>BOND
   1    1    4 1
   2    1    6 1
   3    1    7 1
   4    1    9 2
   5    2   16 1
   6    2   18 1
   7    3   38 1
   8    3   15 1
   9    4   19 1
  10    5   21 2
  11    6   25 1
  12    7   44 1
  13    8   23 2
  14   10   14 2
  15   11   14 2
  16   12   20 1
  17   12   21 am
  18   12   18 1
  19   13   21 am
  20   13   23 am
  21   13   40 1
  22   14   30 1
  23   15   16 1
  24   15   17 1
  25   15   31 1
  26   16   19 1
  27   16   32 1
  28   17   18 1
  29   17   33 1
  30   17   34 1
  31   18   35 1
  32   19   36 1
  33   19   37 1
  34   20   22 2
  35   20   39 1
  36   22   23 1
  37   22   24 1
  38   24   41 1
  39   24   42 1
  40   24   43 1
  41   25   26 ar
  42   25   27 ar
  43   26   28 ar
  44   26   45 1
  45   27   29 ar
  46   27   46 1
  47   28   30 ar
  48   28   47 1
  49   29   30 ar
  50   29   48 1

#	End of record

