#	Name: ASD13490038
#	Creating user name:	WinNT
#	Creation time:	15. 06. 2019 21:30

#	Modifying user name:	WinNT
#	Modification time:	15. 06. 2019 21:30

#	Program:	/corina/corina34_cracker 3.40 0067  02.08.2006

@<TRIPOS>MOLECULE
ASD13490038
  52   55    0    0    0
SMALL
NO_CHARGES


@<TRIPOS>ATOM
   1 C1             0.1188     1.1031    -0.3665 C.ar    
   2 C2            -2.1476     1.4581    -0.1688 C.ar    
   3 N3            -0.9279     1.9204    -0.4257 N.ar    
   4 N4            -0.0542    -0.1767    -0.0505 N.ar    
   5 N5            -2.3193     0.1808     0.1566 N.ar    
   6 C6            -1.2731    -0.6378     0.2113 C.ar    
   7 C7            -2.7442    -2.4815     0.6935 C.ar    
   8 N8             1.3855     1.5821    -0.6390 N.pl3   
   9 C9             1.5842     2.9500    -0.8573 C.ar    
  10 C10            2.7585     4.7300    -1.9607 C.ar    
  11 C11            1.9738     5.6613    -1.2848 C.ar    
  12 C12            1.0009     5.2317    -0.3944 C.ar    
  13 C13            0.8066     3.8813    -0.1806 C.ar    
  14 C14            2.5623     3.3759    -1.7457 C.ar    
  15 N15            2.1709     7.0354    -1.5013 N.pl3   
  16 C16            3.3514     7.6935    -1.4589 C.2     
  17 N17            3.1354     8.9561    -1.7111 N.2     
  18 C18            1.8248     9.1481    -1.9213 C.2     
  19 C19            1.2038     7.9587    -1.8007 C.2     
  20 C20            1.1632    10.4636    -2.2421 C.3     
  21 O21            3.7153     5.1494    -2.8305 O.3     
  22 C22            4.4819     4.1388    -3.4885 C.3     
  23 N23           -1.4528    -1.9676     0.5397 N.pl3   
  24 C24           -5.0537    -2.5223     0.0493 C.ar    
  25 C25           -3.7794    -2.0128    -0.1051 C.ar    
  26 C26           -2.9934    -3.4657     1.6413 C.ar    
  27 C27           -4.2700    -3.9710     1.7907 C.ar    
  28 C28           -5.2995    -3.4984     0.9975 C.ar    
  29 N29           -3.2343     2.3067    -0.2301 N.pl3   
  30 C30           -4.5784     1.7972     0.0530 C.3     
  31 H31            2.1371     0.9703    -0.6791 H       
  32 H32            0.3927     5.9539     0.1299 H       
  33 H33            0.0488     3.5487     0.5133 H       
  34 H34            3.1699     2.6520    -2.2685 H       
  35 H35            4.3132     7.2486    -1.2503 H       
  36 H36            0.1467     7.7697    -1.9155 H       
  37 H37            1.1383    10.6038    -3.3228 H       
  38 H38            0.1453    10.4629    -1.8523 H       
  39 H39            1.7275    11.2755    -1.7833 H       
  40 H40            3.8175     3.4996    -4.0699 H       
  41 H41            5.2078     4.6080    -4.1527 H       
  42 H42            5.0053     3.5378    -2.7448 H       
  43 H43           -0.6832    -2.5449     0.6636 H       
  44 H44           -5.8592    -2.1580    -0.5711 H       
  45 H45           -3.5882    -1.2504    -0.8459 H       
  46 H46           -2.1896    -3.8357     2.2605 H       
  47 H47           -4.4644    -4.7363     2.5275 H       
  48 H48           -6.2970    -3.8950     1.1166 H       
  49 H49           -3.1082     3.2404    -0.4607 H       
  50 H50           -5.3018     2.6068    -0.0443 H       
  51 H51           -4.8230     1.0046    -0.6542 H       
  52 H52           -4.6106     1.4012     1.0680 H       
@<TRIPOS>BOND
   1    1    4 ar
   2    1    8 1
   3    1    3 ar
   4    2    3 ar
   5    2    5 ar
   6    2   29 1
   7    4    6 ar
   8    5    6 ar
   9    6   23 1
  10    7   23 1
  11    7   26 ar
  12    7   25 ar
  13    8    9 1
  14    8   31 1
  15    9   14 ar
  16    9   13 ar
  17   10   14 ar
  18   10   11 ar
  19   10   21 1
  20   11   12 ar
  21   11   15 1
  22   12   13 ar
  23   12   32 1
  24   13   33 1
  25   14   34 1
  26   15   16 1
  27   15   19 1
  28   16   17 2
  29   16   35 1
  30   17   18 1
  31   18   19 2
  32   18   20 1
  33   19   36 1
  34   20   37 1
  35   20   38 1
  36   20   39 1
  37   21   22 1
  38   22   40 1
  39   22   41 1
  40   22   42 1
  41   23   43 1
  42   24   25 ar
  43   24   28 ar
  44   24   44 1
  45   25   45 1
  46   26   27 ar
  47   26   46 1
  48   27   28 ar
  49   27   47 1
  50   28   48 1
  51   29   30 1
  52   29   49 1
  53   30   50 1
  54   30   51 1
  55   30   52 1

#	End of record

