#	Name: ASD11920047
#	Creating user name:	WinNT
#	Creation time:	15. 06. 2019 21:29

#	Modifying user name:	WinNT
#	Modification time:	15. 06. 2019 21:29

#	Program:	/corina/corina34_cracker 3.40 0067  02.08.2006

@<TRIPOS>MOLECULE
ASD11920047
  29   31    0    0    0
SMALL
NO_CHARGES


@<TRIPOS>ATOM
   1 C1            -0.0167     1.3821     0.0096 C.ar    
   2 C2             0.0021    -0.0041     0.0020 C.ar    
   3 C3             1.2074    -0.6749    -0.0131 C.ar    
   4 C4             2.4031     0.0275    -0.0208 C.ar    
   5 C5             2.4030     1.4047    -0.0129 C.ar    
   6 C6             1.1912     2.0966     0.0019 C.ar    
   7 N7             0.8601     3.4162     0.0122 N.2     
   8 C8            -0.4345     3.5230     0.0252 C.2     
   9 C9            -1.1911     4.8262     0.0394 C.3     
  10 S10           -2.9697     4.4911     0.0546 S.3     
  11 C11           -3.5915     6.1397     0.0694 C.ar    
  12 O12           -1.0021     2.3065     0.0186 O.3     
  13 N13           -4.9021     6.3369     0.0829 N.ar    
  14 C14           -5.4014     7.5617     0.0943 C.ar    
  15 C15           -6.8929     7.7771     0.1102 C.3     
  16 C16           -4.5364     8.6447     0.0919 C.ar    
  17 C17           -3.1713     8.4028     0.0775 C.ar    
  18 N18           -2.7374     7.1536     0.0721 N.ar    
  19 F19           -0.8440     5.5545     1.1823 F       
  20 F20           -0.8658     5.5667    -1.1021 F       
  21 H21           -0.9252    -0.5578     0.0083 H       
  22 H22            1.2199    -1.7548    -0.0187 H       
  23 H23            3.3404    -0.5089    -0.0326 H       
  24 H24            3.3370     1.9470    -0.0182 H       
  25 H25           -7.2423     7.8236     1.1416 H       
  26 H26           -7.1303     8.7125    -0.3964 H       
  27 H27           -7.3848     6.9509    -0.4031 H       
  28 H28           -4.9176     9.6551     0.1006 H       
  29 H29           -2.4707     9.2247     0.0749 H       
@<TRIPOS>BOND
   1    1    2 ar
   2    1    6 ar
   3    1   12 1
   4    2    3 ar
   5    2   21 1
   6    3    4 ar
   7    3   22 1
   8    4    5 ar
   9    4   23 1
  10    5    6 ar
  11    5   24 1
  12    6    7 1
  13    7    8 2
  14    8    9 1
  15    8   12 1
  16    9   10 1
  17    9   19 1
  18    9   20 1
  19   10   11 1
  20   11   13 ar
  21   11   18 ar
  22   13   14 ar
  23   14   15 1
  24   14   16 ar
  25   15   25 1
  26   15   26 1
  27   15   27 1
  28   16   17 ar
  29   16   28 1
  30   17   18 ar
  31   17   29 1

#	End of record

