#	Name: ASD13490073
#	Creating user name:	WinNT
#	Creation time:	15. 06. 2019 21:30

#	Modifying user name:	WinNT
#	Modification time:	15. 06. 2019 21:30

#	Program:	/corina/corina34_cracker 3.40 0067  02.08.2006

@<TRIPOS>MOLECULE
ASD13490073
  53   57    0    0    0
SMALL
NO_CHARGES


@<TRIPOS>ATOM
   1 C1            -0.0159     1.3237     0.0093 C.ar    
   2 N2             0.0021    -0.0041     0.0020 N.ar    
   3 C3             1.1359    -0.6806    -0.0124 C.ar    
   4 C4             2.3621    -0.0149    -0.0201 C.ar    
   5 C5             2.3791     1.3756    -0.0128 C.ar    
   6 C6             1.1707     2.0515     0.0019 C.ar    
   7 N7             3.5633    -0.7395    -0.0345 N.pl3   
   8 C8             4.6193    -0.5494    -0.8874 C.2     
   9 C9             5.5583    -1.4553    -0.5538 C.2     
  10 N10            5.0934    -2.1810     0.4738 N.2     
  11 C11            3.9017    -1.7578     0.7978 C.2     
  12 C12            6.8991    -1.6250    -1.2204 C.3     
  13 O13            1.1082    -2.0375    -0.0194 O.3     
  14 C14           -0.1779    -2.6602    -0.0105 C.3     
  15 C15           -1.3151     2.0393     0.0193 C.2     
  16 N16           -1.4704     3.3490     0.0267 N.2     
  17 N17           -2.8446     3.5838     0.0349 N.pl3   
  18 C18           -3.4489     2.3750     0.0303 C.2     
  19 N19           -2.5271     1.4602     0.0165 N.2     
  20 C20           -4.9492     2.2074     0.0339 C.3     
  21 C21           -3.5698     4.8552     0.0474 C.3     
  22 C22           -5.0208     4.5722     0.4610 C.3     
  23 O23           -5.5327     3.4748    -0.3003 O.3     
  24 C24           -5.3499     1.1756    -0.9888 C.ar    
  25 C25           -5.3361    -0.1719    -0.6579 C.ar    
  26 C26           -5.7054    -1.1192    -1.6014 C.ar    
  27 C27           -6.0860    -0.7191    -2.8680 C.ar    
  28 C28           -6.0985     0.6239    -3.1953 C.ar    
  29 C29           -5.7366     1.5707    -2.2545 C.ar    
  30 C30           -4.9706    -1.9661     0.8585 C.3     
  31 F31           -4.0956    -2.6158    -0.0186 F       
  32 F32           -6.2651    -2.4662     0.6814 F       
  33 F33           -4.5605    -2.1899     2.1772 F       
  34 O34           -4.9609    -0.5629     0.5884 O.3     
  35 H35            3.3140     1.9162    -0.0184 H       
  36 H36            1.1490     3.1313     0.0075 H       
  37 H37            4.6855     0.1857    -1.6760 H       
  38 H38            3.2869    -2.1530     1.5929 H       
  39 H39            7.6353    -0.9949    -0.7214 H       
  40 H40            7.2087    -2.6680    -1.1538 H       
  41 H41            6.8232    -1.3347    -2.2683 H       
  42 H42           -0.7203    -2.3609     0.8863 H       
  43 H43           -0.7373    -2.3513    -0.8936 H       
  44 H44           -0.0571    -3.7435    -0.0175 H       
  45 H45           -5.2836     1.8965     1.0236 H       
  46 H46           -3.1087     5.5350     0.7639 H       
  47 H47           -3.5507     5.2998    -0.9476 H       
  48 H48           -5.0538     4.3244     1.5219 H       
  49 H49           -5.6298     5.4571     0.2765 H       
  50 H50           -5.6951    -2.1686    -1.3464 H       
  51 H51           -6.3736    -1.4563    -3.6030 H       
  52 H52           -6.3956     0.9346    -4.1861 H       
  53 H53           -5.7518     2.6197    -2.5112 H       
@<TRIPOS>BOND
   1    1    2 ar
   2    1    6 ar
   3    1   15 1
   4    2    3 ar
   5    3    4 ar
   6    3   13 1
   7    4    5 ar
   8    4    7 1
   9    5    6 ar
  10    5   35 1
  11    6   36 1
  12    7    8 1
  13    7   11 1
  14    8    9 2
  15    8   37 1
  16    9   10 1
  17    9   12 1
  18   10   11 2
  19   11   38 1
  20   12   39 1
  21   12   40 1
  22   12   41 1
  23   13   14 1
  24   14   42 1
  25   14   43 1
  26   14   44 1
  27   15   16 2
  28   15   19 1
  29   16   17 1
  30   17   21 1
  31   17   18 1
  32   18   19 2
  33   18   20 1
  34   20   23 1
  35   20   24 1
  36   20   45 1
  37   21   22 1
  38   21   46 1
  39   21   47 1
  40   22   23 1
  41   22   48 1
  42   22   49 1
  43   24   25 ar
  44   24   29 ar
  45   25   26 ar
  46   25   34 1
  47   26   27 ar
  48   26   50 1
  49   27   28 ar
  50   27   51 1
  51   28   29 ar
  52   28   52 1
  53   29   53 1
  54   30   31 1
  55   30   32 1
  56   30   33 1
  57   30   34 1

#	End of record

