#	Name: ASD15330001
#	Creating user name:	WinNT
#	Creation time:	15. 06. 2019 21:31

#	Modifying user name:	WinNT
#	Modification time:	15. 06. 2019 21:31

#	Program:	/corina/corina34_cracker 3.40 0067  02.08.2006

@<TRIPOS>MOLECULE
ASD15330001
  20   19    0    0    0
SMALL
NO_CHARGES


@<TRIPOS>ATOM
   1 O1            -0.0110     0.9628     0.0073 O.3     
   2 O2             2.2968    -0.2943     1.1706 O.3     
   3 O3             2.2741    -0.2815    -1.2132 O.3     
   4 O4             2.0247     1.1264     3.6540 O.3     
   5 O5             0.8661     0.5795    -3.2283 O.2     
   6 C6             1.2864     1.5618    -0.0018 C.3     
   7 C7             2.0636     1.1140     1.2377 C.3     
   8 C8             2.0397     1.1274    -1.2607 C.3     
   9 C9             1.2513     1.4372     2.4933 C.3     
  10 C10            1.2162     1.4589    -2.4784 C.2     
  11 H11            1.1856     2.6471     0.0050 H       
  12 H12            3.0180     1.6389     1.2773 H       
  13 H13            2.9933     1.6528    -1.3129 H       
  14 H14            0.3365     0.8445     2.4968 H       
  15 H15            0.9974     2.4972     2.4989 H       
  16 H16            0.0021    -0.0041     0.0020 H       
  17 H17            0.9391     2.4830    -2.6805 H       
  18 H18            1.4895    -0.8253     1.1328 H       
  19 H19            1.4676    -0.8129    -1.1657 H       
  20 H20            1.5711     1.3068     4.4888 H       
@<TRIPOS>BOND
   1    1   16 1
   2    1    6 1
   3    2   18 1
   4    2    7 1
   5    3   19 1
   6    3    8 1
   7    4    9 1
   8    4   20 1
   9    5   10 2
  10    6    7 1
  11    6    8 1
  12    6   11 1
  13    7    9 1
  14    7   12 1
  15    8   10 1
  16    8   13 1
  17    9   14 1
  18    9   15 1
  19   10   17 1

#	End of record

