#	Name: ASD11000030
#	Creating user name:	WinNT
#	Creation time:	15. 06. 2019 21:28

#	Modifying user name:	WinNT
#	Modification time:	15. 06. 2019 21:28

#	Program:	/corina/corina34_cracker 3.40 0067  02.08.2006

@<TRIPOS>MOLECULE
ASD11000030
  59   62    0    0    0
SMALL
NO_CHARGES


@<TRIPOS>ATOM
   1 C1            -1.4275    -0.0249    -0.5443 C.ar    
   2 C2            -0.9198    -1.2893    -0.3175 C.ar    
   3 C3             0.4505    -1.5015    -0.3443 C.ar    
   4 C4             1.3112    -0.4439    -0.5983 C.ar    
   5 C5             0.8036     0.8205    -0.8250 C.ar    
   6 C6            -0.5669     1.0326    -0.7988 C.ar    
   7 O7            -1.0666     2.2773    -1.0225 O.3     
   8 C8            -2.4876     2.4231    -0.9804 C.3     
   9 O9             0.9503    -2.7463    -0.1210 O.3     
  10 C10            2.3712    -2.8922    -0.1636 C.3     
  11 C11            2.7425    -4.3512     0.1089 C.3     
  12 N12            2.2487    -4.7412     1.4338 N.am    
  13 C13            2.1202    -5.2327    -0.9451 C.ar    
  14 C14            1.4173    -6.3744    -0.6293 C.ar    
  15 C15            2.2766    -4.8597    -2.2733 C.ar    
  16 C16            0.8804    -7.1544    -1.6466 C.ar    
  17 C17            1.0368    -6.7895    -2.9709 C.ar    
  18 C18            1.7382    -5.6301    -3.2877 C.ar    
  19 C19            2.1938    -6.1808     1.7376 C.3     
  20 C20            1.1823    -6.8226     0.7894 C.3     
  21 C21            1.8614    -3.8189     2.3370 C.2     
  22 O22            2.0267    -2.6366     2.1076 O.2     
  23 C23            1.2356    -4.2448     3.6063 C.ar    
  24 C24            1.3681    -3.4576     4.7517 C.ar    
  25 C25            0.5048    -5.4330     3.6632 C.ar    
  26 C26           -0.0771    -5.8250     4.8503 C.ar    
  27 C27            0.0622    -5.0425     5.9847 C.ar    
  28 C28            0.7816    -3.8600     5.9331 C.ar    
  29 O29            1.8943    -5.2578    -4.5864 O.3     
  30 C30            2.6262    -4.0556    -4.8332 C.3     
  31 O31            0.5076    -7.5596    -3.9590 O.3     
  32 C32           -0.1995    -8.7346    -3.5573 C.3     
  33 Cl33          -0.6738    -5.5423     7.4754 Cl      
  34 H34           -2.4948     0.1395    -0.5279 H       
  35 H35           -1.5900    -2.1127    -0.1191 H       
  36 H36            2.3783    -0.6090    -0.6184 H       
  37 H37            1.4738     1.6441    -1.0225 H       
  38 H38           -2.7521     3.4625    -1.1749 H       
  39 H39           -2.9409     1.7848    -1.7388 H       
  40 H40           -2.8536     2.1332     0.0045 H       
  41 H41            2.7369    -2.6021    -1.1485 H       
  42 H42            2.8248    -2.2541     0.5949 H       
  43 H43            3.8265    -4.4613     0.0790 H       
  44 H44            2.8229    -3.9602    -2.5162 H       
  45 H45            0.3361    -8.0541    -1.4003 H       
  46 H46            3.1764    -6.6275     1.5860 H       
  47 H47            1.8764    -6.3280     2.7700 H       
  48 H48            0.1751    -6.5373     1.0932 H       
  49 H49            1.2784    -7.9070     0.8433 H       
  50 H50            1.9291    -2.5356     4.7127 H       
  51 H51            0.3952    -6.0438     2.7793 H       
  52 H52           -0.6430    -6.7438     4.8955 H       
  53 H53            0.8872    -3.2542     6.8209 H       
  54 H54            2.1250    -3.2188    -4.3468 H       
  55 H55            3.6355    -4.1563    -4.4341 H       
  56 H56            2.6765    -3.8748    -5.9069 H       
  57 H57           -0.5691    -9.2560    -4.4404 H       
  58 H58            0.4713    -9.3905    -3.0024 H       
  59 H59           -1.0402    -8.4538    -2.9229 H       
@<TRIPOS>BOND
   1    1    2 ar
   2    1    6 ar
   3    1   34 1
   4    2    3 ar
   5    2   35 1
   6    3    4 ar
   7    3    9 1
   8    4    5 ar
   9    4   36 1
  10    5    6 ar
  11    5   37 1
  12    6    7 1
  13    7    8 1
  14    8   38 1
  15    8   39 1
  16    8   40 1
  17    9   10 1
  18   10   11 1
  19   10   41 1
  20   10   42 1
  21   11   12 1
  22   11   13 1
  23   11   43 1
  24   12   19 1
  25   12   21 am
  26   13   14 ar
  27   13   15 ar
  28   14   16 ar
  29   14   20 1
  30   15   18 ar
  31   15   44 1
  32   16   17 ar
  33   16   45 1
  34   17   18 ar
  35   17   31 1
  36   18   29 1
  37   19   20 1
  38   19   46 1
  39   19   47 1
  40   20   48 1
  41   20   49 1
  42   21   22 2
  43   21   23 1
  44   23   24 ar
  45   23   25 ar
  46   24   28 ar
  47   24   50 1
  48   25   26 ar
  49   25   51 1
  50   26   27 ar
  51   26   52 1
  52   27   28 ar
  53   27   33 1
  54   28   53 1
  55   29   30 1
  56   30   54 1
  57   30   55 1
  58   30   56 1
  59   31   32 1
  60   32   57 1
  61   32   58 1
  62   32   59 1

#	End of record

