#	Name: ASD10160035
#	Creating user name:	WinNT
#	Creation time:	15. 06. 2019 21:25

#	Modifying user name:	WinNT
#	Modification time:	15. 06. 2019 21:25

#	Program:	/corina/corina34_cracker 3.40 0067  02.08.2006

@<TRIPOS>MOLECULE
ASD10160035
  32   33    0    0    0
SMALL
NO_CHARGES


@<TRIPOS>ATOM
   1 C1             0.0730     1.0309    -1.4435 C.ar    
   2 C2             0.0497    -0.1966    -0.7740 C.ar    
   3 C3             1.2899     1.6955    -1.6351 C.ar    
   4 C4             2.4605     1.1364    -1.1625 C.ar    
   5 C5             2.4309    -0.0828    -0.4990 C.ar    
   6 C6             1.2222    -0.7462    -0.3063 C.ar    
   7 C7            -1.1795     1.6203    -1.9512 C.2     
   8 N8            -2.3493     0.9759    -1.7704 N.am    
   9 O9            -1.1570     2.6878    -2.5332 O.2     
  10 S10           -3.7561     1.6378    -2.3407 S.o2    
  11 O11           -4.7617     0.7123    -1.9520 O.2     
  12 O12           -3.7482     2.9661    -1.8359 O.2     
  13 O13            3.5837    -0.6293    -0.0364 O.3     
  14 C14            4.7255     0.1000    -0.1480 C.ar    
  15 C15            5.1008     0.9810     0.8616 C.ar    
  16 C16            5.5345    -0.0283    -1.2668 C.ar    
  17 N17            6.6437     0.6760    -1.3810 N.ar    
  18 C18            7.0273     1.5248    -0.4455 C.ar    
  19 C19            6.2729     1.7033     0.7039 C.ar    
  20 Cl20           6.7870     2.8223     1.9275 Cl      
  21 F21            8.1721     2.2237    -0.6075 F       
  22 Cl22           1.1936    -2.2703     0.5243 Cl      
  23 F23            1.3190     2.8815    -2.2815 F       
  24 C24           -3.5565     1.6410    -4.1437 C.3     
  25 H25           -0.8870    -0.7126    -0.6236 H       
  26 H26            3.4003     1.6478    -1.3095 H       
  27 H27           -2.3673     0.1244    -1.3062 H       
  28 H28            4.4931     1.0993     1.7465 H       
  29 H29            5.2534    -0.7130    -2.0533 H       
  30 H30           -3.4158     0.6189    -4.4955 H       
  31 H31           -4.4472     2.0653    -4.6071 H       
  32 H32           -2.6866     2.2405    -4.4119 H       
@<TRIPOS>BOND
   1    1    2 ar
   2    1    3 ar
   3    1    7 1
   4    2    6 ar
   5    2   25 1
   6    3    4 ar
   7    3   23 1
   8    4    5 ar
   9    4   26 1
  10    5    6 ar
  11    5   13 1
  12    6   22 1
  13    7    8 am
  14    7    9 2
  15    8   10 am
  16    8   27 1
  17   10   11 2
  18   10   12 2
  19   10   24 1
  20   13   14 1
  21   14   15 ar
  22   14   16 ar
  23   15   19 ar
  24   15   28 1
  25   16   17 ar
  26   16   29 1
  27   17   18 ar
  28   18   19 ar
  29   18   21 1
  30   19   20 1
  31   24   30 1
  32   24   31 1
  33   24   32 1

#	End of record

