#	Name: ASD14170007
#	Creating user name:	WinNT
#	Creation time:	15. 06. 2019 21:30

#	Modifying user name:	WinNT
#	Modification time:	15. 06. 2019 21:30

#	Program:	/corina/corina34_cracker 3.40 0067  02.08.2006

@<TRIPOS>MOLECULE
ASD14170007
  53   56    0    0    0
SMALL
NO_CHARGES


@<TRIPOS>ATOM
   1 C1             0.2647     1.5707    -0.4721 C.2     
   2 C2             0.3451     0.2047    -0.8046 C.2     
   3 C3             1.2390    -0.3799     0.0739 C.2     
   4 N4             1.6804     0.5925     0.9028 N.pl3   
   5 N5             1.0589     1.7931     0.5408 N.2     
   6 N6             1.6143    -1.7200     0.0998 N.am    
   7 C7             2.6436     0.4193     1.9930 C.3     
   8 C8            -0.5865     2.6004    -1.1694 C.3     
   9 F9            -1.8429     2.6590    -0.5569 F       
  10 F10            0.0325     3.8521    -1.0845 F       
  11 F11           -0.7393     2.2460    -2.5141 F       
  12 C12           -0.3927    -0.4802    -1.8942 C.ar    
  13 C13           -0.1437    -0.1464    -3.2242 C.ar    
  14 C14           -0.8324    -0.7861    -4.2345 C.ar    
  15 C15           -1.7704    -1.7584    -3.9283 C.ar    
  16 C16           -2.0212    -2.0935    -2.6077 C.ar    
  17 C17           -1.3328    -1.4634    -1.5912 C.ar    
  18 F18           -2.4430    -2.3815    -4.9206 F       
  19 C19            2.9137    -2.0582    -0.0170 C.2     
  20 N20            3.2829    -3.3520     0.0619 N.am    
  21 O21            3.7528    -1.1963    -0.1934 O.2     
  22 C22            4.6359    -3.6936     0.0490 C.ar    
  23 C23            6.4097    -5.1949    -0.5225 C.ar    
  24 N24            7.2900    -4.3731     0.0195 N.ar    
  25 C25            6.9243    -3.2306     0.5821 C.ar    
  26 C26            5.5881    -2.8535     0.6156 C.ar    
  27 C27            5.0661    -4.8899    -0.5281 C.ar    
  28 N28            7.8884    -2.3984     1.1397 N.3     
  29 C29            9.2319    -2.9771     0.9939 C.3     
  30 C30           10.2658    -2.0037     1.5661 C.3     
  31 O31            9.9432    -1.7212     2.9304 O.3     
  32 C32            8.6417    -1.1559     3.1091 C.3     
  33 C33            7.5914    -2.1207     2.5525 C.3     
  34 H34            0.9406    -2.4104     0.2019 H       
  35 H35            3.6545     0.5592     1.6104 H       
  36 H36            2.4454     1.1543     2.7732 H       
  37 H37            2.5474    -0.5846     2.4067 H       
  38 H38            0.5869     0.6120    -3.4638 H       
  39 H39           -0.6401    -0.5281    -5.2654 H       
  40 H40           -2.7534    -2.8521    -2.3736 H       
  41 H41           -1.5258    -1.7284    -0.5621 H       
  42 H42            2.6081    -4.0458     0.1277 H       
  43 H43            6.7482    -6.1170    -0.9714 H       
  44 H44            5.2930    -1.9215     1.0746 H       
  45 H45            4.3538    -5.5686    -0.9736 H       
  46 H46            9.2823    -3.9216     1.5357 H       
  47 H47            9.4408    -3.1508    -0.0618 H       
  48 H48           11.2575    -2.4528     1.5121 H       
  49 H49           10.2527    -1.0785     0.9899 H       
  50 H50            8.4588    -0.9919     4.1711 H       
  51 H51            8.5813    -0.2061     2.5778 H       
  52 H52            6.6026    -1.6693     2.6347 H       
  53 H53            7.6155    -3.0515     3.1193 H       
@<TRIPOS>BOND
   1    1    2 1
   2    1    5 2
   3    1    8 1
   4    2    3 2
   5    2   12 1
   6    3    4 1
   7    3    6 1
   8    4    5 1
   9    4    7 1
  10    6   19 am
  11    6   34 1
  12    7   35 1
  13    7   36 1
  14    7   37 1
  15    8    9 1
  16    8   10 1
  17    8   11 1
  18   12   13 ar
  19   12   17 ar
  20   13   14 ar
  21   13   38 1
  22   14   15 ar
  23   14   39 1
  24   15   16 ar
  25   15   18 1
  26   16   17 ar
  27   16   40 1
  28   17   41 1
  29   19   20 am
  30   19   21 2
  31   20   22 1
  32   20   42 1
  33   22   27 ar
  34   22   26 ar
  35   23   24 ar
  36   23   27 ar
  37   23   43 1
  38   24   25 ar
  39   25   26 ar
  40   25   28 1
  41   26   44 1
  42   27   45 1
  43   28   29 1
  44   28   33 1
  45   29   30 1
  46   29   46 1
  47   29   47 1
  48   30   31 1
  49   30   48 1
  50   30   49 1
  51   31   32 1
  52   32   33 1
  53   32   50 1
  54   32   51 1
  55   33   52 1
  56   33   53 1

#	End of record

