#	Name: ASD13110001
#	Creating user name:	WinNT
#	Creation time:	15. 06. 2019 21:30

#	Modifying user name:	WinNT
#	Modification time:	15. 06. 2019 21:30

#	Program:	/corina/corina34_cracker 3.40 0067  02.08.2006

@<TRIPOS>MOLECULE
ASD13110001
  59   64    0    0    0
SMALL
NO_CHARGES


@<TRIPOS>ATOM
   1 C1             0.8754     1.2460    -0.0187 C.3     
   2 C2             0.7894    -0.2685     0.0877 C.3     
   3 C3            -0.5343    -0.9330     0.4327 C.3     
   4 C4            -1.7022    -0.0022     0.1061 C.3     
   5 C5            -1.4809     1.3316     0.8288 C.3     
   6 C6            -0.3852     2.1029     0.0742 C.3     
   7 N7            -0.0585     3.3308     0.8115 N.3     
   8 C8             0.8000     4.2139     0.0097 C.3     
   9 C9             1.0515     5.5127     0.7793 C.3     
  10 N10            1.6814     5.2003     2.0697 N.3     
  11 C11            0.8230     4.3172     2.8715 C.3     
  12 C12            0.5715     3.0184     2.1019 C.3     
  13 C13            2.0047    -0.9596     0.6502 C.ar    
  14 C14            2.5002    -0.5868     1.8862 C.ar    
  15 C15            3.6173    -1.2203     2.4049 C.ar    
  16 C16            3.7337    -2.6057     0.4439 C.ar    
  17 C17            2.6183    -1.9685    -0.0679 C.ar    
  18 C18            5.5732    -1.6770     3.3806 C.3     
  19 O19            5.3059    -2.6925     2.3958 O.3     
  20 C20            4.2392    -2.2334     1.6785 C.ar    
  21 O21            4.2941    -1.0458     3.5774 O.3     
  22 C22            2.0082     6.4281     2.8070 C.3     
  23 C23            2.5616     6.0684     4.1617 C.ar    
  24 C24            3.5789     5.4085     6.6479 C.ar    
  25 C25            4.3611     5.2553     5.5187 C.ar    
  26 C26            3.8531     5.5855     4.2754 C.ar    
  27 C27            1.7810     6.2262     5.2910 C.ar    
  28 C28            2.2893     5.8962     6.5350 C.ar    
  29 Cl29           1.3065     6.0881     7.9531 Cl      
  30 Br30           4.9236     5.3765     2.7307 Br      
  31 C31            0.9809     0.3744    -1.2796 C.3     
  32 H32            1.7901     1.7203     0.3369 H       
  33 H33           -0.6357    -1.8530    -0.1430 H       
  34 H34           -0.5507    -1.1712     1.4962 H       
  35 H35           -1.7453     0.1673    -0.9697 H       
  36 H36           -2.6349    -0.4522     0.4460 H       
  37 H37           -2.4042     1.9109     0.8186 H       
  38 H38           -1.1748     1.1439     1.8579 H       
  39 H39           -0.7478     2.3663    -0.9194 H       
  40 H40            1.7504     3.7174    -0.1861 H       
  41 H41            0.3064     4.4408    -0.9353 H       
  42 H42            1.7116     6.1573     0.1989 H       
  43 H43            0.1037     6.0228     0.9513 H       
  44 H44            1.3165     4.0902     3.8165 H       
  45 H45           -0.1274     4.8137     3.0673 H       
  46 H46           -0.0887     2.3738     2.6823 H       
  47 H47            1.5193     2.5083     1.9298 H       
  48 H48            2.0160     0.1989     2.4472 H       
  49 H49            4.2112    -3.3938    -0.1194 H       
  50 H50            2.2256    -2.2602    -1.0308 H       
  51 H51            5.9259    -2.1269     4.3086 H       
  52 H52            6.2997    -0.9581     3.0020 H       
  53 H53            2.7517     6.9990     2.2507 H       
  54 H54            1.1069     7.0285     2.9304 H       
  55 H55            3.9755     5.1503     7.6187 H       
  56 H56            5.3680     4.8748     5.6069 H       
  57 H57            0.7744     6.6073     5.2027 H       
  58 H58            0.1309     0.3702    -1.9620 H       
  59 H59            1.9611     0.2813    -1.7474 H       
@<TRIPOS>BOND
   1    1    2 1
   2    1   32 1
   3    1    6 1
   4    1   31 1
   5    2    3 1
   6    2   13 1
   7    2   31 1
   8    3    4 1
   9    3   33 1
  10    3   34 1
  11    4    5 1
  12    4   35 1
  13    4   36 1
  14    5    6 1
  15    5   37 1
  16    5   38 1
  17    6    7 1
  18    6   39 1
  19    7    8 1
  20    7   12 1
  21    8    9 1
  22    8   40 1
  23    8   41 1
  24    9   10 1
  25    9   42 1
  26    9   43 1
  27   10   11 1
  28   10   22 1
  29   11   12 1
  30   11   44 1
  31   11   45 1
  32   12   46 1
  33   12   47 1
  34   13   14 ar
  35   13   17 ar
  36   14   15 ar
  37   14   48 1
  38   15   21 1
  39   15   20 ar
  40   16   17 ar
  41   16   20 ar
  42   16   49 1
  43   17   50 1
  44   18   19 1
  45   18   21 1
  46   18   51 1
  47   18   52 1
  48   19   20 1
  49   22   23 1
  50   22   53 1
  51   22   54 1
  52   23   27 ar
  53   23   26 ar
  54   24   25 ar
  55   24   28 ar
  56   24   55 1
  57   25   26 ar
  58   25   56 1
  59   26   30 1
  60   27   28 ar
  61   27   57 1
  62   28   29 1
  63   31   58 1
  64   31   59 1

#	End of record

