#	Name: ASD10950081
#	Creating user name:	WinNT
#	Creation time:	15. 06. 2019 21:28

#	Modifying user name:	WinNT
#	Modification time:	15. 06. 2019 21:28

#	Program:	/corina/corina34_cracker 3.40 0067  02.08.2006

@<TRIPOS>MOLECULE
ASD10950081
  50   54    0    0    0
SMALL
NO_CHARGES


@<TRIPOS>ATOM
   1 O1             0.4547     0.2899    -1.3055 O.2     
   2 C2             0.4826     0.9780    -0.3025 C.2     
   3 C3             1.5400     1.9783    -0.1292 C.2     
   4 C4             2.8630     1.7364     0.0240 C.2     
   5 O5             3.4390     0.5126     0.0431 O.3     
   6 C6             3.5783     3.0223     0.1667 C.2     
   7 O7             4.7778     3.1397     0.3192 O.2     
   8 N8             2.7045     4.0433     0.1019 N.am    
   9 C9             1.3641     3.4785    -0.0937 C.3     
  10 C10            0.7790     3.9705    -1.3924 C.2     
  11 C11           -0.4438     4.4826    -1.5398 C.2     
  12 C12           -0.7629     4.8685    -2.8302 C.2     
  13 C13            0.2008     4.6699    -3.7309 C.2     
  14 S14            1.6068     3.9644    -2.9442 S.3     
  15 C15            3.0336     5.4673     0.2034 C.3     
  16 C16            3.3249     6.0241    -1.1915 C.3     
  17 C17            3.6634     7.4889    -1.0871 C.2     
  18 C18            2.8150     8.5175    -1.2423 C.2     
  19 N19            3.4811     9.7009    -1.0744 N.pl3   
  20 C20            4.8080     9.4563    -0.8001 C.ar    
  21 C21            4.9793     8.0601    -0.7905 C.ar    
  22 C22            6.2390     7.5146    -0.5354 C.ar    
  23 C23            7.3003     8.3410    -0.2959 C.ar    
  24 C24            7.1363     9.7196    -0.3038 C.ar    
  25 C25            5.9018    10.2789    -0.5499 C.ar    
  26 C26           -0.5535     0.8094     0.7387 C.ar    
  27 C27           -1.6366    -0.0542     0.5325 C.ar    
  28 C28           -2.5785    -0.1764     1.5387 C.ar    
  29 C29           -2.4221     0.5511     2.7049 C.ar    
  30 N30           -1.3910     1.3577     2.8719 N.ar    
  31 C31           -0.4658     1.5042     1.9469 C.ar    
  32 H32            4.3985     0.5313     0.1625 H       
  33 H33            0.7161     3.7545     0.7382 H       
  34 H34           -1.1328     4.5878    -0.7148 H       
  35 H35           -1.7198     5.2977    -3.0884 H       
  36 H36            0.1298     4.9090    -4.7817 H       
  37 H37            2.1919     6.0044     0.6406 H       
  38 H38            3.9126     5.5929     0.8357 H       
  39 H39            4.1666     5.4870    -1.6287 H       
  40 H40            2.4459     5.8985    -1.8237 H       
  41 H41            1.7627     8.4248    -1.4671 H       
  42 H42            3.0785    10.5810    -1.1394 H       
  43 H43            6.3739     6.4431    -0.5269 H       
  44 H44            8.2744     7.9186    -0.0986 H       
  45 H45            7.9847    10.3599    -0.1124 H       
  46 H46            5.7844    11.3525    -0.5539 H       
  47 H47           -1.7343    -0.6102    -0.3882 H       
  48 H48           -3.4272    -0.8328     1.4148 H       
  49 H49           -3.1561     0.4577     3.4916 H       
  50 H50            0.3635     2.1740     2.1204 H       
@<TRIPOS>BOND
   1    1    2 2
   2    2    3 1
   3    2   26 1
   4    3    4 2
   5    3    9 1
   6    4    5 1
   7    4    6 1
   8    5   32 1
   9    6    7 2
  10    6    8 am
  11    8    9 1
  12    8   15 1
  13    9   10 1
  14    9   33 1
  15   10   11 2
  16   10   14 1
  17   11   12 1
  18   11   34 1
  19   12   13 2
  20   12   35 1
  21   13   14 1
  22   13   36 1
  23   15   16 1
  24   15   37 1
  25   15   38 1
  26   16   17 1
  27   16   39 1
  28   16   40 1
  29   17   18 2
  30   17   21 1
  31   18   19 1
  32   18   41 1
  33   19   20 1
  34   19   42 1
  35   20   21 ar
  36   20   25 ar
  37   21   22 ar
  38   22   23 ar
  39   22   43 1
  40   23   24 ar
  41   23   44 1
  42   24   25 ar
  43   24   45 1
  44   25   46 1
  45   26   27 ar
  46   26   31 ar
  47   27   28 ar
  48   27   47 1
  49   28   29 ar
  50   28   48 1
  51   29   30 ar
  52   29   49 1
  53   30   31 ar
  54   31   50 1

#	End of record

