#	Name: ASD11710031
#	Creating user name:	WinNT
#	Creation time:	15. 06. 2019 21:29

#	Modifying user name:	WinNT
#	Modification time:	15. 06. 2019 21:29

#	Program:	/corina/corina34_cracker 3.40 0067  02.08.2006

@<TRIPOS>MOLECULE
ASD11710031
  46   49    0    0    0
SMALL
NO_CHARGES


@<TRIPOS>ATOM
   1 C1            -0.5978     1.7397    -0.2549 C.2     
   2 C2            -0.2370     0.3380     0.0454 C.ar    
   3 C3             1.0715    -0.1064    -0.1507 C.ar    
   4 C4            -1.2020    -0.5454     0.5317 C.ar    
   5 C5            -0.8586    -1.8521     0.8105 C.ar    
   6 C6             0.4391    -2.2876     0.6089 C.ar    
   7 C7             1.4017    -1.4157     0.1320 C.ar    
   8 S8             0.8694    -3.9581     0.9680 S.o2    
   9 N9             0.7552    -4.8090    -0.4481 N.am    
  10 C10           -0.4757    -4.9198    -1.0989 C.ar    
  11 C11           -0.5576    -4.7229    -2.4716 C.ar    
  12 C12           -1.6198    -5.2327    -0.3759 C.ar    
  13 C13           -2.8352    -5.3415    -1.0225 C.ar    
  14 C14           -2.9141    -5.1397    -2.3883 C.ar    
  15 C15           -1.7762    -4.8332    -3.1119 C.ar    
  16 O16            2.2456    -3.9508     1.3218 O.2     
  17 O17           -0.1498    -4.4605     1.8213 O.2     
  18 O18            0.0677     2.8458     0.1443 O.3     
  19 C19           -0.5858     3.9113    -0.3386 C.2     
  20 N20           -1.6223     3.5034    -1.0158 N.2     
  21 C21           -1.6582     2.1627    -0.9898 C.2     
  22 C22           -2.6920     1.2862    -1.6486 C.3     
  23 C23           -2.2917     1.0245    -3.0777 C.ar    
  24 C24           -1.6016    -0.1285    -3.4021 C.ar    
  25 C25           -1.2343    -0.3685    -4.7130 C.ar    
  26 C26           -1.5576     0.5443    -5.6995 C.ar    
  27 C27           -2.2485     1.6968    -5.3752 C.ar    
  28 C28           -2.6195     1.9348    -4.0650 C.ar    
  29 H29            1.8237     0.5731    -0.5232 H       
  30 H30           -2.2152    -0.2066     0.6898 H       
  31 H31           -1.6042    -2.5366     1.1872 H       
  32 H32            2.4128    -1.7620    -0.0235 H       
  33 H33            1.5431    -5.2305    -0.8256 H       
  34 H34            0.3307    -4.4836    -3.0373 H       
  35 H35           -1.5588    -5.3911     0.6907 H       
  36 H36           -3.7251    -5.5847    -0.4609 H       
  37 H37           -3.8657    -5.2260    -2.8916 H       
  38 H38           -1.8412    -4.6762    -4.1785 H       
  39 H39           -0.3002     4.9422    -0.1900 H       
  40 H40           -2.7616     0.3401    -1.1117 H       
  41 H41           -3.6596     1.7875    -1.6283 H       
  42 H42           -1.3490    -0.8416    -2.6314 H       
  43 H43           -0.6945    -1.2690    -4.9663 H       
  44 H44           -1.2700     0.3571    -6.7236 H       
  45 H45           -2.5007     2.4101    -6.1460 H       
  46 H46           -3.1593     2.8352    -3.8117 H       
@<TRIPOS>BOND
   1    1    2 1
   2    1   18 1
   3    1   21 2
   4    2    3 ar
   5    2    4 ar
   6    3    7 ar
   7    3   29 1
   8    4    5 ar
   9    4   30 1
  10    5    6 ar
  11    5   31 1
  12    6    7 ar
  13    6    8 1
  14    7   32 1
  15    8    9 am
  16    8   16 2
  17    8   17 2
  18    9   10 1
  19    9   33 1
  20   10   11 ar
  21   10   12 ar
  22   11   15 ar
  23   11   34 1
  24   12   13 ar
  25   12   35 1
  26   13   14 ar
  27   13   36 1
  28   14   15 ar
  29   14   37 1
  30   15   38 1
  31   18   19 1
  32   19   20 2
  33   19   39 1
  34   20   21 1
  35   21   22 1
  36   22   23 1
  37   22   40 1
  38   22   41 1
  39   23   24 ar
  40   23   28 ar
  41   24   25 ar
  42   24   42 1
  43   25   26 ar
  44   25   43 1
  45   26   27 ar
  46   26   44 1
  47   27   28 ar
  48   27   45 1
  49   28   46 1

#	End of record

