#	Name: ASD13660001
#	Creating user name:	WinNT
#	Creation time:	15. 06. 2019 21:30

#	Modifying user name:	WinNT
#	Modification time:	15. 06. 2019 21:30

#	Program:	/corina/corina34_cracker 3.40 0067  02.08.2006

@<TRIPOS>MOLECULE
ASD13660001
  26   25    0    0    0
SMALL
NO_CHARGES


@<TRIPOS>ATOM
   1 C1            -0.0187     1.5258     0.0104 C.3     
   2 C2             0.0021    -0.0041     0.0020 C.3     
   3 C3             0.7182    -0.4975    -1.2568 C.3     
   4 C4             0.7390    -2.0273    -1.2652 C.3     
   5 C5            -0.6706    -2.5482    -1.3784 C.2     
   6 C6             1.5619    -2.5197    -2.4574 C.3     
   7 C7             1.6872    -4.0433    -2.3962 C.3     
   8 C8             2.5101    -4.5356    -3.5884 C.3     
   9 O9            -0.8972    -3.8710    -1.4047 O.3     
  10 O10           -1.5968    -1.7752    -1.4454 O.2     
  11 H11            1.0039     1.9031     0.0027 H       
  12 H12           -0.5459     1.8868    -0.8726 H       
  13 H13           -0.5289     1.8773     0.9072 H       
  14 H14            0.5293    -0.3651     0.8851 H       
  15 H15           -1.0205    -0.3814     0.0098 H       
  16 H16            0.1910    -0.1364    -2.1398 H       
  17 H17            1.7408    -0.1202    -1.2645 H       
  18 H18            1.1870    -2.3897    -0.3400 H       
  19 H19            1.0657    -2.2329    -3.3846 H       
  20 H20            2.5550    -2.0717    -2.4232 H       
  21 H21            2.1834    -4.3300    -1.4690 H       
  22 H22            0.6941    -4.4912    -2.4304 H       
  23 H23            2.0140    -4.2489    -4.5155 H       
  24 H24            3.5033    -4.0877    -3.5541 H       
  25 H25            2.5995    -5.6211    -3.5447 H       
  26 H26           -1.8180    -4.1573    -1.4783 H       
@<TRIPOS>BOND
   1    1    2 1
   2    1   11 1
   3    1   12 1
   4    1   13 1
   5    2    3 1
   6    2   14 1
   7    2   15 1
   8    3    4 1
   9    3   16 1
  10    3   17 1
  11    4    5 1
  12    4    6 1
  13    4   18 1
  14    5    9 1
  15    5   10 2
  16    6    7 1
  17    6   19 1
  18    6   20 1
  19    7    8 1
  20    7   21 1
  21    7   22 1
  22    8   23 1
  23    8   24 1
  24    8   25 1
  25    9   26 1

#	End of record

