#	Name: ASD16590001
#	Creating user name:	WinNT
#	Creation time:	15. 06. 2019 21:31

#	Modifying user name:	WinNT
#	Modification time:	15. 06. 2019 21:31

#	Program:	/corina/corina34_cracker 3.40 0067  02.08.2006

@<TRIPOS>MOLECULE
ASD16590001
  97  102    0    0    0
SMALL
NO_CHARGES


@<TRIPOS>ATOM
   1 C1            -0.0187     1.5258     0.0104 C.3     
   2 C2             0.0021    -0.0041     0.0020 C.3     
   3 C3             0.7421    -0.5109     1.2415 C.3     
   4 C4            -0.0416    -0.1236     2.4973 C.3     
   5 C5             0.6873    -0.6229     3.7181 C.2     
   6 O6             1.7308    -1.2287     3.5960 O.2     
   7 N7             0.1795    -0.3960     4.9458 N.am    
   8 C8             0.8881    -0.8813     6.1327 C.3     
   9 N9             2.1295    -0.1310     8.0401 N.am    
  10 C10            3.2270     0.1627     8.7651 C.2     
  11 O11            4.1793     0.7004     8.2354 O.2     
  12 O12            3.2683    -0.1397    10.0764 O.3     
  13 C13            4.4821     0.2055    10.7947 C.3     
  14 C14            4.3457    -0.2053    12.2382 C.ar    
  15 C15            4.7436    -1.4673    12.6378 C.ar    
  16 C16            4.6183    -1.8452    13.9629 C.ar    
  17 Cl17           5.1181    -3.4302    14.4646 Cl      
  18 C18            4.0950    -0.9597    14.8878 C.ar    
  19 C19            3.6974     0.3033    14.4874 C.ar    
  20 Cl20           3.0405     1.4152    15.6474 Cl      
  21 C21            3.8281     0.6819    13.1630 C.ar    
  22 C22            0.7182    -0.4975    -1.2568 C.3     
  23 C23            0.7179    -2.0459    -1.3025 C.3     
  24 C24            0.0263    -2.4447    -2.6348 C.3     
  25 C25            0.2326    -1.2055    -3.5127 C.3     
  26 C26           -0.7368    -1.0448    -4.6685 C.3     
  27 C27           -0.5656    -2.1881    -5.6699 C.3     
  28 O28           -0.8639    -3.4306    -5.0300 O.3     
  29 C29           -1.5185    -1.9797    -6.8488 C.3     
  30 C30           -1.2005    -0.6500    -7.5353 C.3     
  31 C31            0.2410    -0.6730    -8.0479 C.3     
  32 C32            0.5599     0.6561    -8.7352 C.3     
  33 O33            1.9065     0.6342    -9.2130 O.3     
  34 C34            0.3925     1.8011    -7.7342 C.3     
  35 C35           -1.0489     1.8239    -7.2215 C.3     
  36 C36           -1.3664     0.4948    -6.5331 C.3     
  37 C37           -2.8066     0.5172    -6.0173 C.3     
  38 C38           -0.4043     0.2855    -5.3620 C.3     
  39 C39           -0.4962     1.4606    -4.3949 C.3     
  40 C40            0.3872     1.2371    -3.1559 C.3     
  41 C41           -0.0414    -0.0574    -2.5037 C.3     
  42 C42           -1.5389     0.0148    -2.1984 C.3     
  43 C43            1.9507     0.1432     6.6026 C.3     
  44 C44           -0.0575    -0.9353     7.3616 C.3     
  45 C45            0.9127    -0.7786     8.5514 C.3     
  46 H46            1.0039     1.9031     0.0027 H       
  47 H47           -0.5459     1.8868    -0.8726 H       
  48 H48           -0.5289     1.8773     0.9072 H       
  49 H49           -1.0205    -0.3814     0.0098 H       
  50 H50            0.8346    -1.5958     1.1912 H       
  51 H51            1.7350    -0.0630     1.2804 H       
  52 H52           -0.1341     0.9613     2.5476 H       
  53 H53           -1.0345    -0.5716     2.4584 H       
  54 H54           -0.6551     0.0886     5.0436 H       
  55 H55            1.3406    -1.8549     5.9441 H       
  56 H56            5.3293    -0.3144    10.3474 H       
  57 H57            4.6447     1.2818    10.7370 H       
  58 H58            5.1521    -2.1585    11.9155 H       
  59 H59            3.9928    -1.2558    15.9214 H       
  60 H60            3.5177     1.6679    12.8502 H       
  61 H61            1.7401    -0.1191    -1.2821 H       
  62 H62            1.7412    -2.4209    -1.2853 H       
  63 H63            0.1592    -2.4451    -0.4559 H       
  64 H64            0.5120    -3.3151    -3.0760 H       
  65 H65           -1.0350    -2.6361    -2.4763 H       
  66 H66            1.2610    -1.1608    -3.8713 H       
  67 H67           -1.7598    -1.0352    -4.2923 H       
  68 H68            0.4624    -2.2034    -6.0318 H       
  69 H69           -0.7759    -4.2014    -5.6073 H       
  70 H70           -1.3972    -2.7948    -7.5622 H       
  71 H71           -2.5464    -1.9643    -6.4865 H       
  72 H72           -1.8818    -0.5013    -8.3731 H       
  73 H73            0.9222    -0.8213    -7.2099 H       
  74 H74            0.3599    -1.4885    -8.7613 H       
  75 H75           -0.1207     0.8040    -9.5736 H       
  76 H76            2.1782     1.4470    -9.6610 H       
  77 H77            1.0738     1.6537    -6.8963 H       
  78 H78            0.6188     2.7480    -8.2243 H       
  79 H79           -1.1683     2.6399    -6.5088 H       
  80 H80           -1.7304     1.9705    -8.0595 H       
  81 H81           -3.0318    -0.4300    -5.5272 H       
  82 H82           -2.9243     1.3326    -5.3036 H       
  83 H83           -3.4899     0.6650    -6.8537 H       
  84 H84            0.6144     0.2380    -5.7469 H       
  85 H85           -0.1772     2.3719    -4.9007 H       
  86 H86           -1.5330     1.5742    -4.0779 H       
  87 H87            1.4325     1.1593    -3.4550 H       
  88 H88            0.2612     2.0636    -2.4566 H       
  89 H89           -1.7149     0.7526    -1.4156 H       
  90 H90           -2.0799     0.3046    -3.0992 H       
  91 H91           -1.8887    -0.9615    -1.8628 H       
  92 H92            2.8880    -0.0100     6.0677 H       
  93 H93            1.5892     1.1605     6.4526 H       
  94 H94           -0.7715    -0.1121     7.3353 H       
  95 H95           -0.5765    -1.8927     7.4072 H       
  96 H96            1.1584    -1.7584     8.9609 H       
  97 H97            0.4573    -0.1562     9.3217 H       
@<TRIPOS>BOND
   1    1    2 1
   2    1   46 1
   3    1   47 1
   4    1   48 1
   5    2    3 1
   6    2   49 1
   7    2   22 1
   8    3    4 1
   9    3   50 1
  10    3   51 1
  11    4   52 1
  12    4   53 1
  13    4    5 1
  14    5    7 am
  15    5    6 2
  16    7   54 1
  17    7    8 1
  18    8   43 1
  19    8   55 1
  20    8   44 1
  21    9   43 1
  22    9   10 am
  23    9   45 1
  24   10   11 2
  25   10   12 1
  26   12   13 1
  27   13   56 1
  28   13   57 1
  29   13   14 1
  30   14   15 ar
  31   14   21 ar
  32   15   58 1
  33   15   16 ar
  34   16   17 1
  35   16   18 ar
  36   18   19 ar
  37   18   59 1
  38   19   21 ar
  39   19   20 1
  40   21   60 1
  41   22   23 1
  42   22   61 1
  43   22   41 1
  44   23   62 1
  45   23   63 1
  46   23   24 1
  47   24   64 1
  48   24   65 1
  49   24   25 1
  50   25   66 1
  51   25   26 1
  52   25   41 1
  53   26   27 1
  54   26   67 1
  55   26   38 1
  56   27   28 1
  57   27   68 1
  58   27   29 1
  59   28   69 1
  60   29   70 1
  61   29   71 1
  62   29   30 1
  63   30   72 1
  64   30   36 1
  65   30   31 1
  66   31   73 1
  67   31   74 1
  68   31   32 1
  69   32   75 1
  70   32   33 1
  71   32   34 1
  72   33   76 1
  73   34   35 1
  74   34   77 1
  75   34   78 1
  76   35   36 1
  77   35   79 1
  78   35   80 1
  79   36   37 1
  80   36   38 1
  81   37   81 1
  82   37   82 1
  83   37   83 1
  84   38   84 1
  85   38   39 1
  86   39   40 1
  87   39   85 1
  88   39   86 1
  89   40   41 1
  90   40   87 1
  91   40   88 1
  92   41   42 1
  93   42   89 1
  94   42   90 1
  95   42   91 1
  96   43   92 1
  97   43   93 1
  98   44   94 1
  99   44   95 1
 100   44   45 1
 101   45   96 1
 102   45   97 1

#	End of record

