#	Name: ASD13620001
#	Creating user name:	WinNT
#	Creation time:	15. 06. 2019 21:30

#	Modifying user name:	WinNT
#	Modification time:	15. 06. 2019 21:30

#	Program:	/corina/corina34_cracker 3.40 0067  02.08.2006

@<TRIPOS>MOLECULE
ASD13620001
  41   41    0    0    0
SMALL
NO_CHARGES


@<TRIPOS>ATOM
   1 C1            -0.0167     1.3811     0.0096 C.ar    
   2 C2             0.0021    -0.0041     0.0020 C.ar    
   3 C3             1.2296    -0.6837    -0.0134 C.ar    
   4 C4             2.4258     0.0498    -0.0209 C.ar    
   5 C5             2.3832     1.4345    -0.0131 C.ar    
   6 C6             1.1680     2.0937     0.0022 C.ar    
   7 C7            -1.3335     2.1140     0.0199 C.3     
   8 C8             3.6661     2.2251    -0.0211 C.3     
   9 C9            -1.0775     3.6224     0.0268 C.3     
  10 C10           -2.1358     1.7386    -1.2277 C.3     
  11 C11           -2.1239     1.7250     1.2708 C.3     
  12 C12            3.3435     3.7207    -0.0100 C.3     
  13 C13            4.4906     1.8720     1.2184 C.3     
  14 C14            4.4666     1.8854    -1.2800 C.3     
  15 C15            1.2622    -2.1541    -0.0211 C.2     
  16 O16           -1.1618    -0.7008     0.0099 O.3     
  17 O17            3.6194    -0.5945    -0.0354 O.3     
  18 O18            1.2886    -2.8338     1.1426 O.3     
  19 O19            1.2654    -2.7564    -1.0769 O.2     
  20 H20            1.1441     3.1734     0.0079 H       
  21 H21           -0.5144     3.8995    -0.8643 H       
  22 H22           -2.0299     4.1525     0.0342 H       
  23 H23           -0.5060     3.8899     0.9156 H       
  24 H24           -2.3181     0.6640    -1.2326 H       
  25 H25           -3.0882     2.2687    -1.2203 H       
  26 H26           -1.5726     2.0157    -2.1188 H       
  27 H27           -1.5524     1.9925     2.1595 H       
  28 H28           -3.0763     2.2551     1.2782 H       
  29 H29           -2.3063     0.6504     1.2658 H       
  30 H30            2.7732     3.9627     0.8868 H       
  31 H31            4.2715     4.2925    -0.0158 H       
  32 H32            2.7561     3.9723    -0.8931 H       
  33 H33            4.7203     0.8065     1.2105 H       
  34 H34            5.4185     2.4438     1.2125 H       
  35 H35            3.9202     2.1140     2.1152 H       
  36 H36            3.8792     2.1370    -2.1630 H       
  37 H37            5.3945     2.4572    -1.2858 H       
  38 H38            4.6964     0.8199    -1.2879 H       
  39 H39           -1.5080    -0.8980    -0.8712 H       
  40 H40            3.9572    -0.7769    -0.9229 H       
  41 H41            1.3095    -3.7989     1.0869 H       
@<TRIPOS>BOND
   1    1    2 ar
   2    1    6 ar
   3    1    7 1
   4    2    3 ar
   5    2   16 1
   6    3    4 ar
   7    3   15 1
   8    4    5 ar
   9    4   17 1
  10    5    6 ar
  11    5    8 1
  12    6   20 1
  13    7    9 1
  14    7   10 1
  15    7   11 1
  16    8   12 1
  17    8   13 1
  18    8   14 1
  19    9   21 1
  20    9   22 1
  21    9   23 1
  22   10   24 1
  23   10   25 1
  24   10   26 1
  25   11   27 1
  26   11   28 1
  27   11   29 1
  28   12   30 1
  29   12   31 1
  30   12   32 1
  31   13   33 1
  32   13   34 1
  33   13   35 1
  34   14   36 1
  35   14   37 1
  36   14   38 1
  37   15   18 1
  38   15   19 2
  39   16   39 1
  40   17   40 1
  41   18   41 1

#	End of record

