#	Name: ASD10420153
#	Creating user name:	WinNT
#	Creation time:	15. 06. 2019 21:27

#	Modifying user name:	WinNT
#	Modification time:	15. 06. 2019 21:27

#	Program:	/corina/corina34_cracker 3.40 0067  02.08.2006

@<TRIPOS>MOLECULE
ASD10420153
  36   38    0    0    0
SMALL
NO_CHARGES


@<TRIPOS>ATOM
   1 C1            -0.0187     1.5258     0.0104 C.3     
   2 C2             1.7473    -1.4913    -7.9220 C.ar    
   3 C3            -3.3416     1.6909    -4.4632 C.ar    
   4 C4             0.8286    -1.0057    -8.8356 C.ar    
   5 C5            -3.6113     1.7703    -5.8180 C.ar    
   6 C6             1.5527    -1.2979    -6.5674 C.ar    
   7 C7            -2.2018     1.0499    -4.0155 C.ar    
   8 C8            -0.2934    -0.3233    -8.4058 C.ar    
   9 C9            -2.7464     1.2104    -6.7386 C.ar    
  10 C10            0.7182    -0.4975    -1.2568 C.3     
  11 C11            0.7309    -0.5033     1.2229 C.2     
  12 C12           -0.0464    -0.2549    -4.7618 C.2     
  13 C13            0.4286    -0.6129    -6.1194 C.ar    
  14 C14           -1.3219     0.4813    -4.9298 C.ar    
  15 C15           -0.5055    -0.1196    -7.0450 C.ar    
  16 C16           -1.5938     0.5606    -6.3053 C.ar    
  17 C17            0.0021    -0.0041     0.0020 C.3     
  18 N18            0.5437    -0.5347    -3.6361 N.2     
  19 O19            1.7215    -1.1839     1.0989 O.2     
  20 O20            0.2797    -0.1918     2.4481 O.3     
  21 O21           -0.0359    -0.1233    -2.4115 O.3     
  22 H22            1.0039     1.9031     0.0027 H       
  23 H23           -0.5459     1.8868    -0.8726 H       
  24 H24           -0.5289     1.8773     0.9072 H       
  25 H25            2.6186    -2.0269    -8.2688 H       
  26 H26           -4.0246     2.1320    -3.7524 H       
  27 H27            0.9892    -1.1617    -9.8921 H       
  28 H28           -4.5045     2.2731    -6.1582 H       
  29 H29            2.2724    -1.6786    -5.8579 H       
  30 H30           -1.9952     0.9904    -2.9571 H       
  31 H31           -1.0052     0.0531    -9.1256 H       
  32 H32           -2.9647     1.2764    -7.7942 H       
  33 H33            1.7103    -0.0491    -1.3098 H       
  34 H34            0.8116    -1.5829    -1.2198 H       
  35 H35           -1.0205    -0.3814     0.0098 H       
  36 H36            0.7805    -0.5350     3.2008 H       
@<TRIPOS>BOND
   1    1   17 1
   2    1   22 1
   3    1   23 1
   4    1   24 1
   5    2    4 ar
   6    2    6 ar
   7    2   25 1
   8    3    5 ar
   9    3    7 ar
  10    3   26 1
  11    4    8 ar
  12    4   27 1
  13    5    9 ar
  14    5   28 1
  15    6   13 ar
  16    6   29 1
  17    7   14 ar
  18    7   30 1
  19    8   15 ar
  20    8   31 1
  21    9   16 ar
  22    9   32 1
  23   10   17 1
  24   10   21 1
  25   10   33 1
  26   10   34 1
  27   11   17 1
  28   11   19 2
  29   11   20 1
  30   12   13 1
  31   12   14 1
  32   12   18 2
  33   13   15 ar
  34   14   16 ar
  35   15   16 1
  36   17   35 1
  37   18   21 1
  38   20   36 1

#	End of record

