#	Name: ASD10870009
#	Creating user name:	WinNT
#	Creation time:	15. 06. 2019 21:28

#	Modifying user name:	WinNT
#	Modification time:	15. 06. 2019 21:28

#	Program:	/corina/corina34_cracker 3.40 0067  02.08.2006

@<TRIPOS>MOLECULE
ASD10870009
  53   55    0    0    0
SMALL
NO_CHARGES


@<TRIPOS>ATOM
   1 C1             0.0249     1.7692    -0.3391 C.ar    
   2 C2            -0.0743     0.3888    -0.2780 C.ar    
   3 C3             1.0612    -0.3895    -0.1732 C.ar    
   4 C4             2.3130     0.2091    -0.1283 C.ar    
   5 C5             2.4171     1.6072    -0.1904 C.ar    
   6 C6             1.2593     2.3810    -0.2963 C.ar    
   7 C7             3.7409     2.2555    -0.1432 C.2     
   8 N8             3.8449     3.5885    -0.3125 N.am    
   9 O9             4.7387     1.5872     0.0485 O.2     
  10 N10            3.4592    -0.5736    -0.0217 N.am    
  11 C11            3.4361    -1.7066     0.7079 C.2     
  12 C12            4.6746    -2.4834     0.9032 C.ar    
  13 O13            2.3943    -2.0883     1.2053 O.2     
  14 C14            4.6552    -3.6622     1.6612 C.ar    
  15 C15            5.8258    -4.3849     1.8378 C.ar    
  16 C16            7.0039    -3.9440     1.2689 C.ar    
  17 C17            7.0274    -2.7790     0.5193 C.ar    
  18 C18            5.8729    -2.0516     0.3287 C.ar    
  19 C19            5.0868     4.2163    -0.1732 C.ar    
  20 C20            6.2443     3.5676    -0.5830 C.ar    
  21 C21            5.1647     5.4923     0.3702 C.ar    
  22 C22            6.3925     6.1093     0.5064 C.ar    
  23 C23            7.5440     5.4583     0.1025 C.ar    
  24 C24            7.4694     4.1904    -0.4440 C.ar    
  25 O25            3.4970    -4.0940     2.2200 O.3     
  26 C26            3.5542    -5.3034     2.9789 C.3     
  27 S27            8.9386     3.3680    -0.9632 S.o     
  28 O28            9.2423     4.0044    -2.1969 O.2     
  29 O29            9.9950     3.9267    -0.0206 O.3     
  30 C30           11.3064     3.4041    -0.2421 C.3     
  31 F31           11.7149     3.7063    -1.5456 F       
  32 F32           12.1976     3.9784     0.6708 F       
  33 F33           11.2908     2.0160    -0.0683 F       
  34 C34            2.1629    -5.6283     3.5263 C.3     
  35 F35            1.2686    -5.7873     2.4622 F       
  36 F36            2.2188    -6.8124     4.2693 F       
  37 F37            1.7290    -4.5823     4.3478 F       
  38 H38           -0.8692     2.3688    -0.4252 H       
  39 H39           -1.0459    -0.0814    -0.3122 H       
  40 H40            0.9755    -1.4650    -0.1257 H       
  41 H41            1.3310     3.4576    -0.3446 H       
  42 H42            3.0584     4.1125    -0.5309 H       
  43 H43            4.2745    -0.3037    -0.4726 H       
  44 H44            5.8157    -5.2936     2.4214 H       
  45 H45            7.9127    -4.5103     1.4094 H       
  46 H46            7.9541    -2.4418     0.0788 H       
  47 H47            5.8950    -1.1465    -0.2601 H       
  48 H48            6.1867     2.5771    -1.0097 H       
  49 H49            4.2659     6.0014     0.6854 H       
  50 H50            6.4537     7.1016     0.9284 H       
  51 H51            8.5030     5.9430     0.2101 H       
  52 H52            3.8922    -6.1184     2.3388 H       
  53 H53            4.2509    -5.1795     3.8079 H       
@<TRIPOS>BOND
   1    1    2 ar
   2    1    6 ar
   3    1   38 1
   4    2    3 ar
   5    2   39 1
   6    3    4 ar
   7    3   40 1
   8    4    5 ar
   9    4   10 1
  10    5    6 ar
  11    5    7 1
  12    6   41 1
  13    7    8 am
  14    7    9 2
  15    8   19 1
  16    8   42 1
  17   10   11 am
  18   10   43 1
  19   11   12 1
  20   11   13 2
  21   12   14 ar
  22   12   18 ar
  23   14   15 ar
  24   14   25 1
  25   15   16 ar
  26   15   44 1
  27   16   17 ar
  28   16   45 1
  29   17   18 ar
  30   17   46 1
  31   18   47 1
  32   19   21 ar
  33   19   20 ar
  34   20   24 ar
  35   20   48 1
  36   21   22 ar
  37   21   49 1
  38   22   23 ar
  39   22   50 1
  40   23   24 ar
  41   23   51 1
  42   24   27 1
  43   25   26 1
  44   26   34 1
  45   26   52 1
  46   26   53 1
  47   27   28 2
  48   27   29 1
  49   29   30 1
  50   30   31 1
  51   30   32 1
  52   30   33 1
  53   34   35 1
  54   34   36 1
  55   34   37 1

#	End of record

