#	Name: ASD10410019
#	Creating user name:	WinNT
#	Creation time:	15. 06. 2019 21:26

#	Modifying user name:	WinNT
#	Modification time:	15. 06. 2019 21:26

#	Program:	/corina/corina34_cracker 3.40 0067  02.08.2006

@<TRIPOS>MOLECULE
ASD10410019
  70   74    0    0    0
SMALL
NO_CHARGES


@<TRIPOS>ATOM
   1 C1             0.1960     0.4178    -0.1504 C.3     
   2 C2            -0.5485    -0.8650    -0.4169 C.ar    
   3 C3             1.6258     0.2724    -0.6041 C.ar    
   4 N4             1.9520     0.4848    -1.8681 N.ar    
   5 C5             2.6170    -0.0805     0.3002 C.ar    
   6 C6             3.9197    -0.2030    -0.1593 C.ar    
   7 N7             4.1762     0.0189    -1.4380 N.ar    
   8 C8             3.2069     0.3593    -2.2742 C.ar    
   9 Cl9            2.2351    -0.3619     1.9701 Cl      
  10 N10            3.5118     0.5842    -3.6073 N.pl3   
  11 C11            4.8439     0.5713    -4.0315 C.ar    
  12 C12            5.1732     0.0489    -5.2757 C.ar    
  13 C13            6.4900     0.0381    -5.6919 C.ar    
  14 C14            7.4802     0.5465    -4.8714 C.ar    
  15 C15            7.1559     1.0673    -3.6321 C.ar    
  16 C16            5.8404     1.0860    -3.2120 C.ar    
  17 C17            8.9161     0.5326    -5.3286 C.3     
  18 N18            9.2132     1.7787    -6.0477 N.3     
  19 C19           10.6547     1.9093    -6.3017 C.3     
  20 C20           10.9130     3.1769    -7.1197 C.3     
  21 N21           10.4028     4.3431    -6.3853 N.3     
  22 C22            8.9613     4.2125    -6.1312 C.3     
  23 C23            8.7029     2.9449    -5.3133 C.3     
  24 C24           10.6998     5.5892    -7.1043 C.3     
  25 C25           -1.4835    -0.9228    -1.4332 C.ar    
  26 C26           -0.2919    -1.9853     0.3517 C.ar    
  27 C27           -0.9744    -3.1620     0.1079 C.ar    
  28 C28           -1.9146    -3.2189    -0.9057 C.ar    
  29 C29           -2.1668    -2.0993    -1.6780 C.ar    
  30 Cl30          -2.7719    -4.6968    -1.2130 Cl      
  31 S31           -1.8051     0.5036    -2.4164 S.o2    
  32 N32           -2.5670     1.6071    -1.4448 N.am    
  33 O33           -0.5389     1.0611    -2.7406 O.2     
  34 O34           -2.7548     0.1091    -3.3971 O.2     
  35 C35           -1.9194     2.7317    -0.7538 C.3     
  36 C36           -3.0129     3.4667     0.0496 C.3     
  37 C37           -4.1092     2.3817     0.2177 C.3     
  38 C38           -4.0081     1.6283    -1.1346 C.3     
  39 H39           -0.2775     1.2331    -0.6974 H       
  40 H40            0.1740     0.6357     0.9173 H       
  41 H41            4.7151    -0.4758     0.5184 H       
  42 H42            2.8010     0.7506    -4.2460 H       
  43 H43            4.4003    -0.3487    -5.9168 H       
  44 H44            6.7467    -0.3683    -6.6590 H       
  45 H45            7.9316     1.4637    -2.9937 H       
  46 H46            5.5877     1.4929    -2.2440 H       
  47 H47            9.5724     0.4476    -4.4625 H       
  48 H48            9.0780    -0.3170    -5.9920 H       
  49 H49           11.1868     1.9742    -5.3527 H       
  50 H50           11.0062     1.0400    -6.8574 H       
  51 H51           11.9844     3.2912    -7.2846 H       
  52 H52           10.4031     3.1002    -8.0800 H       
  53 H53            8.6097     5.0818    -5.5756 H       
  54 H54            8.4292     4.1476    -7.0803 H       
  55 H55            7.6316     2.8306    -5.1484 H       
  56 H56            9.2129     3.0216    -4.3530 H       
  57 H57           10.2299     5.5622    -8.0875 H       
  58 H58           10.3114     6.4363    -6.5390 H       
  59 H59           11.7786     5.6936    -7.2200 H       
  60 H60            0.4422    -1.9409     1.1426 H       
  61 H61           -0.7736    -4.0371     0.7081 H       
  62 H62           -2.9006    -2.1431    -2.4693 H       
  63 H63           -1.1506     2.3580    -0.0775 H       
  64 H64           -1.4766     3.4096    -1.4834 H       
  65 H65           -2.6314     3.7830     1.0204 H       
  66 H66           -3.3965     4.3189    -0.5115 H       
  67 H67           -3.8807     1.7217     1.0545 H       
  68 H68           -5.0930     2.8356     0.3374 H       
  69 H69           -4.5602     2.1619    -1.9083 H       
  70 H70           -4.3855     0.6110    -1.0313 H       
@<TRIPOS>BOND
   1    1    2 1
   2    1    3 1
   3    1   39 1
   4    1   40 1
   5    2   25 ar
   6    2   26 ar
   7    3    4 ar
   8    3    5 ar
   9    4    8 ar
  10    5    6 ar
  11    5    9 1
  12    6    7 ar
  13    6   41 1
  14    7    8 ar
  15    8   10 1
  16   10   11 1
  17   10   42 1
  18   11   12 ar
  19   11   16 ar
  20   12   13 ar
  21   12   43 1
  22   13   14 ar
  23   13   44 1
  24   14   15 ar
  25   14   17 1
  26   15   16 ar
  27   15   45 1
  28   16   46 1
  29   17   18 1
  30   17   47 1
  31   17   48 1
  32   18   19 1
  33   18   23 1
  34   19   20 1
  35   19   49 1
  36   19   50 1
  37   20   21 1
  38   20   51 1
  39   20   52 1
  40   21   22 1
  41   21   24 1
  42   22   23 1
  43   22   53 1
  44   22   54 1
  45   23   55 1
  46   23   56 1
  47   24   57 1
  48   24   58 1
  49   24   59 1
  50   25   31 1
  51   25   29 ar
  52   26   27 ar
  53   26   60 1
  54   27   28 ar
  55   27   61 1
  56   28   29 ar
  57   28   30 1
  58   29   62 1
  59   31   32 am
  60   31   33 2
  61   31   34 2
  62   32   35 1
  63   32   38 1
  64   35   36 1
  65   35   63 1
  66   35   64 1
  67   36   37 1
  68   36   65 1
  69   36   66 1
  70   37   38 1
  71   37   67 1
  72   37   68 1
  73   38   69 1
  74   38   70 1

#	End of record

