#	Name: ASD10160300
#	Creating user name:	WinNT
#	Creation time:	15. 06. 2019 21:25

#	Modifying user name:	WinNT
#	Modification time:	15. 06. 2019 21:25

#	Program:	/corina/corina34_cracker 3.40 0067  02.08.2006

@<TRIPOS>MOLECULE
ASD10160300
  29   29    0    0    0
SMALL
NO_CHARGES


@<TRIPOS>ATOM
   1 Li1            0.0000     0.0000     0.0000 Du      
   2 C2            14.2722    10.8212     6.0308 C.2     
   3 C3            13.6836    10.3899     7.3075 C.ar    
   4 C4            12.3700     9.9025     7.3472 C.ar    
   5 C5            11.8228     9.4992     8.5481 C.ar    
   6 C6            12.5713     9.5761     9.7154 C.ar    
   7 C7            13.8774    10.0603     9.6807 C.ar    
   8 C8            14.4354    10.4592     8.4867 C.ar    
   9 O9            15.4191    11.2463     5.9986 O.co2   
  10 O10           13.6168    10.7503     5.0000 O.co2   
  11 F11           14.5998    10.1330    10.8200 F       
  12 F12           11.6409     9.8282     6.2123 F       
  13 O13           12.0287     9.1787    10.8938 O.3     
  14 C14            9.6594     9.3951    11.0197 C.ar    
  15 C15           10.7928     8.6124    10.8688 C.ar    
  16 C16           10.6506     7.2390    10.6906 C.ar    
  17 C17            9.3728     6.7056    10.6712 C.ar    
  18 C18            8.2830     7.5533    10.8291 C.ar    
  19 N19            8.4565     8.8532    10.9961 N.ar    
  20 O20            7.0258     7.0407    10.8112 O.3     
  21 C21            5.9469     7.9627    10.9786 C.3     
  22 Cl22           9.1354     5.0000    10.4519 Cl      
  23 H23           10.8108     9.1235     8.5803 H       
  24 H24           15.4496    10.8295     8.4605 H       
  25 H25            9.7619    10.4607    11.1628 H       
  26 H26           11.5163     6.6046    10.5701 H       
  27 H27            6.0445     8.4654    11.9408 H       
  28 H28            5.9732     8.7020    10.1781 H       
  29 H29            5.0000     7.4238    10.9446 H       
@<TRIPOS>BOND
   1    2    3 1
   2    2    9 ar
   3    2   10 ar
   4    3    4 ar
   5    3    8 ar
   6    4    5 ar
   7    4   12 1
   8    5    6 ar
   9    5   23 1
  10    6    7 ar
  11    6   13 1
  12    7    8 ar
  13    7   11 1
  14    8   24 1
  15   13   15 1
  16   14   15 ar
  17   14   19 ar
  18   14   25 1
  19   15   16 ar
  20   16   17 ar
  21   16   26 1
  22   17   18 ar
  23   17   22 1
  24   18   19 ar
  25   18   20 1
  26   20   21 1
  27   21   27 1
  28   21   28 1
  29   21   29 1

#	End of record

