#	Name: ASD10410157
#	Creating user name:	WinNT
#	Creation time:	15. 06. 2019 21:27

#	Modifying user name:	WinNT
#	Modification time:	15. 06. 2019 21:27

#	Program:	/corina/corina34_cracker 3.40 0067  02.08.2006

@<TRIPOS>MOLECULE
ASD10410157
  76   82    0    0    0
SMALL
NO_CHARGES


@<TRIPOS>ATOM
   1 C1            -0.0319     1.3840    -0.1259 C.ar    
   2 C2            -0.0096     0.0058     0.0015 C.ar    
   3 C3             1.1819    -0.6601     0.1369 C.ar    
   4 C4             2.3755     0.0365     0.1466 C.ar    
   5 C5             2.3629     1.4207     0.0186 C.ar    
   6 C6             1.1546     2.0922    -0.1174 C.ar    
   7 N7             3.5637     2.1353     0.0272 N.pl3   
   8 C8             3.6700     3.3285    -0.6866 C.2     
   9 N9             4.7063     4.1318    -0.6737 N.2     
  10 N10            2.7330     3.8329    -1.4982 N.2     
  11 C11            3.1547     4.9683    -2.0116 C.2     
  12 N12            4.4021     5.2081    -1.5229 N.pl3   
  13 N13            2.4576     5.7718    -2.8922 N.pl3   
  14 C14            5.2125     6.2991    -1.8076 C.ar    
  15 C15           -1.3141    -0.7640    -0.0102 C.3     
  16 C16           -1.5753    -1.2968     1.4008 C.3     
  17 C17           -0.8739    -2.6231     1.6176 C.3     
  18 C18            0.6389    -2.5338     1.6533 C.3     
  19 C19            1.1982    -2.1684     0.2765 C.3     
  20 N20           -1.3372    -3.1926     2.8900 N.3     
  21 N21            5.4005     6.6992    -3.0573 N.ar    
  22 C22            5.8536     7.0158    -0.7726 C.ar    
  23 C23            6.1697     7.7374    -3.3431 C.ar    
  24 N24            6.7939     8.4369    -2.4252 N.ar    
  25 C25            6.6678     8.1210    -1.1280 C.ar    
  26 C26           -2.2817    -5.4018     2.2914 C.3     
  27 C27           -2.8884    -6.2720     3.4342 C.3     
  28 C28           -1.9606    -6.0093     4.6595 C.3     
  29 C29           -2.2648    -4.5518     5.0747 C.3     
  30 C30           -2.5860    -3.9442     2.7067 C.3     
  31 C31           -3.3479    -4.0711     4.0612 C.3     
  32 C32           -4.1379    -5.4067     3.8257 C.3     
  33 C33            7.3201     8.8465    -0.1229 C.ar    
  34 C34            7.1590     8.4840     1.1851 C.ar    
  35 C35            6.3486     7.3942     1.5354 C.ar    
  36 C36            5.7062     6.6649     0.5759 C.ar    
  37 O37            6.2063     7.0558     2.8446 O.3     
  38 C38            5.3679     5.9363     3.1378 C.3     
  39 O39            7.7926     9.1884     2.1587 O.3     
  40 C40            8.6045    10.2874     1.7404 C.3     
  41 H41           -0.9725     1.9032    -0.2359 H       
  42 H42            3.3119    -0.4910     0.2534 H       
  43 H43            1.1426     3.1676    -0.2168 H       
  44 H44            4.3233     1.8014     0.5296 H       
  45 H45            1.5700     5.5132    -3.1860 H       
  46 H46            2.8554     6.5947    -3.2169 H       
  47 H47           -2.1273    -0.1023    -0.3083 H       
  48 H48           -1.2413    -1.5976    -0.7088 H       
  49 H49           -1.2086    -0.5743     2.1300 H       
  50 H50           -2.6479    -1.4319     1.5398 H       
  51 H51           -1.1614    -3.3015     0.8143 H       
  52 H52            0.9359    -1.7720     2.3741 H       
  53 H53            1.0473    -3.4962     1.9618 H       
  54 H54            0.5783    -2.6148    -0.5010 H       
  55 H55            2.2214    -2.5334     0.1881 H       
  56 H56           -0.6245    -3.7720     3.3076 H       
  57 H57            6.2892     8.0215    -4.3782 H       
  58 H58           -1.2055    -5.5607     2.2233 H       
  59 H59           -2.7620    -5.6342     1.3409 H       
  60 H60           -3.0709    -7.3186     3.1904 H       
  61 H61           -2.2016    -6.6943     5.4724 H       
  62 H62           -0.9140    -6.1121     4.3726 H       
  63 H63           -2.6555    -4.5201     6.0918 H       
  64 H64           -1.3679    -3.9380     4.9920 H       
  65 H65           -3.2141    -3.4594     1.9593 H       
  66 H66           -3.9305    -3.2009     4.3635 H       
  67 H67           -4.8495    -5.3213     3.0045 H       
  68 H68           -4.6145    -5.7660     4.7377 H       
  69 H69            7.9470     9.6875    -0.3801 H       
  70 H70            5.0842     5.8273     0.8549 H       
  71 H71            5.3412     5.7748     4.2155 H       
  72 H72            4.3591     6.1330     2.7749 H       
  73 H73            5.7638     5.0474     2.6469 H       
  74 H74            9.0513    10.7621     2.6139 H       
  75 H75            9.3928     9.9261     1.0801 H       
  76 H76            7.9885    11.0123     1.2082 H       
@<TRIPOS>BOND
   1    1    2 ar
   2    1    6 ar
   3    1   41 1
   4    2    3 ar
   5    2   15 1
   6    3    4 ar
   7    3   19 1
   8    4    5 ar
   9    4   42 1
  10    5    6 ar
  11    5    7 1
  12    6   43 1
  13    7    8 1
  14    7   44 1
  15    8    9 2
  16    8   10 1
  17    9   12 1
  18   10   11 2
  19   11   12 1
  20   11   13 1
  21   12   14 1
  22   13   45 1
  23   13   46 1
  24   14   21 ar
  25   14   22 ar
  26   15   16 1
  27   15   47 1
  28   15   48 1
  29   16   17 1
  30   16   49 1
  31   16   50 1
  32   17   18 1
  33   17   20 1
  34   17   51 1
  35   18   19 1
  36   18   52 1
  37   18   53 1
  38   19   54 1
  39   19   55 1
  40   20   30 1
  41   20   56 1
  42   21   23 ar
  43   22   25 ar
  44   22   36 ar
  45   23   24 ar
  46   23   57 1
  47   24   25 ar
  48   25   33 ar
  49   26   27 1
  50   26   30 1
  51   26   58 1
  52   26   59 1
  53   27   28 1
  54   27   32 1
  55   27   60 1
  56   28   29 1
  57   28   61 1
  58   28   62 1
  59   29   31 1
  60   29   63 1
  61   29   64 1
  62   30   31 1
  63   30   65 1
  64   31   32 1
  65   31   66 1
  66   32   67 1
  67   32   68 1
  68   33   34 ar
  69   33   69 1
  70   34   35 ar
  71   34   39 1
  72   35   36 ar
  73   35   37 1
  74   36   70 1
  75   37   38 1
  76   38   71 1
  77   38   72 1
  78   38   73 1
  79   39   40 1
  80   40   74 1
  81   40   75 1
  82   40   76 1

#	End of record

