#	Name: ASD10160191
#	Creating user name:	WinNT
#	Creation time:	15. 06. 2019 21:25

#	Modifying user name:	WinNT
#	Modification time:	15. 06. 2019 21:25

#	Program:	/corina/corina34_cracker 3.40 0067  02.08.2006

@<TRIPOS>MOLECULE
ASD10160191
  41   43    0    0    0
SMALL
NO_CHARGES


@<TRIPOS>ATOM
   1 C1            -0.0385     1.4700     0.0144 C.2     
   2 C2            -0.0131    -0.0043     0.0052 C.ar    
   3 C3             1.2025    -0.6847    -0.1324 C.ar    
   4 C4             1.2210    -2.0650    -0.1400 C.ar    
   5 C5             0.0366    -2.7778    -0.0118 C.ar    
   6 C6            -1.1748    -2.1047     0.1248 C.ar    
   7 C7            -1.2024    -0.7270     0.1397 C.ar    
   8 O8             0.9976     2.0966    -0.0977 O.2     
   9 N9            -1.2106     2.1230     0.1414 N.am    
  10 S10           -1.2392     3.7787     0.1517 S.o2    
  11 O11           -2.6115     4.1045     0.3244 O.2     
  12 O12           -0.2720     4.1398     1.1282 O.2     
  13 C13           -0.6765     4.2515    -1.5067 C.3     
  14 F14           -2.3243    -2.8036     0.2483 F       
  15 F15            2.3554     0.0083    -0.2581 F       
  16 O16            0.0593    -4.1351    -0.0202 O.3     
  17 C17           -0.5785    -6.0629    -3.5932 C.2     
  18 C18           -0.2462    -6.8133    -2.4485 C.2     
  19 C19           -0.0362    -6.1683    -1.2698 C.2     
  20 C20           -0.1517    -4.7686    -1.2018 C.2     
  21 N21           -0.4611    -4.0683    -2.2658 N.2     
  22 N22           -0.6833    -4.6997    -3.4935 N.pl3   
  23 N23           -0.8397    -6.4046    -4.8476 N.2     
  24 C24           -1.1016    -5.3042    -5.5532 C.2     
  25 C25           -1.0110    -4.2323    -4.7304 C.2     
  26 C26           -1.4463    -5.2608    -7.0196 C.3     
  27 C27           -0.3525    -5.9686    -7.8218 C.3     
  28 H28            2.1582    -2.5912    -0.2461 H       
  29 H29           -2.1420    -0.2062     0.2506 H       
  30 H30           -2.0375     1.6231     0.2268 H       
  31 H31           -1.3552     3.8374    -2.2524 H       
  32 H32           -0.6642     5.3382    -1.5902 H       
  33 H33            0.3280     3.8628    -1.6741 H       
  34 H34           -0.1592    -7.8882    -2.5061 H       
  35 H35            0.2192    -6.7319    -0.3847 H       
  36 H36           -1.1705    -3.1996    -5.0035 H       
  37 H37           -2.3998    -5.7629    -7.1837 H       
  38 H38           -1.5215    -4.2231    -7.3447 H       
  39 H39           -0.6018    -5.9372    -8.8824 H       
  40 H40            0.6009    -5.4665    -7.6577 H       
  41 H41           -0.2774    -7.0063    -7.4967 H       
@<TRIPOS>BOND
   1    1    2 1
   2    1    8 2
   3    1    9 am
   4    2    3 ar
   5    2    7 ar
   6    3    4 ar
   7    3   15 1
   8    4    5 ar
   9    4   28 1
  10    5    6 ar
  11    5   16 1
  12    6    7 ar
  13    6   14 1
  14    7   29 1
  15    9   10 am
  16    9   30 1
  17   10   11 2
  18   10   12 2
  19   10   13 1
  20   13   31 1
  21   13   32 1
  22   13   33 1
  23   16   20 1
  24   17   18 1
  25   17   22 1
  26   17   23 2
  27   18   19 2
  28   18   34 1
  29   19   20 1
  30   19   35 1
  31   20   21 2
  32   21   22 1
  33   22   25 1
  34   23   24 1
  35   24   25 2
  36   24   26 1
  37   25   36 1
  38   26   27 1
  39   26   37 1
  40   26   38 1
  41   27   39 1
  42   27   40 1
  43   27   41 1

#	End of record

