#	Name: ASD13490078
#	Creating user name:	WinNT
#	Creation time:	15. 06. 2019 21:30

#	Modifying user name:	WinNT
#	Modification time:	15. 06. 2019 21:30

#	Program:	/corina/corina34_cracker 3.40 0067  02.08.2006

@<TRIPOS>MOLECULE
ASD13490078
  53   57    0    0    0
SMALL
NO_CHARGES


@<TRIPOS>ATOM
   1 N1            -0.0158     1.3144     0.0093 N.ar    
   2 C2             0.0021    -0.0041     0.0020 C.ar    
   3 C3             1.2204    -0.7016    -0.0129 C.ar    
   4 C4             2.4178     0.0220    -0.0205 C.ar    
   5 C5             2.3532     1.4025    -0.0129 C.ar    
   6 C6             1.1066     2.0281     0.0024 C.ar    
   7 C7             1.2378    -2.1778    -0.0200 C.2     
   8 O8             0.5575    -2.9954     0.8135 O.3     
   9 C9             0.8476    -4.2587     0.4720 C.2     
  10 N10            1.6761    -4.2480    -0.5345 N.2     
  11 C11            1.9364    -2.9757    -0.8699 C.2     
  12 C12            1.0319     3.5039     0.0105 C.2     
  13 N13            2.0484     4.3435     0.0048 N.2     
  14 N14            1.6094     5.5551     0.0137 N.2     
  15 N15           -0.0999     4.2602     0.0194 N.pl3   
  16 C16            0.3039    -5.4931     1.1440 C.3     
  17 O17           -1.1665    -0.6922     0.0095 O.3     
  18 C18           -2.3715     0.0757     0.0251 C.3     
  19 C19           -2.0274     6.2377    -0.3557 C.3     
  20 C20           -2.3774     4.9999     0.4605 C.3     
  21 C21           -1.4953     3.8232     0.0267 C.3     
  22 C22            0.3091     5.5538     0.0247 C.2     
  23 C23           -0.6291     6.7349     0.0346 C.3     
  24 C24           -0.1640     7.7729    -0.9541 C.ar    
  25 C25           -0.0369     7.4455    -2.2914 C.ar    
  26 C26            0.3899     8.3968    -3.1983 C.ar    
  27 C27            0.6897     9.6773    -2.7680 C.ar    
  28 C28            0.5620    10.0043    -1.4300 C.ar    
  29 C29            0.1299     9.0533    -0.5245 C.ar    
  30 C30           -0.0152     9.4112     0.9322 C.3     
  31 Cl31           1.2266    10.8727    -3.9066 Cl      
  32 F32            0.3370    10.7519     1.1204 F       
  33 F33           -1.3424     9.2174     1.3300 F       
  34 F34            0.8250     8.5963     1.6985 F       
  35 H35            3.3706    -0.4864    -0.0316 H       
  36 H36            3.2588     1.9909    -0.0180 H       
  37 H37            2.5845    -2.6456    -1.6683 H       
  38 H38           -0.6208    -5.7966     0.6532 H       
  39 H39            1.0350    -6.2983     1.0712 H       
  40 H40            0.1043    -5.2774     2.1936 H       
  41 H41           -2.3932     0.6995     0.9187 H       
  42 H42           -2.4102     0.7091    -0.8612 H       
  43 H43           -3.2302    -0.5957     0.0297 H       
  44 H44           -2.0306     5.9869    -1.4164 H       
  45 H45           -2.7622     7.0196    -0.1640 H       
  46 H46           -2.2038     5.2010     1.5176 H       
  47 H47           -3.4267     4.7483     0.3066 H       
  48 H48           -1.7825     3.5005    -0.9740 H       
  49 H49           -1.6161     2.9977     0.7281 H       
  50 H50           -0.6578     7.1659     1.0353 H       
  51 H51           -0.2710     6.4461    -2.6271 H       
  52 H52            0.4898     8.1408    -4.2428 H       
  53 H53            0.7962    11.0035    -1.0934 H       
@<TRIPOS>BOND
   1    1    2 ar
   2    1    6 ar
   3    2    3 ar
   4    2   17 1
   5    3    4 ar
   6    3    7 1
   7    4    5 ar
   8    4   35 1
   9    5    6 ar
  10    5   36 1
  11    6   12 1
  12    7    8 1
  13    7   11 2
  14    8    9 1
  15    9   10 2
  16    9   16 1
  17   10   11 1
  18   11   37 1
  19   12   13 2
  20   12   15 1
  21   13   14 1
  22   14   22 2
  23   15   22 1
  24   15   21 1
  25   16   38 1
  26   16   39 1
  27   16   40 1
  28   17   18 1
  29   18   41 1
  30   18   42 1
  31   18   43 1
  32   19   20 1
  33   19   23 1
  34   19   44 1
  35   19   45 1
  36   20   21 1
  37   20   46 1
  38   20   47 1
  39   21   48 1
  40   21   49 1
  41   22   23 1
  42   23   24 1
  43   23   50 1
  44   24   25 ar
  45   24   29 ar
  46   25   26 ar
  47   25   51 1
  48   26   27 ar
  49   26   52 1
  50   27   28 ar
  51   27   31 1
  52   28   29 ar
  53   28   53 1
  54   29   30 1
  55   30   32 1
  56   30   33 1
  57   30   34 1

#	End of record

