#	Name: ASD14300012
#	Creating user name:	WinNT
#	Creation time:	15. 06. 2019 21:31

#	Modifying user name:	WinNT
#	Modification time:	15. 06. 2019 21:31

#	Program:	/corina/corina34_cracker 3.40 0067  02.08.2006

@<TRIPOS>MOLECULE
ASD14300012
  77   80    0    0    0
SMALL
NO_CHARGES


@<TRIPOS>ATOM
   1 N1             2.1090     0.7038     0.0056 N.pl3   
   2 C2             1.4595    -0.4899     0.0162 C.2     
   3 C3             0.1279    -0.2553     0.0563 C.2     
   4 C4            -0.0606     1.1333     0.0713 C.2     
   5 C5             1.1756     1.7108     0.0396 C.2     
   6 C6             1.4587     3.1580     0.0418 C.ar    
   7 N7             2.7161     3.5918     0.1254 N.ar    
   8 C8             2.9694     4.8963     0.1268 C.ar    
   9 N9             1.9694     5.7685     0.0454 N.ar    
  10 C10            0.7143     5.3376    -0.0381 C.ar    
  11 N11            0.4577     4.0340    -0.0453 N.ar    
  12 N12           -0.3224     6.2451    -0.1226 N.pl3   
  13 N13            4.2716     5.3459     0.2134 N.3     
  14 C14            5.1671     4.2755     0.2904 C.3     
  15 C15            7.2234     5.3204    -0.6347 C.3     
  16 C16            4.5660     6.3228    -0.8536 C.3     
  17 C17            5.6123     7.2782    -0.3369 C.3     
  18 C18            7.0291     6.8454    -0.7511 C.3     
  19 C19           -1.6940     5.7732    -0.3282 C.3     
  20 C20           -0.0510     7.6800    -0.0067 C.3     
  21 C21            6.6005     4.7503     0.6142 C.3     
  22 C22           -2.3972     5.6444     1.0245 C.3     
  23 C23           -3.7858     5.0350     0.8215 C.3     
  24 C24           -4.4401     4.7919     2.1830 C.3     
  25 C25            0.2300     8.2597    -1.3944 C.3     
  26 C26            0.5134     9.7583    -1.2734 C.3     
  27 C27            0.7944    10.3380    -2.6612 C.3     
  28 C28            3.5622     0.8859    -0.0296 C.3     
  29 C29            6.2734    -0.2226     0.0331 C.3     
  30 C30            5.6930     0.5371     1.2276 C.3     
  31 C31            4.1753     0.3469     1.2644 C.3     
  32 C32            4.1426     0.1262    -1.2241 C.3     
  33 C33            5.6603     0.3164    -1.2609 C.3     
  34 H34            1.9279    -1.4628    -0.0044 H       
  35 H35           -0.6505    -1.0038     0.0733 H       
  36 H36           -1.0082     1.6505     0.1023 H       
  37 H37            4.8353     3.5901     1.0703 H       
  38 H38            5.1743     3.7490    -0.6639 H       
  39 H39            6.7730     4.8405    -1.5036 H       
  40 H40            8.2911     5.1008    -0.6276 H       
  41 H41            4.9442     5.8035    -1.7342 H       
  42 H42            3.6602     6.8723    -1.1100 H       
  43 H43            5.4135     8.2731    -0.7353 H       
  44 H44            5.5551     7.3140     0.7510 H       
  45 H45            7.7544     7.3452    -0.1091 H       
  46 H46            7.2044     7.1473    -1.7837 H       
  47 H47           -2.2337     6.4859    -0.9518 H       
  48 H48           -1.6738     4.8013    -0.8213 H       
  49 H49           -0.9171     8.1797     0.4272 H       
  50 H50            0.8168     7.8350     0.6344 H       
  51 H51            6.5645     5.5182     1.3869 H       
  52 H52            7.1939     3.9058     0.9648 H       
  53 H53           -1.8100     5.0005     1.6793 H       
  54 H54           -2.4960     6.6306     1.4780 H       
  55 H55           -4.4019     5.7205     0.2395 H       
  56 H56           -3.6929     4.0885     0.2888 H       
  57 H57           -5.4294     4.3577     2.0383 H       
  58 H58           -3.8241     4.1064     2.7649 H       
  59 H59           -4.5330     5.7383     2.7156 H       
  60 H60            1.0961     7.7600    -1.8283 H       
  61 H61           -0.6378     8.1047    -2.0355 H       
  62 H62           -0.3527    10.2580    -0.8395 H       
  63 H63            1.3813     9.9133    -0.6323 H       
  64 H64            0.9964    11.4056    -2.5749 H       
  65 H65            1.6606     9.8383    -3.0951 H       
  66 H66           -0.0734    10.1829    -3.3022 H       
  67 H67            3.7931     1.9467    -0.1267 H       
  68 H68            7.3546    -0.0871     0.0068 H       
  69 H69            6.0424    -1.2834     0.1302 H       
  70 H70            6.1297     0.1531     2.1494 H       
  71 H71            5.9239     1.5979     1.1304 H       
  72 H72            3.7618     0.8881     2.1154 H       
  73 H73            3.9443    -0.7139     1.3615 H       
  74 H74            3.9116    -0.9346    -1.1270 H       
  75 H75            3.7058     0.5102    -2.1460 H       
  76 H76            5.8912     1.3772    -1.3581 H       
  77 H77            6.0738    -0.2248    -2.1119 H       
@<TRIPOS>BOND
   1    1    2 1
   2    1    5 1
   3    1   28 1
   4    2    3 2
   5    2   34 1
   6    3    4 1
   7    3   35 1
   8    4    5 2
   9    4   36 1
  10    5    6 1
  11    6    7 ar
  12    6   11 ar
  13    7    8 ar
  14    8    9 ar
  15    8   13 1
  16    9   10 ar
  17   10   11 ar
  18   10   12 1
  19   12   19 1
  20   12   20 1
  21   13   14 1
  22   13   16 1
  23   14   21 1
  24   14   37 1
  25   14   38 1
  26   15   18 1
  27   15   21 1
  28   15   39 1
  29   15   40 1
  30   16   17 1
  31   16   41 1
  32   16   42 1
  33   17   18 1
  34   17   43 1
  35   17   44 1
  36   18   45 1
  37   18   46 1
  38   19   22 1
  39   19   47 1
  40   19   48 1
  41   20   25 1
  42   20   49 1
  43   20   50 1
  44   21   51 1
  45   21   52 1
  46   22   23 1
  47   22   53 1
  48   22   54 1
  49   23   24 1
  50   23   55 1
  51   23   56 1
  52   24   57 1
  53   24   58 1
  54   24   59 1
  55   25   26 1
  56   25   60 1
  57   25   61 1
  58   26   27 1
  59   26   62 1
  60   26   63 1
  61   27   64 1
  62   27   65 1
  63   27   66 1
  64   28   32 1
  65   28   31 1
  66   28   67 1
  67   29   30 1
  68   29   33 1
  69   29   68 1
  70   29   69 1
  71   30   31 1
  72   30   70 1
  73   30   71 1
  74   31   72 1
  75   31   73 1
  76   32   33 1
  77   32   74 1
  78   32   75 1
  79   33   76 1
  80   33   77 1

#	End of record

