#	Name: ASD10410077
#	Creating user name:	WinNT
#	Creation time:	15. 06. 2019 21:26

#	Modifying user name:	WinNT
#	Modification time:	15. 06. 2019 21:26

#	Program:	/corina/corina34_cracker 3.40 0067  02.08.2006

@<TRIPOS>MOLECULE
ASD10410077
  82   89    0    0    0
SMALL
NO_CHARGES


@<TRIPOS>ATOM
   1 C1             0.0305     1.1176     0.1446 C.ar    
   2 C2             0.1860    -0.1672     0.6485 C.ar    
   3 C3             1.4585    -0.6740     0.8774 C.ar    
   4 C4             2.5691     0.0996     0.6045 C.ar    
   5 C5             2.4137     1.3844     0.1006 C.ar    
   6 C6             1.1412     1.8910    -0.1288 C.ar    
   7 N7             3.5401     2.1691    -0.1757 N.pl3   
   8 C8             4.7183     1.5671    -0.6149 C.2     
   9 N9             5.8604     2.1824    -0.8065 N.2     
  10 N10            4.8652     0.2682    -0.9025 N.2     
  11 C11            6.1016     0.0358    -1.2873 C.2     
  12 N12            6.7791     1.2154    -1.2461 N.pl3   
  13 C13            8.1127     1.4217    -1.5730 C.ar    
  14 N14            6.6204    -1.1877    -1.6626 N.pl3   
  15 N15           -0.9399    -0.9510     0.9260 N.3     
  16 C16           -0.5491    -2.2679     1.4482 C.3     
  17 C17           -1.8053    -3.0625     1.8129 C.3     
  18 N18           -2.6560    -3.2024     0.6227 N.3     
  19 C19           -3.0468    -1.8855     0.1005 C.3     
  20 C20           -1.7906    -1.0909    -0.2642 C.3     
  21 C21           -3.8376    -4.0251     0.9140 C.3     
  22 N22            8.6276     0.9127    -2.6834 N.ar    
  23 C23            9.8967     1.1013    -3.0072 C.ar    
  24 N24           10.7269     1.7951    -2.2650 N.ar    
  25 C25           10.3092     2.3541    -1.1198 C.ar    
  26 C26            8.9554     2.1844    -0.7338 C.ar    
  27 C27           11.1687     3.1012    -0.3044 C.ar    
  28 C28           -4.6555    -3.3669     2.0270 C.3     
  29 C29           10.6937     3.6509     0.8534 C.ar    
  30 C30            9.3559     3.4768     1.2370 C.ar    
  31 C31            8.4942     2.7584     0.4582 C.ar    
  32 C32           -4.6969    -4.1477    -0.3460 C.3     
  33 C33           -5.9276    -5.0045    -0.0426 C.3     
  34 C34           -6.7455    -4.3464     1.0704 C.3     
  35 C35           -5.8863    -4.2238     2.3303 C.3     
  36 C36           -5.4398    -5.6162     2.7807 C.3     
  37 C37           -3.3912    -5.4175     1.3643 C.3     
  38 C38           -4.6219    -6.2743     1.6677 C.3     
  39 C39           -5.4812    -6.3969     0.4077 C.3     
  40 O40           11.5285     4.3752     1.6432 O.3     
  41 C41           12.8797     4.5175     1.2004 C.3     
  42 O42            8.9105     4.0341     2.3945 O.3     
  43 C43            7.5381     3.8213     2.7309 C.3     
  44 H44           -0.9590     1.5100    -0.0377 H       
  45 H45            1.5793    -1.6731     1.2693 H       
  46 H46            3.5587    -0.2943     0.7833 H       
  47 H47            1.0203     2.8900    -0.5210 H       
  48 H48            3.5005     3.1316    -0.0616 H       
  49 H49            6.0557    -1.9763    -1.6571 H       
  50 H50            7.5497    -1.2585    -1.9318 H       
  51 H51            0.0148    -2.8080     0.6876 H       
  52 H52            0.0696    -2.1380     2.3361 H       
  53 H53           -1.5188    -4.0505     2.1733 H       
  54 H54           -2.3551    -2.5358     2.5929 H       
  55 H55           -3.6655    -2.0154    -0.7874 H       
  56 H56           -3.6107    -1.3454     0.8611 H       
  57 H57           -2.0771    -0.1029    -0.6246 H       
  58 H58           -1.2409    -1.6176    -1.0442 H       
  59 H59           10.2658     0.6642    -3.9233 H       
  60 H60           12.2011     3.2418    -0.5886 H       
  61 H61           -4.0434    -3.2795     2.9246 H       
  62 H62           -4.9736    -2.3749     1.7061 H       
  63 H63            7.4657     2.6294     0.7616 H       
  64 H64           -5.0149    -3.1557    -0.6668 H       
  65 H65           -4.1142    -4.6165    -1.1389 H       
  66 H66           -6.5397    -5.0919    -0.9403 H       
  67 H67           -7.0635    -3.3544     0.7495 H       
  68 H68           -7.6223    -4.9568     1.2865 H       
  69 H69           -6.4689    -3.7549     3.1233 H       
  70 H70           -4.8277    -5.5288     3.6783 H       
  71 H71           -6.3166    -6.2266     2.9968 H       
  72 H72           -2.8085    -5.8863     0.5714 H       
  73 H73           -2.7791    -5.3301     2.2620 H       
  74 H74           -4.3039    -7.2663     1.9886 H       
  75 H75           -6.3580    -7.0074     0.6238 H       
  76 H76           -4.8985    -6.8658    -0.3852 H       
  77 H77           13.3393     3.5329     1.1139 H       
  78 H78           12.8936     5.0116     0.2289 H       
  79 H79           13.4369     5.1165     1.9207 H       
  80 H80            7.3142     4.3180     3.6750 H       
  81 H81            6.9036     4.2314     1.9453 H       
  82 H82            7.3496     2.7522     2.8292 H       
@<TRIPOS>BOND
   1    1    2 ar
   2    1    6 ar
   3    1   44 1
   4    2    3 ar
   5    2   15 1
   6    3    4 ar
   7    3   45 1
   8    4    5 ar
   9    4   46 1
  10    5    6 ar
  11    5    7 1
  12    6   47 1
  13    7    8 1
  14    7   48 1
  15    8    9 2
  16    8   10 1
  17    9   12 1
  18   10   11 2
  19   11   12 1
  20   11   14 1
  21   12   13 1
  22   13   22 ar
  23   13   26 ar
  24   14   49 1
  25   14   50 1
  26   15   16 1
  27   15   20 1
  28   16   17 1
  29   16   51 1
  30   16   52 1
  31   17   18 1
  32   17   53 1
  33   17   54 1
  34   18   19 1
  35   18   21 1
  36   19   20 1
  37   19   55 1
  38   19   56 1
  39   20   57 1
  40   20   58 1
  41   21   32 1
  42   21   37 1
  43   21   28 1
  44   22   23 ar
  45   23   24 ar
  46   23   59 1
  47   24   25 ar
  48   25   26 ar
  49   25   27 ar
  50   26   31 ar
  51   27   29 ar
  52   27   60 1
  53   28   35 1
  54   28   61 1
  55   28   62 1
  56   29   30 ar
  57   29   40 1
  58   30   31 ar
  59   30   42 1
  60   31   63 1
  61   32   33 1
  62   32   64 1
  63   32   65 1
  64   33   34 1
  65   33   39 1
  66   33   66 1
  67   34   35 1
  68   34   67 1
  69   34   68 1
  70   35   36 1
  71   35   69 1
  72   36   38 1
  73   36   70 1
  74   36   71 1
  75   37   38 1
  76   37   72 1
  77   37   73 1
  78   38   39 1
  79   38   74 1
  80   39   75 1
  81   39   76 1
  82   40   41 1
  83   41   77 1
  84   41   78 1
  85   41   79 1
  86   42   43 1
  87   43   80 1
  88   43   81 1
  89   43   82 1

#	End of record

