#	Name: ASD11710028
#	Creating user name:	WinNT
#	Creation time:	15. 06. 2019 21:29

#	Modifying user name:	WinNT
#	Modification time:	15. 06. 2019 21:29

#	Program:	/corina/corina34_cracker 3.40 0067  02.08.2006

@<TRIPOS>MOLECULE
ASD11710028
  58   60    0    0    0
SMALL
NO_CHARGES


@<TRIPOS>ATOM
   1 C1            -2.6033     0.0194     0.4676 C.3     
   2 N2            -2.0771    -1.3476     0.4441 N.am    
   3 C3            -1.4831    -1.8600     1.5400 C.2     
   4 C4            -1.2255    -0.9973     2.7128 C.ar    
   5 O5            -1.1592    -3.0313     1.5643 O.2     
   6 C6            -1.3769    -1.5059     4.0038 C.ar    
   7 C7            -0.8242     0.3275     2.5338 C.ar    
   8 C8            -0.5849     1.1269     3.6323 C.ar    
   9 C9            -0.7415     0.6180     4.9094 C.ar    
  10 C10           -1.1344    -0.6957     5.0938 C.ar    
  11 S11           -0.4328     1.6456     6.3070 S.o2    
  12 N12           -1.8358     2.4619     6.6348 N.am    
  13 C13           -2.3129     3.4193     5.7367 C.ar    
  14 C14           -3.6356     3.3794     5.3141 C.ar    
  15 C15           -1.4673     4.4170     5.2686 C.ar    
  16 C16           -1.9422     5.3621     4.3806 C.ar    
  17 C17           -3.2581     5.3163     3.9578 C.ar    
  18 C18           -4.1040     4.3276     4.4260 C.ar    
  19 O19           -0.2105     0.7724     7.4058 O.2     
  20 O20            0.5105     2.6217     5.8868 O.2     
  21 C21           -1.9904     0.8131    -0.6573 C.ar    
  22 C22           -2.4880     0.6902    -1.9411 C.ar    
  23 C23           -1.9257     1.4182    -2.9730 C.ar    
  24 C24           -0.8661     2.2694    -2.7210 C.ar    
  25 C25           -0.3691     2.3931    -1.4370 C.ar    
  26 C26           -0.9342     1.6683    -0.4043 C.ar    
  27 C27           -2.1964    -2.1576    -0.7707 C.3     
  28 C28           -0.9231    -2.0138    -1.6068 C.3     
  29 N29           -1.0780    -2.7541    -2.8661 N.3     
  30 C30           -0.0794    -2.3258    -3.8547 C.3     
  31 C31           -1.0044    -4.2033    -2.6374 C.3     
  32 H32           -3.6863    -0.0060     0.3463 H       
  33 H33           -2.3553     0.4879     1.4200 H       
  34 H34           -1.6835    -2.5312     4.1490 H       
  35 H35           -0.7009     0.7257     1.5375 H       
  36 H36           -0.2744     2.1522     3.4952 H       
  37 H37           -1.2548    -1.0869     6.0932 H       
  38 H38           -2.3264     2.2751     7.4505 H       
  39 H39           -4.2967     2.6075     5.6793 H       
  40 H40           -0.4397     4.4538     5.5989 H       
  41 H41           -1.2853     6.1381     4.0162 H       
  42 H42           -3.6271     6.0571     3.2639 H       
  43 H43           -5.1311     4.2947     4.0938 H       
  44 H44           -3.3158     0.0251    -2.1380 H       
  45 H45           -2.3140     1.3216    -3.9761 H       
  46 H46           -0.4264     2.8377    -3.5273 H       
  47 H47            0.4589     3.0579    -1.2402 H       
  48 H48           -0.5459     1.7649     0.5988 H       
  49 H49           -2.3356    -3.2037    -0.4977 H       
  50 H50           -3.0532    -1.8167    -1.3520 H       
  51 H51           -0.7481    -0.9601    -1.8239 H       
  52 H52           -0.0761    -2.4158    -1.0508 H       
  53 H53            0.9212    -2.5082    -3.4629 H       
  54 H54           -0.2166    -2.8896    -4.7775 H       
  55 H55           -0.2019    -1.2618    -4.0574 H       
  56 H56           -1.7944    -4.5030    -1.9488 H       
  57 H57           -1.1301    -4.7275    -3.5848 H       
  58 H58           -0.0343    -4.4547    -2.2089 H       
@<TRIPOS>BOND
   1    1    2 1
   2    1   21 1
   3    1   32 1
   4    1   33 1
   5    2    3 am
   6    2   27 1
   7    3    4 1
   8    3    5 2
   9    4    6 ar
  10    4    7 ar
  11    6   10 ar
  12    6   34 1
  13    7    8 ar
  14    7   35 1
  15    8    9 ar
  16    8   36 1
  17    9   10 ar
  18    9   11 1
  19   10   37 1
  20   11   12 am
  21   11   19 2
  22   11   20 2
  23   12   13 1
  24   12   38 1
  25   13   14 ar
  26   13   15 ar
  27   14   18 ar
  28   14   39 1
  29   15   16 ar
  30   15   40 1
  31   16   17 ar
  32   16   41 1
  33   17   18 ar
  34   17   42 1
  35   18   43 1
  36   21   22 ar
  37   21   26 ar
  38   22   23 ar
  39   22   44 1
  40   23   24 ar
  41   23   45 1
  42   24   25 ar
  43   24   46 1
  44   25   26 ar
  45   25   47 1
  46   26   48 1
  47   27   28 1
  48   27   49 1
  49   27   50 1
  50   28   29 1
  51   28   51 1
  52   28   52 1
  53   29   30 1
  54   29   31 1
  55   30   53 1
  56   30   54 1
  57   30   55 1
  58   31   56 1
  59   31   57 1
  60   31   58 1

#	End of record

