#	Name: ASD10950048
#	Creating user name:	WinNT
#	Creation time:	15. 06. 2019 21:28

#	Modifying user name:	WinNT
#	Modification time:	15. 06. 2019 21:28

#	Program:	/corina/corina34_cracker 3.40 0067  02.08.2006

@<TRIPOS>MOLECULE
ASD10950048
  63   67    0    0    0
SMALL
NO_CHARGES


@<TRIPOS>ATOM
   1 C1             1.2165    -0.0616     1.2709 C.3     
   2 O2             1.5468    -1.4514     1.2336 O.3     
   3 C3             2.0592    -1.9329     0.0701 C.ar    
   4 C4             2.2380    -1.0759    -1.0126 C.ar    
   5 C5             2.7516    -1.5436    -2.1888 C.ar    
   6 C6             3.1007    -2.8901    -2.3078 C.ar    
   7 C7             2.9233    -3.7621    -1.2180 C.ar    
   8 C8             2.4037    -3.2683    -0.0264 C.ar    
   9 N9             3.3479    -5.0083    -1.6215 N.pl3   
  10 C10            3.7840    -4.9538    -2.9188 C.2     
  11 C11            3.6611    -3.7036    -3.3904 C.2     
  12 C12            4.0291    -3.2266    -4.7718 C.3     
  13 C13            5.4440    -2.6449    -4.7503 C.3     
  14 N14            5.8018    -2.1811    -6.0931 N.am    
  15 C15            5.5883    -0.9484    -6.5879 C.2     
  16 O16            5.0621    -0.0357    -5.9829 O.2     
  17 C17            6.0892    -0.8685    -7.9765 C.2     
  18 C18            6.6129    -2.0657    -8.3297 C.2     
  19 C19            6.4622    -2.9772    -7.1343 C.3     
  20 C20            7.8162    -3.4403    -6.6618 C.ar    
  21 C21            8.2279    -4.7367    -6.9157 C.ar    
  22 C22            9.4662    -5.1671    -6.4866 C.ar    
  23 C23           10.3048    -4.2911    -5.7945 C.ar    
  24 C24            9.8831    -2.9843    -5.5417 C.ar    
  25 C25            8.6444    -2.5655    -5.9812 C.ar    
  26 C26           11.6322    -4.7451    -5.3314 C.2     
  27 O27           11.9962    -5.8827    -5.5524 O.2     
  28 O28           12.4388    -3.8974    -4.6639 O.3     
  29 C29           13.7285    -4.4117    -4.2391 C.3     
  30 C30            7.2146    -2.4099    -9.6213 C.2     
  31 O31            8.2337    -1.8539    -9.9852 O.2     
  32 C32            6.5830    -3.4330   -10.4819 C.ar    
  33 C33            7.2054    -3.8517   -11.6646 C.ar    
  34 C34            6.5727    -4.8120   -12.4340 C.ar    
  35 C35            5.3574    -5.3231   -12.0148 C.ar    
  36 N36            4.7939    -4.9098   -10.8953 N.ar    
  37 C37            5.3585    -4.0024   -10.1264 C.ar    
  38 O38            6.0325     0.2267    -8.7685 O.3     
  39 H39            2.1116     0.5299     1.0781 H       
  40 H40            0.4673     0.1544     0.5093 H       
  41 H41            0.8189     0.1911     2.2538 H       
  42 H42            1.9684    -0.0341    -0.9219 H       
  43 H43            2.8870    -0.8734    -3.0248 H       
  44 H44            2.2629    -3.9269     0.8178 H       
  45 H45            3.3394    -5.8058    -1.0694 H       
  46 H46            4.1698    -5.7927    -3.4790 H       
  47 H47            3.9913    -4.0647    -5.4677 H       
  48 H48            3.3250    -2.4579    -5.0902 H       
  49 H49            5.4818    -1.8068    -4.0544 H       
  50 H50            6.1481    -3.4136    -4.4318 H       
  51 H51            5.8414    -3.8350    -7.3930 H       
  52 H52            7.5780    -5.4133    -7.4509 H       
  53 H53            9.7862    -6.1793    -6.6851 H       
  54 H54           10.5267    -2.3018    -5.0066 H       
  55 H55            8.3169    -1.5550    -5.7863 H       
  56 H56           13.5793    -5.2606    -3.5718 H       
  57 H57           14.2977    -4.7314    -5.1120 H       
  58 H58           14.2768    -3.6292    -3.7145 H       
  59 H59            8.1545    -3.4354   -11.9685 H       
  60 H60            7.0227    -5.1587   -13.3525 H       
  61 H61            4.8614    -6.0725   -12.6138 H       
  62 H62            4.8664    -3.6898    -9.2172 H       
  63 H63            5.6228     0.9952    -8.3483 H       
@<TRIPOS>BOND
   1    1    2 1
   2    1   39 1
   3    1   40 1
   4    1   41 1
   5    2    3 1
   6    3    4 ar
   7    3    8 ar
   8    4    5 ar
   9    4   42 1
  10    5    6 ar
  11    5   43 1
  12    6    7 ar
  13    6   11 1
  14    7    8 ar
  15    7    9 1
  16    8   44 1
  17    9   10 1
  18    9   45 1
  19   10   11 2
  20   10   46 1
  21   11   12 1
  22   12   13 1
  23   12   47 1
  24   12   48 1
  25   13   14 1
  26   13   49 1
  27   13   50 1
  28   14   15 am
  29   14   19 1
  30   15   16 2
  31   15   17 1
  32   17   18 2
  33   17   38 1
  34   18   19 1
  35   18   30 1
  36   19   20 1
  37   19   51 1
  38   20   21 ar
  39   20   25 ar
  40   21   22 ar
  41   21   52 1
  42   22   23 ar
  43   22   53 1
  44   23   24 ar
  45   23   26 1
  46   24   25 ar
  47   24   54 1
  48   25   55 1
  49   26   27 2
  50   26   28 1
  51   28   29 1
  52   29   56 1
  53   29   57 1
  54   29   58 1
  55   30   31 2
  56   30   32 1
  57   32   33 ar
  58   32   37 ar
  59   33   34 ar
  60   33   59 1
  61   34   35 ar
  62   34   60 1
  63   35   36 ar
  64   35   61 1
  65   36   37 ar
  66   37   62 1
  67   38   63 1

#	End of record

