#	Name: ASD13490032
#	Creating user name:	WinNT
#	Creation time:	15. 06. 2019 21:30

#	Modifying user name:	WinNT
#	Modification time:	15. 06. 2019 21:30

#	Program:	/corina/corina34_cracker 3.40 0067  02.08.2006

@<TRIPOS>MOLECULE
ASD13490032
  57   61    0    0    0
SMALL
NO_CHARGES


@<TRIPOS>ATOM
   1 C1             0.0074     1.3120     0.1188 C.ar    
   2 C2            -2.2996     1.3895     0.0950 C.ar    
   3 N3            -1.1225     2.0014     0.1275 N.ar    
   4 N4             0.0162    -0.0134     0.0762 N.ar    
   5 C5            -2.3354     0.0068     0.0628 C.ar    
   6 C6            -1.1239    -0.6898     0.0466 C.ar    
   7 O7            -3.5220    -0.6527     0.0406 O.3     
   8 N8            -1.1272    -2.0797    -0.0039 N.pl3   
   9 C9            -2.3955    -2.7726     0.2815 C.3     
  10 C10           -3.5187    -2.0042    -0.4289 C.3     
  11 C11            0.0328    -2.7944    -0.3152 C.ar    
  12 C12            0.6357    -3.5958     0.6460 C.ar    
  13 C13            1.7816    -4.3011     0.3349 C.ar    
  14 C14            2.3291    -4.2098    -0.9317 C.ar    
  15 C15            1.7314    -3.4130    -1.8910 C.ar    
  16 C16            0.5822    -2.7095    -1.5883 C.ar    
  17 N17            1.2140     1.9940     0.1493 N.pl3   
  18 C18            1.2268     3.4582     0.1965 C.3     
  19 C19            2.5769     5.5037    -0.2800 C.3     
  20 N20            2.4562     5.8990     1.1291 N.3     
  21 C21            1.1784     5.4522     1.6984 C.3     
  22 C22            1.1032     3.9244     1.6497 C.3     
  23 C23            2.5434     3.9775    -0.3877 C.3     
  24 C24            2.6144     7.2740     1.2767 C.ar    
  25 C25            2.8537     8.0899     0.1690 C.ar    
  26 C26            3.0045     9.4466     0.3539 C.ar    
  27 N27            2.9262     9.9799     1.5598 N.ar    
  28 C28            2.7009     9.2427     2.6359 C.ar    
  29 C29            2.5324     7.8709     2.5316 C.ar    
  30 O30            2.6295     9.8370     3.8536 O.3     
  31 C31            2.8065    11.2544     3.8951 C.3     
  32 H32           -3.2155     1.9617     0.1028 H       
  33 H33           -2.3511    -3.7943    -0.0956 H       
  34 H34           -2.5772    -2.7824     1.3562 H       
  35 H35           -4.4782    -2.4707    -0.2059 H       
  36 H36           -3.3457    -2.0166    -1.5050 H       
  37 H37            0.2090    -3.6669     1.6356 H       
  38 H38            2.2508    -4.9243     1.0818 H       
  39 H39            3.2256    -4.7619    -1.1721 H       
  40 H40            2.1618    -3.3436    -2.8791 H       
  41 H41            0.1134    -2.0909    -2.3392 H       
  42 H42            2.0497     1.5017     0.1394 H       
  43 H43            0.3913     3.8487    -0.3846 H       
  44 H44            1.7480     5.9261    -0.8480 H       
  45 H45            3.5193     5.8756    -0.6821 H       
  46 H46            1.1051     5.7866     2.7332 H       
  47 H47            0.3561     5.8748     1.1211 H       
  48 H48            0.1482     3.5939     2.0580 H       
  49 H49            1.9173     3.5011     2.2382 H       
  50 H50            3.3801     3.5550     0.1687 H       
  51 H51            2.6173     3.6849    -1.4351 H       
  52 H52            2.9199     7.6625    -0.8206 H       
  53 H53            3.1897    10.0830    -0.4988 H       
  54 H54            2.3442     7.2734     3.4114 H       
  55 H55            2.7258    11.6006     4.9256 H       
  56 H56            3.7907    11.5093     3.5021 H       
  57 H57            2.0379    11.7344     3.2894 H       
@<TRIPOS>BOND
   1    1    4 ar
   2    1   17 1
   3    1    3 ar
   4    2    3 ar
   5    2    5 ar
   6    2   32 1
   7    4    6 ar
   8    5    6 ar
   9    5    7 1
  10    6    8 1
  11    7   10 1
  12    8    9 1
  13    8   11 1
  14    9   10 1
  15    9   33 1
  16    9   34 1
  17   10   35 1
  18   10   36 1
  19   11   12 ar
  20   11   16 ar
  21   12   13 ar
  22   12   37 1
  23   13   14 ar
  24   13   38 1
  25   14   15 ar
  26   14   39 1
  27   15   16 ar
  28   15   40 1
  29   16   41 1
  30   17   18 1
  31   17   42 1
  32   18   23 1
  33   18   22 1
  34   18   43 1
  35   19   20 1
  36   19   23 1
  37   19   44 1
  38   19   45 1
  39   20   21 1
  40   20   24 1
  41   21   22 1
  42   21   46 1
  43   21   47 1
  44   22   48 1
  45   22   49 1
  46   23   50 1
  47   23   51 1
  48   24   25 ar
  49   24   29 ar
  50   25   26 ar
  51   25   52 1
  52   26   27 ar
  53   26   53 1
  54   27   28 ar
  55   28   29 ar
  56   28   30 1
  57   29   54 1
  58   30   31 1
  59   31   55 1
  60   31   56 1
  61   31   57 1

#	End of record

