#	Name: ASD10950011
#	Creating user name:	WinNT
#	Creation time:	15. 06. 2019 21:28

#	Modifying user name:	WinNT
#	Modification time:	15. 06. 2019 21:28

#	Program:	/corina/corina34_cracker 3.40 0067  02.08.2006

@<TRIPOS>MOLECULE
ASD10950011
  59   63    0    0    0
SMALL
NO_CHARGES


@<TRIPOS>ATOM
   1 C1             1.3055     1.2765     0.7805 C.3     
   2 O2             1.1010    -0.1554     0.6531 O.3     
   3 C3            -0.1711    -0.5837     0.5392 C.2     
   4 O4            -1.0845     0.2170     0.5461 O.2     
   5 C5            -0.4554    -2.0272     0.4059 C.ar    
   6 C6            -1.7727    -2.4746     0.2876 C.ar    
   7 C7            -2.0310    -3.8240     0.1635 C.ar    
   8 C8            -0.9881    -4.7334     0.1561 C.ar    
   9 C9             0.3197    -4.2969     0.2729 C.ar    
  10 C10            0.5925    -2.9499     0.3918 C.ar    
  11 C11           -1.2781    -6.2060     0.0206 C.3     
  12 N12           -0.3934    -6.8039    -0.9862 N.am    
  13 C13           -0.3258    -6.4347    -2.4023 C.3     
  14 C14            0.7087    -5.3232    -2.5907 C.3     
  15 C15            0.7782    -4.9434    -4.0474 C.2     
  16 C16            1.6459    -5.4171    -4.9555 C.2     
  17 N17            1.4055    -4.8431    -6.1741 N.pl3   
  18 C18            0.3504    -3.9637    -6.0773 C.ar    
  19 C19           -0.0923    -3.9920    -4.7424 C.ar    
  20 C20           -1.1648    -3.1902    -4.3470 C.ar    
  21 C21           -1.7796    -2.3811    -5.2602 C.ar    
  22 C22           -1.3468    -2.3499    -6.5789 C.ar    
  23 C23           -0.2928    -3.1351    -6.9912 C.ar    
  24 C24            0.3448    -7.7506    -0.3790 C.2     
  25 O25            1.1816    -8.4403    -0.9268 O.2     
  26 C26           -0.0121    -7.8270     1.0538 C.2     
  27 C27           -0.9785    -6.9161     1.3202 C.2     
  28 C28           -1.6110    -6.6673     2.6178 C.2     
  29 O29           -0.9522    -6.2289     3.5415 O.2     
  30 C30           -3.0532    -6.9497     2.8051 C.ar    
  31 C31           -3.6281    -6.8028     4.0662 C.ar    
  32 C32           -4.9785    -7.0707     4.2257 C.ar    
  33 C33           -5.7075    -7.4762     3.1186 C.ar    
  34 C34           -5.0704    -7.6012     1.8938 C.ar    
  35 N35           -3.7886    -7.3354     1.7690 N.ar    
  36 O36            0.5383    -8.6722     1.9549 O.3     
  37 H37            2.3721     1.4851     0.8640 H       
  38 H38            0.9044     1.7804    -0.0988 H       
  39 H39            0.7936     1.6387     1.6720 H       
  40 H40           -2.5876    -1.7659     0.2937 H       
  41 H41           -3.0495    -4.1714     0.0723 H       
  42 H42            1.1289    -5.0120     0.2667 H       
  43 H43            1.6138    -2.6105     0.4829 H       
  44 H44           -2.3206    -6.3581    -0.2589 H       
  45 H45           -0.0356    -7.3048    -2.9912 H       
  46 H46           -1.3027    -6.0817    -2.7328 H       
  47 H47            0.4184    -4.4531    -2.0018 H       
  48 H48            1.6855    -5.6762    -2.2602 H       
  49 H49            2.4196    -6.1432    -4.7540 H       
  50 H50            1.9042    -5.0278    -6.9853 H       
  51 H51           -1.5074    -3.2098    -3.3229 H       
  52 H52           -2.6091    -1.7611    -4.9538 H       
  53 H53           -1.8431    -1.7053    -7.2893 H       
  54 H54            0.0365    -3.1037    -8.0193 H       
  55 H55           -3.0297    -6.4851     4.9073 H       
  56 H56           -5.4520    -6.9662     5.1907 H       
  57 H57           -6.7616    -7.6930     3.2095 H       
  58 H58           -5.6355    -7.9169     1.0293 H       
  59 H59            1.2161    -9.2544     1.5851 H       
@<TRIPOS>BOND
   1    1    2 1
   2    1   37 1
   3    1   38 1
   4    1   39 1
   5    2    3 1
   6    3    4 2
   7    3    5 1
   8    5    6 ar
   9    5   10 ar
  10    6    7 ar
  11    6   40 1
  12    7    8 ar
  13    7   41 1
  14    8    9 ar
  15    8   11 1
  16    9   10 ar
  17    9   42 1
  18   10   43 1
  19   11   12 1
  20   11   27 1
  21   11   44 1
  22   12   13 1
  23   12   24 am
  24   13   14 1
  25   13   45 1
  26   13   46 1
  27   14   15 1
  28   14   47 1
  29   14   48 1
  30   15   16 2
  31   15   19 1
  32   16   17 1
  33   16   49 1
  34   17   18 1
  35   17   50 1
  36   18   19 ar
  37   18   23 ar
  38   19   20 ar
  39   20   21 ar
  40   20   51 1
  41   21   22 ar
  42   21   52 1
  43   22   23 ar
  44   22   53 1
  45   23   54 1
  46   24   25 2
  47   24   26 1
  48   26   27 2
  49   26   36 1
  50   27   28 1
  51   28   29 2
  52   28   30 1
  53   30   31 ar
  54   30   35 ar
  55   31   32 ar
  56   31   55 1
  57   32   33 ar
  58   32   56 1
  59   33   34 ar
  60   33   57 1
  61   34   35 ar
  62   34   58 1
  63   36   59 1

#	End of record

