#	Name: ASD10160129
#	Creating user name:	WinNT
#	Creation time:	15. 06. 2019 21:25

#	Modifying user name:	WinNT
#	Modification time:	15. 06. 2019 21:25

#	Program:	/corina/corina34_cracker 3.40 0067  02.08.2006

@<TRIPOS>MOLECULE
ASD10160129
  52   54    0    0    0
SMALL
NO_CHARGES


@<TRIPOS>ATOM
   1 C1            -1.8089    -1.5274     4.5553 C.2     
   2 C2            -1.3183    -2.2146     3.3466 C.ar    
   3 C3            -0.0008    -2.6847     3.2922 C.ar    
   4 C4             0.4538    -3.3273     2.1583 C.ar    
   5 C5            -0.3934    -3.5071     1.0731 C.ar    
   6 C6            -1.7047    -3.0409     1.1232 C.ar    
   7 C7            -2.1692    -2.4037     2.2533 C.ar    
   8 O8            -1.0688    -1.3683     5.5069 O.2     
   9 N9            -3.0760    -1.0707     4.6033 N.am    
  10 S10           -3.6271    -0.2989     5.9609 S.o2    
  11 O11           -4.9817     0.0102     5.6628 O.2     
  12 O12           -3.2937    -1.1801     7.0246 O.2     
  13 C13           -2.6343     1.2164     6.0546 C.3     
  14 F14           -2.5245    -3.2186     0.0642 F       
  15 F15            0.8243    -2.5093     4.3475 F       
  16 O16            0.0580    -4.1388    -0.0403 O.3     
  17 C17            2.4038    -3.9050    -0.3819 C.ar    
  18 C18            1.3098    -4.6692    -0.0102 C.ar    
  19 C19            1.5070    -5.9868     0.3952 C.ar    
  20 C20            2.7979    -6.4855     0.4111 C.ar    
  21 C21            3.8485    -5.6589     0.0240 C.ar    
  22 N22            3.6222    -4.4113    -0.3549 N.ar    
  23 N23            5.1520    -6.1498     0.0359 N.3     
  24 C24            6.1023    -5.1108     0.4568 C.3     
  25 C25            7.5085    -5.7101     0.5333 C.3     
  26 N26            7.8775    -6.2564    -0.7800 N.3     
  27 C27            6.9273    -7.2955    -1.2009 C.3     
  28 C28            5.5211    -6.6962    -1.2775 C.3     
  29 C29            9.2522    -6.7742    -0.7675 C.3     
  30 C30            9.5159    -7.5524    -2.0581 C.3     
  31 Cl31           3.1028    -8.1207     0.9079 Cl      
  32 H32            1.4700    -3.6905     2.1151 H       
  33 H33           -3.1878    -2.0469     2.2928 H       
  34 H34           -3.6652    -1.1940     3.8427 H       
  35 H35           -2.7936     1.8114     5.1553 H       
  36 H36           -2.9335     1.7933     6.9297 H       
  37 H37           -1.5791     0.9550     6.1351 H       
  38 H38            2.2573    -2.8838    -0.7016 H       
  39 H39            0.6721    -6.6050     0.6906 H       
  40 H40            6.0934    -4.2954    -0.2665 H       
  41 H41            5.8150    -4.7309     1.4372 H       
  42 H42            8.2195    -4.9342     0.8173 H       
  43 H43            7.5240    -6.5075     1.2763 H       
  44 H44            7.2145    -7.6754    -2.1813 H       
  45 H45            6.9362    -8.1109    -0.4776 H       
  46 H46            4.8101    -7.4720    -1.5614 H       
  47 H47            5.5056    -5.8988    -2.0204 H       
  48 H48            9.9530    -5.9425    -0.6950 H       
  49 H49            9.3835    -7.4356     0.0889 H       
  50 H50           10.5359    -7.9365    -2.0488 H       
  51 H51            8.8151    -8.3841    -2.1305 H       
  52 H52            9.3846    -6.8910    -2.9145 H       
@<TRIPOS>BOND
   1    1    2 1
   2    1    8 2
   3    1    9 am
   4    2    3 ar
   5    2    7 ar
   6    3    4 ar
   7    3   15 1
   8    4    5 ar
   9    4   32 1
  10    5    6 ar
  11    5   16 1
  12    6    7 ar
  13    6   14 1
  14    7   33 1
  15    9   10 am
  16    9   34 1
  17   10   11 2
  18   10   12 2
  19   10   13 1
  20   13   35 1
  21   13   36 1
  22   13   37 1
  23   16   18 1
  24   17   18 ar
  25   17   22 ar
  26   17   38 1
  27   18   19 ar
  28   19   20 ar
  29   19   39 1
  30   20   21 ar
  31   20   31 1
  32   21   22 ar
  33   21   23 1
  34   23   24 1
  35   23   28 1
  36   24   25 1
  37   24   40 1
  38   24   41 1
  39   25   26 1
  40   25   42 1
  41   25   43 1
  42   26   27 1
  43   26   29 1
  44   27   28 1
  45   27   44 1
  46   27   45 1
  47   28   46 1
  48   28   47 1
  49   29   30 1
  50   29   48 1
  51   29   49 1
  52   30   50 1
  53   30   51 1
  54   30   52 1

#	End of record

