#	Name: ASD10410264
#	Creating user name:	WinNT
#	Creation time:	15. 06. 2019 21:27

#	Modifying user name:	WinNT
#	Modification time:	15. 06. 2019 21:27

#	Program:	/corina/corina34_cracker 3.40 0067  02.08.2006

@<TRIPOS>MOLECULE
ASD10410264
  61   66    0    0    0
SMALL
NO_CHARGES


@<TRIPOS>ATOM
   1 C1             0.0342     1.3606     0.5541 C.ar    
   2 C2            -0.0381     0.0663     0.0580 C.ar    
   3 C3             1.0970    -0.5418    -0.4652 C.ar    
   4 C4             2.2968     0.1422    -0.4912 C.ar    
   5 C5             2.3683     1.4375     0.0055 C.ar    
   6 C6             1.2341     2.0444     0.5280 C.ar    
   7 Cl7            1.0070    -2.1608    -1.0852 Cl      
   8 N8             3.5845     2.1311    -0.0208 N.pl3   
   9 C9             3.5929     3.5188    -0.1590 C.2     
  10 N10            4.6558     4.2832    -0.0881 N.2     
  11 N11            2.5181     4.2817    -0.3910 N.2     
  12 C12            2.8783     5.5449    -0.4659 C.2     
  13 N13            4.2243     5.6055    -0.2810 N.pl3   
  14 C14            5.0166     6.7508    -0.2821 C.ar    
  15 N15            2.0393     6.6181    -0.6954 N.pl3   
  16 N16            4.4455     7.9288    -0.4799 N.ar    
  17 N17            6.3203     6.6324    -0.0798 N.ar    
  18 C18            7.0963     7.7076    -0.0762 C.ar    
  19 C19            6.5276     8.9624    -0.3088 C.ar    
  20 C20            5.1623     9.0433    -0.4999 C.ar    
  21 N21           -1.2546    -0.6270     0.0850 N.3     
  22 C22           -1.7588    -0.8591    -1.2757 C.3     
  23 C23           -3.0448    -1.6861    -1.2062 C.3     
  24 N24           -4.0398    -0.9725    -0.3936 N.3     
  25 C25           -3.5356    -0.7404     0.9671 C.3     
  26 C26           -2.2496     0.0866     0.8976 C.3     
  27 C27           -5.3158    -1.6997    -0.3653 C.3     
  28 C28            8.5559     7.6154     0.1522 C.ar    
  29 C29            9.2665     8.7698     0.4777 C.ar    
  30 C30            8.5460    10.0828     0.6278 C.3     
  31 C31            7.3954    10.1871    -0.3693 C.3     
  32 C32            9.2186     6.3962     0.0434 C.ar    
  33 C33           10.5830     6.3380     0.2470 C.ar    
  34 C34           11.2874     7.4879     0.5564 C.ar    
  35 C35           10.6316     8.7003     0.6710 C.ar    
  36 H36           -0.8488     1.8347     0.9565 H       
  37 H37            3.1791    -0.3300    -0.8973 H       
  38 H38            1.2901     3.0515     0.9141 H       
  39 H39            4.4211     1.6464     0.0572 H       
  40 H40            1.0882     6.4725    -0.8181 H       
  41 H41            2.4013     7.5172    -0.7338 H       
  42 H42            4.6871     9.9987    -0.6669 H       
  43 H43           -1.9672     0.0977    -1.7545 H       
  44 H44           -1.0095    -1.3999    -1.8539 H       
  45 H45           -3.4363    -1.8349    -2.2126 H       
  46 H46           -2.8308    -2.6537    -0.7522 H       
  47 H47           -4.2849    -0.1996     1.5452 H       
  48 H48           -3.3272    -1.6972     1.4458 H       
  49 H49           -1.8581     0.2354     1.9039 H       
  50 H50           -2.4636     1.0542     0.4435 H       
  51 H51           -5.1602    -2.6900     0.0628 H       
  52 H52           -6.0340    -1.1497     0.2428 H       
  53 H53           -5.7000    -1.7990    -1.3805 H       
  54 H54            8.1510    10.1613     1.6407 H       
  55 H55            9.2472    10.8987     0.4529 H       
  56 H56            7.8008    10.2904    -1.3758 H       
  57 H57            6.7942    11.0651    -0.1332 H       
  58 H58            8.6678     5.4994    -0.1990 H       
  59 H59           11.1008     5.3938     0.1650 H       
  60 H60           12.3554     7.4385     0.7091 H       
  61 H61           11.1883     9.5939     0.9116 H       
@<TRIPOS>BOND
   1    1    2 ar
   2    1    6 ar
   3    1   36 1
   4    2    3 ar
   5    2   21 1
   6    3    4 ar
   7    3    7 1
   8    4    5 ar
   9    4   37 1
  10    5    6 ar
  11    5    8 1
  12    6   38 1
  13    8    9 1
  14    8   39 1
  15    9   10 2
  16    9   11 1
  17   10   13 1
  18   11   12 2
  19   12   13 1
  20   12   15 1
  21   13   14 1
  22   14   16 ar
  23   14   17 ar
  24   15   40 1
  25   15   41 1
  26   16   20 ar
  27   17   18 ar
  28   18   19 ar
  29   18   28 1
  30   19   20 ar
  31   19   31 1
  32   20   42 1
  33   21   22 1
  34   21   26 1
  35   22   23 1
  36   22   43 1
  37   22   44 1
  38   23   24 1
  39   23   45 1
  40   23   46 1
  41   24   25 1
  42   24   27 1
  43   25   26 1
  44   25   47 1
  45   25   48 1
  46   26   49 1
  47   26   50 1
  48   27   51 1
  49   27   52 1
  50   27   53 1
  51   28   29 ar
  52   28   32 ar
  53   29   30 1
  54   29   35 ar
  55   30   31 1
  56   30   54 1
  57   30   55 1
  58   31   56 1
  59   31   57 1
  60   32   33 ar
  61   32   58 1
  62   33   34 ar
  63   33   59 1
  64   34   35 ar
  65   34   60 1
  66   35   61 1

#	End of record

