#	Name: ASD10420139
#	Creating user name:	WinNT
#	Creation time:	15. 06. 2019 21:27

#	Modifying user name:	WinNT
#	Modification time:	15. 06. 2019 21:27

#	Program:	/corina/corina34_cracker 3.40 0067  02.08.2006

@<TRIPOS>MOLECULE
ASD10420139
  30   31    0    0    0
SMALL
NO_CHARGES


@<TRIPOS>ATOM
   1 Cl1           -1.5638    -1.0871     0.0661 Cl      
   2 Cl2            3.8143    -0.7218     0.5894 Cl      
   3 C3            -0.2725     1.1599     0.8472 C.ar    
   4 N4             1.2389    -2.0790    -0.0205 N.pl3   
   5 O5            -0.5948    -4.8978    -0.7088 O.2     
   6 C6            -0.1488    -0.1599     0.4557 C.ar    
   7 O7             0.4147    -6.2981     0.6708 O.3     
   8 C8             1.1098    -0.7438     0.3748 C.ar    
   9 C9             2.2396     0.0024     0.6881 C.ar    
  10 C10            2.1079     1.3216     1.0788 C.ar    
  11 C11            0.8540     1.8992     1.1582 C.ar    
  12 C12            1.5109    -3.7144    -1.7748 C.ar    
  13 C13            1.2642    -2.4062    -1.3784 C.ar    
  14 C14            1.0421    -1.4237    -2.3356 C.ar    
  15 C15            1.0673    -1.7506    -3.6769 C.ar    
  16 C16            1.3133    -3.0543    -4.0680 C.ar    
  17 C17            1.5347    -4.0344    -3.1182 C.ar    
  18 C18            1.7584    -4.7822    -0.7405 C.3     
  19 C19            0.4398    -5.3300    -0.2586 C.2     
  20 H20           -1.2499     1.6157     0.9060 H       
  21 H21            1.3110    -2.7780     0.6482 H       
  22 H22           -0.4547    -6.6177     0.9485 H       
  23 H23            2.9855     1.9021     1.3225 H       
  24 H24            0.7543     2.9303     1.4635 H       
  25 H25            0.8496    -0.4056    -2.0308 H       
  26 H26            0.8944    -0.9876    -4.4214 H       
  27 H27            1.3321    -3.3074    -5.1178 H       
  28 H28            1.7264    -5.0514    -3.4271 H       
  29 H29            2.3464    -5.5866    -1.1823 H       
  30 H30            2.3031    -4.3537     0.1008 H       
@<TRIPOS>BOND
   1    1    6 1
   2    2    9 1
   3    3    6 ar
   4    3   11 ar
   5    3   20 1
   6    4    8 1
   7    4   13 1
   8    4   21 1
   9    5   19 2
  10    6    8 ar
  11    7   19 1
  12    7   22 1
  13    8    9 ar
  14    9   10 ar
  15   10   11 ar
  16   10   23 1
  17   11   24 1
  18   12   13 ar
  19   12   17 ar
  20   12   18 1
  21   13   14 ar
  22   14   15 ar
  23   14   25 1
  24   15   16 ar
  25   15   26 1
  26   16   17 ar
  27   16   27 1
  28   17   28 1
  29   18   19 1
  30   18   29 1
  31   18   30 1

#	End of record

