#	Name: ASD10690002
#	Creating user name:	WinNT
#	Creation time:	15. 06. 2019 21:28

#	Modifying user name:	WinNT
#	Modification time:	15. 06. 2019 21:28

#	Program:	/corina/corina34_cracker 3.40 0067  02.08.2006

@<TRIPOS>MOLECULE
ASD10690002
  26   28    0    0    0
SMALL
NO_CHARGES


@<TRIPOS>ATOM
   1 C1            -0.0171     1.4110     0.0098 C.ar    
   2 C2             0.0021    -0.0041     0.0020 C.ar    
   3 C3             1.1824    -0.6783    -0.0125 C.ar    
   4 C4             2.3914     0.0083    -0.0203 C.ar    
   5 C5             2.4050     1.3839    -0.0135 C.ar    
   6 C6             1.2032     2.0985     0.0018 C.ar    
   7 S7             0.9035     3.8327     0.0136 S.3     
   8 C8            -0.8334     3.5837     0.0292 C.2     
   9 C9            -1.1238     2.2769     0.0193 C.2     
  10 Cl10          -2.7580     1.6911     0.0300 Cl      
  11 C11           -1.8307     4.6601     0.0451 C.2     
  12 N12           -1.4325     5.9477     0.0480 N.am    
  13 O13           -3.0171     4.3902     0.0556 O.2     
  14 C14           -2.3794     6.9698     0.0631 C.2     
  15 N15           -3.6734     6.8113     0.0758 N.2     
  16 O16           -4.2688     8.0967     0.0891 O.3     
  17 N17           -3.2240     9.0533     0.0834 N.2     
  18 C18           -2.0907     8.4077     0.0739 C.2     
  19 N19           -0.8253     8.9842     0.0658 N.pl3   
  20 Cl20           3.8873    -0.8724    -0.0383 Cl      
  21 H21           -0.9283    -0.5526     0.0080 H       
  22 H22            1.1809    -1.7583    -0.0176 H       
  23 H23            3.3463     1.9132    -0.0193 H       
  24 H24           -0.4867     6.1628     0.0396 H       
  25 H25           -0.7322     9.9498     0.0667 H       
  26 H26           -0.0357     8.4209     0.0593 H       
@<TRIPOS>BOND
   1    1    2 ar
   2    1    6 ar
   3    1    9 1
   4    2    3 ar
   5    2   21 1
   6    3    4 ar
   7    3   22 1
   8    4    5 ar
   9    4   20 1
  10    5    6 ar
  11    5   23 1
  12    6    7 1
  13    7    8 1
  14    8    9 2
  15    8   11 1
  16    9   10 1
  17   11   12 am
  18   11   13 2
  19   12   14 1
  20   12   24 1
  21   14   15 2
  22   14   18 1
  23   15   16 1
  24   16   17 1
  25   17   18 2
  26   18   19 1
  27   19   25 1
  28   19   26 1

#	End of record

