#	Name: ASD10410064
#	Creating user name:	WinNT
#	Creation time:	15. 06. 2019 21:26

#	Modifying user name:	WinNT
#	Modification time:	15. 06. 2019 21:26

#	Program:	/corina/corina34_cracker 3.40 0067  02.08.2006

@<TRIPOS>MOLECULE
ASD10410064
  53   56    0    0    0
SMALL
NO_CHARGES


@<TRIPOS>ATOM
   1 C1            -0.0135     1.8247     0.0509 C.ar    
   2 C2             0.0186     0.4382     0.0254 C.ar    
   3 C3             1.2348    -0.2286     0.0372 C.ar    
   4 C4             2.4150     0.4875     0.0743 C.ar    
   5 C5             2.3839     1.8757     0.0994 C.ar    
   6 C6             1.1657     2.5425     0.0876 C.ar    
   7 O7            -1.1432    -0.2678    -0.0107 O.3     
   8 N8             3.5797     2.6024     0.1375 N.pl3   
   9 C9             3.6517     3.8591    -0.4637 C.2     
  10 N10            4.6831     4.6678    -0.4167 N.2     
  11 N11            2.6815     4.4313    -1.1863 N.2     
  12 C12            3.0794     5.6138    -1.6044 C.2     
  13 N13            4.3373     5.8159    -1.1474 N.pl3   
  14 C14            5.1342     6.9441    -1.3606 C.ar    
  15 N15            2.3442     6.4926    -2.3772 N.pl3   
  16 C16            6.0079     7.3984    -0.3748 C.ar    
  17 C17            5.0796     7.6403    -2.5670 C.ar    
  18 C18            6.7786     8.5169    -0.6249 C.ar    
  19 N19            6.6938     9.1523    -1.7795 N.ar    
  20 C20            5.8825     8.7489    -2.7390 C.ar    
  21 C21           -1.0360    -1.6925    -0.0355 C.3     
  22 C22           -2.4359    -2.3087    -0.0746 C.3     
  23 N23           -3.1134    -1.9065    -1.3144 N.3     
  24 C24           -4.4260    -2.5546    -1.4308 C.3     
  25 C25           -5.1617    -2.0036    -2.6544 C.3     
  26 C26           -4.3264    -2.2713    -3.9095 C.3     
  27 C27           -2.9475    -1.6269    -3.7423 C.3     
  28 C28           -2.2760    -2.1889    -2.4872 C.3     
  29 Cl29           7.8718     9.0949     0.5936 Cl      
  30 H30           -0.9608     2.3432     0.0376 H       
  31 H31            1.2588    -1.3081     0.0176 H       
  32 H32            3.3619    -0.0318     0.0842 H       
  33 H33            1.1406     3.6220     0.1068 H       
  34 H34            4.3583     2.2322     0.5821 H       
  35 H35            1.4469     6.2561    -2.6598 H       
  36 H36            2.7255     7.3458    -2.6370 H       
  37 H37            6.0811     6.8834     0.5717 H       
  38 H38            4.4180     7.3159    -3.3566 H       
  39 H39            5.8428     9.2966    -3.6689 H       
  40 H40           -0.4790    -1.9996    -0.9207 H       
  41 H41           -0.5139    -2.0332     0.8586 H       
  42 H42           -2.3557    -3.3952    -0.0404 H       
  43 H43           -3.0106    -1.9596     0.7832 H       
  44 H44           -4.2913    -3.6305    -1.5421 H       
  45 H45           -5.0115    -2.3528    -0.5338 H       
  46 H46           -6.1295    -2.4960    -2.7495 H       
  47 H47           -5.3090    -0.9299    -2.5375 H       
  48 H48           -4.2117    -3.3463    -4.0482 H       
  49 H49           -4.8261    -1.8422    -4.7780 H       
  50 H50           -2.3333    -1.8503    -4.6147 H       
  51 H51           -3.0600    -0.5474    -3.6426 H       
  52 H52           -1.2998    -1.7216    -2.3574 H       
  53 H53           -2.1513    -3.2665    -2.5935 H       
@<TRIPOS>BOND
   1    1    2 ar
   2    1    6 ar
   3    1   30 1
   4    2    3 ar
   5    2    7 1
   6    3    4 ar
   7    3   31 1
   8    4    5 ar
   9    4   32 1
  10    5    6 ar
  11    5    8 1
  12    6   33 1
  13    7   21 1
  14    8    9 1
  15    8   34 1
  16    9   10 2
  17    9   11 1
  18   10   13 1
  19   11   12 2
  20   12   13 1
  21   12   15 1
  22   13   14 1
  23   14   16 ar
  24   14   17 ar
  25   15   35 1
  26   15   36 1
  27   16   18 ar
  28   16   37 1
  29   17   20 ar
  30   17   38 1
  31   18   19 ar
  32   18   29 1
  33   19   20 ar
  34   20   39 1
  35   21   22 1
  36   21   40 1
  37   21   41 1
  38   22   23 1
  39   22   42 1
  40   22   43 1
  41   23   24 1
  42   23   28 1
  43   24   25 1
  44   24   44 1
  45   24   45 1
  46   25   26 1
  47   25   46 1
  48   25   47 1
  49   26   27 1
  50   26   48 1
  51   26   49 1
  52   27   28 1
  53   27   50 1
  54   27   51 1
  55   28   52 1
  56   28   53 1

#	End of record

