#	Name: ASD10800056
#	Creating user name:	WinNT
#	Creation time:	15. 06. 2019 21:28

#	Modifying user name:	WinNT
#	Modification time:	15. 06. 2019 21:28

#	Program:	/corina/corina34_cracker 3.40 0067  02.08.2006

@<TRIPOS>MOLECULE
ASD10800056
  54   57    0    0    0
SMALL
NO_CHARGES


@<TRIPOS>ATOM
   1 C1            -0.0168     1.3891     0.0097 C.ar    
   2 C2             0.0021    -0.0041     0.0020 C.ar    
   3 C3             1.1887    -0.7007    -0.0415 C.ar    
   4 C4             2.3744     0.0056    -0.0798 C.ar    
   5 C5             2.3576     1.3822    -0.0587 C.ar    
   6 C6             1.1573     2.1014     0.0023 C.ar    
   7 C7             3.6768     2.1116    -0.1047 C.3     
   8 C8             4.1240     2.4471     1.3195 C.3     
   9 N9             4.6831     1.2609    -0.7449 N.2     
  10 C10            5.2802     1.6628    -1.8326 C.2     
  11 S11            4.9860     3.2008    -2.6509 S.3     
  12 C12            6.1830     2.9386    -3.9963 C.3     
  13 C13            6.7875     1.5606    -3.7045 C.3     
  14 N14            6.2304     0.9664    -2.5107 N.pl3   
  15 C15            5.3777     3.2817     1.2689 C.ar    
  16 C16            5.2885     4.6597     1.2196 C.ar    
  17 C17            6.4408     5.4264     1.1731 C.ar    
  18 C18            7.6809     4.8111     1.1760 C.ar    
  19 C19            7.7677     3.4325     1.2253 C.ar    
  20 C20            6.6170     2.6685     1.2774 C.ar    
  21 F21            6.3547     6.7738     1.1244 F       
  22 C22            1.3350     3.6008     0.0922 C.3     
  23 C23           -1.3884     2.0079    -0.0075 C.3     
  24 C24            0.0770     4.4733     0.1750 C.3     
  25 C25           -0.6223     4.5349    -1.1798 C.3     
  26 C26           -0.5802     3.2770    -2.0290 C.3     
  27 C27           -1.7281     2.4814    -1.4201 C.3     
  28 H28           -0.9352    -0.5411     0.0322 H       
  29 H29            1.1934    -1.7807    -0.0450 H       
  30 H30            3.3166    -0.5210    -0.1266 H       
  31 H31            3.5629     3.0328    -0.6763 H       
  32 H32            3.3363     3.0051     1.8257 H       
  33 H33            4.3235     1.5245     1.8645 H       
  34 H34            5.6766     2.9357    -4.9615 H       
  35 H35            6.9563     3.7064    -3.9731 H       
  36 H36            6.5978     0.9034    -4.5531 H       
  37 H37            7.8646     1.6662    -3.5748 H       
  38 H38            6.5216     0.0929    -2.2056 H       
  39 H39            4.3205     5.1387     1.2170 H       
  40 H40            8.5802     5.4081     1.1394 H       
  41 H41            8.7350     2.9523     1.2276 H       
  42 H42            6.6857     1.5914     1.3163 H       
  43 H43            1.9306     3.8177     0.9785 H       
  44 H44            1.8886     3.9300    -0.7870 H       
  45 H45           -2.1161     1.2280     0.2758 H       
  46 H46           -1.4779     2.8064     0.7119 H       
  47 H47           -0.5829     4.1267     0.9516 H       
  48 H48            0.3965     5.4938     0.4346 H       
  49 H49           -1.6669     4.7984    -1.0064 H       
  50 H50           -0.1690     5.3473    -1.7521 H       
  51 H51           -0.7885     3.5134    -3.0798 H       
  52 H52            0.3697     2.7565    -1.9502 H       
  53 H53           -1.9343     1.6110    -2.0503 H       
  54 H54           -2.6253     3.1038    -1.3882 H       
@<TRIPOS>BOND
   1    1    2 ar
   2    1    6 ar
   3    1   23 1
   4    2    3 ar
   5    2   28 1
   6    3    4 ar
   7    3   29 1
   8    4    5 ar
   9    4   30 1
  10    5    6 ar
  11    5    7 1
  12    6   22 1
  13    7    8 1
  14    7    9 1
  15    7   31 1
  16    8   15 1
  17    8   32 1
  18    8   33 1
  19    9   10 2
  20   10   11 1
  21   10   14 1
  22   11   12 1
  23   12   13 1
  24   12   34 1
  25   12   35 1
  26   13   14 1
  27   13   36 1
  28   13   37 1
  29   14   38 1
  30   15   16 ar
  31   15   20 ar
  32   16   17 ar
  33   16   39 1
  34   17   18 ar
  35   17   21 1
  36   18   19 ar
  37   18   40 1
  38   19   20 ar
  39   19   41 1
  40   20   42 1
  41   22   24 1
  42   22   43 1
  43   22   44 1
  44   23   27 1
  45   23   45 1
  46   23   46 1
  47   24   25 1
  48   24   47 1
  49   24   48 1
  50   25   26 1
  51   25   49 1
  52   25   50 1
  53   26   27 1
  54   26   51 1
  55   26   52 1
  56   27   53 1
  57   27   54 1

#	End of record

