#	Name: ASD10410136
#	Creating user name:	WinNT
#	Creation time:	15. 06. 2019 21:26

#	Modifying user name:	WinNT
#	Modification time:	15. 06. 2019 21:26

#	Program:	/corina/corina34_cracker 3.40 0067  02.08.2006

@<TRIPOS>MOLECULE
ASD10410136
  67   73    0    0    0
SMALL
NO_CHARGES


@<TRIPOS>ATOM
   1 C1            -0.0184     1.3930    -0.0794 C.ar    
   2 C2            -0.0058     0.0095     0.0246 C.ar    
   3 C3             1.2046    -0.6700     0.1137 C.ar    
   4 C4             2.3940     0.0337     0.0987 C.ar    
   5 C5             2.3796     1.4189    -0.0054 C.ar    
   6 C6             1.1710     2.0961    -0.0944 C.ar    
   7 F7             1.2176    -2.0171     0.2154 F       
   8 N8             3.5845     2.1323    -0.0202 N.pl3   
   9 C9             3.6696     3.3428    -0.7072 C.2     
  10 N10            4.7071     4.1448    -0.7084 N.2     
  11 N11            2.7077     3.8683    -1.4749 N.2     
  12 C12            3.1148     5.0162    -1.9729 C.2     
  13 N13            4.3768     5.2423    -1.5198 N.pl3   
  14 C14            5.1817     6.3431    -1.8042 C.ar    
  15 N15            2.3903     5.8428    -2.8098 N.pl3   
  16 N16           -1.2123    -0.7032     0.0402 N.3     
  17 C17           -2.0510    -0.2939     1.1754 C.3     
  18 C18           -3.3884    -1.0354     1.1115 C.3     
  19 N19           -3.1440    -2.4842     1.1364 N.3     
  20 C20           -2.3053    -2.8935     0.0012 C.3     
  21 C21           -0.9679    -2.1521     0.0651 C.3     
  22 N22            4.7411     7.3152    -2.5925 N.ar    
  23 C23            5.5002     8.3610    -2.8654 C.ar    
  24 N24            6.7102     8.4987    -2.3840 N.ar    
  25 C25            7.2493     7.5627    -1.5715 C.ar    
  26 C26            6.4692     6.4451    -1.2574 C.ar    
  27 C27           -4.4088    -3.2313     1.1527 C.3     
  28 C28           -4.1366    -4.7633     1.0516 C.3     
  29 C29           -5.1240    -3.0503     2.5111 C.3     
  30 C30           -5.2166    -4.4899     3.1028 C.3     
  31 C31           -5.5457    -5.3972     0.8427 C.3     
  32 C32           -6.2610    -5.2162     2.2011 C.3     
  33 C33           -3.8820    -5.1129     2.5604 C.3     
  34 C34            8.5123     7.5244    -0.9599 C.2     
  35 C35            8.7565     6.4621    -0.2091 C.2     
  36 S36            7.3760     5.3774    -0.1962 S.3     
  37 C37            9.5264     8.6233    -1.1469 C.3     
  38 H38           -0.9581     1.9202    -0.1531 H       
  39 H39            3.3342    -0.4931     0.1683 H       
  40 H40            1.1604     3.1730    -0.1753 H       
  41 H41            4.3598     1.7844     0.4474 H       
  42 H42            1.4932     5.5927    -3.0809 H       
  43 H43            2.7788     6.6733    -3.1265 H       
  44 H44           -1.5440    -0.5382     2.1088 H       
  45 H45           -2.2283     0.7805     1.1278 H       
  46 H46           -4.0009    -0.7551     1.9685 H       
  47 H47           -3.9078    -0.7699     0.1906 H       
  48 H48           -2.1280    -3.9679     0.0487 H       
  49 H49           -2.8123    -2.6492    -0.9323 H       
  50 H50           -0.3554    -2.4323    -0.7919 H       
  51 H51           -0.4486    -2.4175     0.9859 H       
  52 H52            5.1077     9.1327    -3.5110 H       
  53 H53           -5.0525    -2.9050     0.3359 H       
  54 H54           -3.3682    -5.0647     0.3397 H       
  55 H55           -4.5372    -2.4070     3.1668 H       
  56 H56           -6.1211    -2.6354     2.3632 H       
  57 H57           -5.3888    -4.5533     4.1772 H       
  58 H58           -6.0861    -4.8712     0.0556 H       
  59 H59           -5.4540    -6.4558     0.5997 H       
  60 H60           -6.5208    -6.1858     2.6258 H       
  61 H61           -7.1530    -4.6012     2.0818 H       
  62 H62           -3.8352    -6.1888     2.7284 H       
  63 H63           -3.0030    -4.6035     2.9553 H       
  64 H64            9.6788     6.2875     0.3250 H       
  65 H65            9.3895     9.3794    -0.3738 H       
  66 H66           10.5310     8.2069    -1.0741 H       
  67 H67            9.3920     9.0786    -2.1281 H       
@<TRIPOS>BOND
   1    1    2 ar
   2    1    6 ar
   3    1   38 1
   4    2    3 ar
   5    2   16 1
   6    3    4 ar
   7    3    7 1
   8    4    5 ar
   9    4   39 1
  10    5    6 ar
  11    5    8 1
  12    6   40 1
  13    8    9 1
  14    8   41 1
  15    9   10 2
  16    9   11 1
  17   10   13 1
  18   11   12 2
  19   12   13 1
  20   12   15 1
  21   13   14 1
  22   14   22 ar
  23   14   26 ar
  24   15   42 1
  25   15   43 1
  26   16   17 1
  27   16   21 1
  28   17   18 1
  29   17   44 1
  30   17   45 1
  31   18   19 1
  32   18   46 1
  33   18   47 1
  34   19   20 1
  35   19   27 1
  36   20   21 1
  37   20   48 1
  38   20   49 1
  39   21   50 1
  40   21   51 1
  41   22   23 ar
  42   23   24 ar
  43   23   52 1
  44   24   25 ar
  45   25   26 ar
  46   25   34 1
  47   26   36 1
  48   27   28 1
  49   27   29 1
  50   27   53 1
  51   28   31 1
  52   28   33 1
  53   28   54 1
  54   29   30 1
  55   29   55 1
  56   29   56 1
  57   30   32 1
  58   30   33 1
  59   30   57 1
  60   31   32 1
  61   31   58 1
  62   31   59 1
  63   32   60 1
  64   32   61 1
  65   33   62 1
  66   33   63 1
  67   34   35 2
  68   34   37 1
  69   35   36 1
  70   35   64 1
  71   37   65 1
  72   37   66 1
  73   37   67 1

#	End of record

