#	Name: ASD13110018
#	Creating user name:	WinNT
#	Creation time:	15. 06. 2019 21:30

#	Modifying user name:	WinNT
#	Modification time:	15. 06. 2019 21:30

#	Program:	/corina/corina34_cracker 3.40 0067  02.08.2006

@<TRIPOS>MOLECULE
ASD13110018
  52   55    0    0    0
SMALL
NO_CHARGES


@<TRIPOS>ATOM
   1 C1            -0.0187     1.5258     0.0104 C.3     
   2 C2             0.0021    -0.0041     0.0020 C.3     
   3 H3             0.5124    -0.3550    -0.8950 H       
   4 N4            -1.3744    -0.5110     0.0104 N.am    
   5 C5            -2.1091    -0.4497     1.2849 C.3     
   6 C6            -1.3992    -1.3659     2.2804 C.3     
   7 C7             0.0867    -1.1205     2.2692 C.ar    
   8 C8             0.8179    -1.5453     3.3716 C.ar    
   9 C9             2.1840    -1.3600     3.4214 C.ar    
  10 C10            2.8335    -0.7469     2.3666 C.ar    
  11 C11            2.1093    -0.3201     1.2723 C.ar    
  12 C12            0.7334    -0.5028     1.2230 C.ar    
  13 C13            0.1125    -2.2149     4.5227 C.3     
  14 H14           -0.7118    -2.8182     4.1424 H       
  15 O15            1.0335    -3.0538     5.2227 O.3     
  16 C16           -0.4328    -1.1495     5.4759 C.3     
  17 F17           -1.0876    -1.7710     6.5446 F       
  18 F18            0.6251    -0.3751     5.9641 F       
  19 C19           -1.9437    -1.0122    -1.1036 C.2     
  20 O20           -1.3161    -1.0507    -2.1407 O.2     
  21 C21           -3.3602    -1.5249    -1.0606 C.3     
  22 C22           -3.7544    -2.0268    -2.4258 C.ar    
  23 C23           -4.3233    -1.1846    -3.3259 C.ar    
  24 Cl24          -4.5885     0.4729    -2.8829 Cl      
  25 C25           -4.7007    -1.6175    -4.6001 C.ar    
  26 C26           -4.5185    -2.8999    -5.0024 C.ar    
  27 C27           -3.9323    -3.8315    -4.1186 C.ar    
  28 N28           -3.6238    -5.1136    -4.1922 N.2     
  29 N29           -3.0507    -5.5145    -2.9800 N.pl3   
  30 C30           -2.5792    -6.8688    -2.6801 C.3     
  31 C31           -2.9971    -4.4763    -2.1338 C.2     
  32 Cl32          -2.3653    -4.5071    -0.5171 Cl      
  33 C33           -3.5295    -3.3740    -2.7797 C.ar    
  34 H34            1.0039     1.9031     0.0027 H       
  35 H35           -0.5459     1.8868    -0.8726 H       
  36 H36           -0.5289     1.8773     0.9072 H       
  37 H37           -2.1103     0.5734     1.6611 H       
  38 H38           -3.1340    -0.7899     1.1365 H       
  39 H39           -1.7864    -1.1760     3.2815 H       
  40 H40           -1.5930    -2.4046     2.0129 H       
  41 H41            2.7444    -1.6929     4.2826 H       
  42 H42            3.9033    -0.6022     2.3989 H       
  43 H43            2.6163     0.1595     0.4480 H       
  44 H44            1.7942    -2.5827     5.5893 H       
  45 H45           -1.1353    -0.5095     4.9420 H       
  46 H46           -3.4300    -2.3395    -0.3399 H       
  47 H47           -4.0298    -0.7180    -0.7629 H       
  48 H48           -5.1499    -0.9116    -5.2830 H       
  49 H49           -4.8205    -3.2065    -5.9930 H       
  50 H50           -1.5312    -6.9601    -2.9654 H       
  51 H51           -2.6832    -7.0616    -1.6124 H       
  52 H52           -3.1724    -7.5922    -3.2395 H       
@<TRIPOS>BOND
   1    1    2 1
   2    1   34 1
   3    1   35 1
   4    1   36 1
   5    2    3 1
   6    2   12 1
   7    2    4 1
   8    4    5 1
   9    4   19 am
  10    5    6 1
  11    5   37 1
  12    5   38 1
  13    6    7 1
  14    6   39 1
  15    6   40 1
  16    7   12 ar
  17    7    8 ar
  18    8    9 ar
  19    8   13 1
  20    9   10 ar
  21    9   41 1
  22   10   11 ar
  23   10   42 1
  24   11   12 ar
  25   11   43 1
  26   13   14 1
  27   13   15 1
  28   13   16 1
  29   15   44 1
  30   16   17 1
  31   16   18 1
  32   16   45 1
  33   19   20 2
  34   19   21 1
  35   21   22 1
  36   21   46 1
  37   21   47 1
  38   22   33 ar
  39   22   23 ar
  40   23   24 1
  41   23   25 ar
  42   25   26 ar
  43   25   48 1
  44   26   27 ar
  45   26   49 1
  46   27   33 ar
  47   27   28 2
  48   28   29 1
  49   29   30 1
  50   29   31 1
  51   30   50 1
  52   30   51 1
  53   30   52 1
  54   31   32 1
  55   31   33 2

#	End of record

