#	Name: ASD13500003
#	Creating user name:	WinNT
#	Creation time:	15. 06. 2019 21:30

#	Modifying user name:	WinNT
#	Modification time:	15. 06. 2019 21:30

#	Program:	/corina/corina34_cracker 3.40 0067  02.08.2006

@<TRIPOS>MOLECULE
ASD13500003
  37   39    0    0    0
SMALL
NO_CHARGES


@<TRIPOS>ATOM
   1 C1            -0.2025     1.9523    -0.3808 C.ar    
   2 C2            -0.3331     0.5771    -0.4325 C.ar    
   3 C3             0.7855    -0.2315    -0.3485 C.ar    
   4 C4             2.0410     0.3305    -0.2129 C.ar    
   5 C5             2.1814     1.7096    -0.1606 C.ar    
   6 C6             1.0531     2.5249    -0.2448 C.ar    
   7 N7             1.1878     3.9189    -0.1922 N.am    
   8 N8             3.4510     2.2807    -0.0229 N.am    
   9 C9             0.1681     4.6781     0.2554 C.2     
  10 O10           -0.8917     4.1623     0.5419 O.2     
  11 S11            4.7585     1.5799    -0.7589 S.o2    
  12 O12            5.8526     2.4647    -0.5605 O.2     
  13 O13            4.7725     0.2212    -0.3431 O.2     
  14 C14            4.4370     1.5668    -2.4912 C.ar    
  15 C15            3.5315     0.4696    -4.4205 C.ar    
  16 C16            3.7876     0.4870    -3.0629 C.ar    
  17 C17            4.8294     2.6374    -3.2715 C.ar    
  18 C18            3.9269     1.5374    -5.2103 C.ar    
  19 N19            3.8164     1.8134    -6.5728 N.am    
  20 C20            4.5769     2.6289    -4.6340 C.ar    
  21 O21            4.8373     3.5130    -5.6280 O.3     
  22 C22            4.3790     3.0189    -6.7889 C.2     
  23 O23            4.4596     3.5728    -7.8683 O.2     
  24 C24            0.3446     6.1677     0.3998 C.3     
  25 H25           -1.0779     2.5808    -0.4508 H       
  26 H26           -1.3118     0.1328    -0.5384 H       
  27 H27            0.6779    -1.3054    -0.3886 H       
  28 H28            2.9125    -0.3040    -0.1472 H       
  29 H29            2.0150     4.3374    -0.4778 H       
  30 H30            3.5655     3.0873     0.5037 H       
  31 H31            3.0248    -0.3742    -4.8651 H       
  32 H32            3.4804    -0.3447    -2.4462 H       
  33 H33            5.3320     3.4800    -2.8200 H       
  34 H34            3.4054     1.2440    -7.2420 H       
  35 H35            0.0617     6.6591    -0.5311 H       
  36 H36           -0.2879     6.5317     1.2095 H       
  37 H37            1.3876     6.3899     0.6255 H       
@<TRIPOS>BOND
   1    1    2 ar
   2    1    6 ar
   3    1   25 1
   4    2    3 ar
   5    2   26 1
   6    3    4 ar
   7    3   27 1
   8    4    5 ar
   9    4   28 1
  10    5    6 ar
  11    5    8 1
  12    6    7 1
  13    7    9 am
  14    7   29 1
  15    8   11 am
  16    8   30 1
  17    9   10 2
  18    9   24 1
  19   11   12 2
  20   11   13 2
  21   11   14 1
  22   14   17 ar
  23   14   16 ar
  24   15   16 ar
  25   15   18 ar
  26   15   31 1
  27   16   32 1
  28   17   20 ar
  29   17   33 1
  30   18   20 ar
  31   18   19 1
  32   19   22 am
  33   19   34 1
  34   20   21 1
  35   21   22 1
  36   22   23 2
  37   24   35 1
  38   24   36 1
  39   24   37 1

#	End of record

