#	Name: ASD10420062
#	Creating user name:	WinNT
#	Creation time:	15. 06. 2019 21:27

#	Modifying user name:	WinNT
#	Modification time:	15. 06. 2019 21:27

#	Program:	/corina/corina34_cracker 3.40 0067  02.08.2006

@<TRIPOS>MOLECULE
ASD10420062
  21   21    0    0    0
SMALL
NO_CHARGES


@<TRIPOS>ATOM
   1 C1            -0.0167     1.3780     0.0096 C.ar    
   2 C2             0.0021    -0.0041     0.0020 C.ar    
   3 C3             1.2213    -0.6813    -0.0132 C.ar    
   4 C4             2.4150     0.0418    -0.0207 C.ar    
   5 C5             2.3838     1.4210    -0.0130 C.ar    
   6 C6             1.1725     2.0889     0.0021 C.ar    
   7 C7             1.2491    -2.1592    -0.0210 C.2     
   8 C8             2.4093    -2.8003    -0.0355 C.2     
   9 N9             2.4371    -4.2804    -0.0432 N.pl3   
  10 O10            1.3939    -4.9091    -0.0362 O.2     
  11 O11            3.5031    -4.8694    -0.0565 O.2     
  12 C12           -1.2915    -0.7772     0.0107 C.3     
  13 F13           -1.1962     2.0366     0.0188 F       
  14 H14            3.3618    -0.4777    -0.0322 H       
  15 H15            3.3074     1.9807    -0.0185 H       
  16 H16            1.1537     3.1687     0.0080 H       
  17 H17            0.3241    -2.7167    -0.0148 H       
  18 H18            3.3343    -2.2428    -0.0416 H       
  19 H19           -1.6135    -0.9581    -1.0148 H       
  20 H20           -1.1417    -1.7303     0.5180 H       
  21 H21           -2.0548    -0.2024     0.5352 H       
@<TRIPOS>BOND
   1    1    2 ar
   2    1    6 ar
   3    1   13 1
   4    2    3 ar
   5    2   12 1
   6    3    4 ar
   7    3    7 1
   8    4    5 ar
   9    4   14 1
  10    5    6 ar
  11    5   15 1
  12    6   16 1
  13    7    8 2
  14    7   17 1
  15    8    9 1
  16    8   18 1
  17    9   10 2
  18    9   11 2
  19   12   19 1
  20   12   20 1
  21   12   21 1

#	End of record

