#	Name: ASD13680037
#	Creating user name:	WinNT
#	Creation time:	15. 06. 2019 21:30

#	Modifying user name:	WinNT
#	Modification time:	15. 06. 2019 21:30

#	Program:	/corina/corina34_cracker 3.40 0067  02.08.2006

@<TRIPOS>MOLECULE
ASD13680037
  36   39    0    0    0
SMALL
NO_CHARGES


@<TRIPOS>ATOM
   1 C1            -0.0165     1.3669     0.0096 C.ar    
   2 C2             0.0021    -0.0041     0.0020 C.ar    
   3 C3             1.2201    -0.6861    -0.0133 C.ar    
   4 C4             2.4205     0.0266    -0.0209 C.ar    
   5 C5             2.4044     1.3976    -0.0129 C.ar    
   6 C6             1.1851     2.0818     0.0019 C.ar    
   7 C7             1.2388    -2.1671    -0.0209 C.2     
   8 C8             2.3868    -2.8737    -0.0357 C.2     
   9 S9             1.9778    -4.5877    -0.0396 S.3     
  10 C10            0.2648    -4.1799    -0.0207 C.2     
  11 N11            0.1287    -2.8899    -0.0081 N.2     
  12 C12            1.1670     3.5137     0.0093 C.1     
  13 N13           -0.7756    -5.0944    -0.0146 N.pl3   
  14 N14           -0.5225    -6.3593    -0.0226 N.2     
  15 C15           -1.5096    -7.2271    -0.0168 C.2     
  16 C16           -2.9544    -6.9413    -0.0021 C.2     
  17 N17           -3.6088    -8.1150    -0.0012 N.am    
  18 C18           -2.7260    -9.1886    -0.0142 C.ar    
  19 C19           -1.4109    -8.7048    -0.0303 C.ar    
  20 C20           -2.9406   -10.5623    -0.0183 C.ar    
  21 C21           -1.8678   -11.4310    -0.0321 C.ar    
  22 C22           -0.5700   -10.9489    -0.0421 C.ar    
  23 C23           -0.3373    -9.5877    -0.0454 C.ar    
  24 O24           -3.4657    -5.8363     0.0078 O.2     
  25 N25            1.1526     4.6496     0.0152 N.1     
  26 H26           -0.9589     1.8943     0.0169 H       
  27 H27           -0.9259    -0.5565     0.0083 H       
  28 H28            3.3621    -0.5021    -0.0327 H       
  29 H29            3.3331     1.9488    -0.0181 H       
  30 H30            3.3847    -2.4606    -0.0436 H       
  31 H31           -1.6944    -4.7837    -0.0044 H       
  32 H32           -4.5749    -8.2020     0.0079 H       
  33 H33           -3.9484   -10.9504    -0.0103 H       
  34 H34           -2.0425   -12.4967    -0.0349 H       
  35 H35            0.2614   -11.6382    -0.0529 H       
  36 H36            0.6747    -9.2107    -0.0532 H       
@<TRIPOS>BOND
   1    1    2 ar
   2    1    6 ar
   3    1   26 1
   4    2    3 ar
   5    2   27 1
   6    3    4 ar
   7    3    7 1
   8    4    5 ar
   9    4   28 1
  10    5    6 ar
  11    5   29 1
  12    6   12 1
  13    7    8 2
  14    7   11 1
  15    8    9 1
  16    8   30 1
  17    9   10 1
  18   10   11 2
  19   10   13 1
  20   12   25 3
  21   13   14 1
  22   13   31 1
  23   14   15 2
  24   15   16 1
  25   15   19 1
  26   16   17 am
  27   16   24 2
  28   17   18 1
  29   17   32 1
  30   18   20 ar
  31   18   19 ar
  32   19   23 ar
  33   20   21 ar
  34   20   33 1
  35   21   22 ar
  36   21   34 1
  37   22   23 ar
  38   22   35 1
  39   23   36 1

#	End of record

