#	Name: ASD11740022
#	Creating user name:	WinNT
#	Creation time:	15. 06. 2019 21:29

#	Modifying user name:	WinNT
#	Modification time:	15. 06. 2019 21:29

#	Program:	/corina/corina34_cracker 3.40 0067  02.08.2006

@<TRIPOS>MOLECULE
ASD11740022
  54   56    0    0    0
SMALL
NO_CHARGES


@<TRIPOS>ATOM
   1 C1             0.4372     1.5832    -0.1237 C.3     
   2 C2             1.9541     3.7110     2.4251 C.ar    
   3 C3             1.6194     4.0558     3.7183 C.ar    
   4 C4             0.6864     5.0520     3.9601 C.ar    
   5 C5             0.0827     5.7096     2.9110 C.ar    
   6 C6             0.4110     5.3725     1.5952 C.ar    
   7 C7             1.3559     4.3630     1.3538 C.ar    
   8 N8             1.6914     4.0180     0.0510 N.am    
   9 S9             2.0226     2.4405    -0.3287 S.o2    
  10 O10            2.9460     2.0264     0.6689 O.2     
  11 O11            2.3942     2.4806    -1.6996 O.2     
  12 C12           -0.2316     6.0719     0.4679 C.2     
  13 N13           -1.1390     7.0399     0.7046 N.am    
  14 O14            0.0570     5.7754    -0.6757 O.2     
  15 C15           -1.6619     7.7850    -0.3598 C.ar    
  16 C16           -2.8686     8.4656    -0.2099 C.ar    
  17 C17           -3.3809     9.2008    -1.2660 C.ar    
  18 C18           -2.6954     9.2583    -2.4657 C.ar    
  19 C19           -1.4983     8.5834    -2.6152 C.ar    
  20 C20           -0.9773     7.8520    -1.5642 C.ar    
  21 O21           -3.5417     8.4078     0.9702 O.3     
  22 C22           -4.7720     9.1302     1.0514 C.3     
  23 C23           -5.3797     8.9476     2.4436 C.3     
  24 C24            0.6399     0.0805    -0.3278 C.3     
  25 C25           -0.6973    -0.6426    -0.1549 C.3     
  26 C26           -1.2367    -0.3875     1.2540 C.3     
  27 C27           -1.4394     1.1153     1.4580 C.3     
  28 C28           -0.1022     1.8384     1.2852 C.3     
  29 H29           -0.2756     1.9568    -0.8588 H       
  30 H30            2.6851     2.9366     2.2453 H       
  31 H31            2.0872     3.5461     4.5476 H       
  32 H32            0.4311     5.3136     4.9763 H       
  33 H33           -0.6439     6.4847     3.1052 H       
  34 H34            1.7318     4.7011    -0.6365 H       
  35 H35           -1.4299     7.2206     1.6122 H       
  36 H36           -4.3161     9.7290    -1.1527 H       
  37 H37           -3.0966     9.8318    -3.2882 H       
  38 H38           -0.9667     8.6309    -3.5541 H       
  39 H39           -0.0416     7.3260    -1.6836 H       
  40 H40           -4.5840    10.1890     0.8731 H       
  41 H41           -5.4654     8.7526     0.2999 H       
  42 H42           -6.3181     9.4987     2.5056 H       
  43 H43           -5.5676     7.8889     2.6220 H       
  44 H44           -4.6863     9.3252     3.1951 H       
  45 H45            1.0241    -0.1013    -1.3314 H       
  46 H46            1.3527    -0.2931     0.4074 H       
  47 H47           -1.4101    -0.2690    -0.8900 H       
  48 H48           -0.5529    -1.7132    -0.3003 H       
  49 H49           -2.1894    -0.9026     1.3771 H       
  50 H50           -0.5239    -0.7611     1.9891 H       
  51 H51           -2.1522     1.4889     0.7229 H       
  52 H52           -1.8237     1.2971     2.4617 H       
  53 H53            0.6106     1.4648     2.0203 H       
  54 H54           -0.2466     2.9089     1.4305 H       
@<TRIPOS>BOND
   1    1   24 1
   2    1    9 1
   3    1   28 1
   4    1   29 1
   5    2    3 ar
   6    2    7 ar
   7    2   30 1
   8    3    4 ar
   9    3   31 1
  10    4    5 ar
  11    4   32 1
  12    5    6 ar
  13    5   33 1
  14    6    7 ar
  15    6   12 1
  16    7    8 1
  17    8    9 am
  18    8   34 1
  19    9   10 2
  20    9   11 2
  21   12   13 am
  22   12   14 2
  23   13   15 1
  24   13   35 1
  25   15   16 ar
  26   15   20 ar
  27   16   17 ar
  28   16   21 1
  29   17   18 ar
  30   17   36 1
  31   18   19 ar
  32   18   37 1
  33   19   20 ar
  34   19   38 1
  35   20   39 1
  36   21   22 1
  37   22   23 1
  38   22   40 1
  39   22   41 1
  40   23   42 1
  41   23   43 1
  42   23   44 1
  43   24   25 1
  44   24   45 1
  45   24   46 1
  46   25   26 1
  47   25   47 1
  48   25   48 1
  49   26   27 1
  50   26   49 1
  51   26   50 1
  52   27   28 1
  53   27   51 1
  54   27   52 1
  55   28   53 1
  56   28   54 1

#	End of record

