#	Name: ASD10160420
#	Creating user name:	WinNT
#	Creation time:	15. 06. 2019 21:25

#	Modifying user name:	WinNT
#	Modification time:	15. 06. 2019 21:25

#	Program:	/corina/corina34_cracker 3.40 0067  02.08.2006

@<TRIPOS>MOLECULE
ASD10160420
  37   38    0    0    0
SMALL
NO_CHARGES


@<TRIPOS>ATOM
   1 C1             2.3005    -2.4925    -4.8826 C.2     
   2 C2             1.7120    -2.9238    -3.6060 C.ar    
   3 C3             0.3983    -3.4112    -3.5662 C.ar    
   4 C4            -0.1489    -3.8145    -2.3654 C.ar    
   5 C5             0.5997    -3.7376    -1.1981 C.ar    
   6 C6             1.9057    -3.2534    -1.2327 C.ar    
   7 C7             2.4637    -2.8545    -2.4268 C.ar    
   8 O8             3.4475    -2.0674    -4.9149 O.co2   
   9 O9             1.6451    -2.5634    -5.9135 O.co2   
  10 F10            2.6282    -3.1808    -0.0935 F       
  11 F11           -0.3307    -3.4855    -4.7012 F       
  12 O12            0.0570    -4.1350    -0.0196 O.3     
  13 C13           -2.3123    -3.9186     0.1063 C.ar    
  14 C14           -1.1788    -4.7013    -0.0447 C.ar    
  15 C15           -1.3211    -6.0747    -0.2228 C.ar    
  16 C16           -2.5988    -6.6081    -0.2422 C.ar    
  17 C17           -3.6887    -5.7604    -0.0844 C.ar    
  18 N18           -3.5151    -4.4605     0.0826 N.ar    
  19 Cl19          -2.8363    -8.3137    -0.4616 Cl      
  20 O20           -4.9458    -6.2730    -0.1023 O.3     
  21 C21           -6.0248    -5.3510     0.0651 C.3     
  22 C22           -5.9878    -4.3133    -1.0585 C.3     
  23 C23           -7.3539    -6.1074     0.0174 C.3     
  24 C24           -5.8877    -4.6454     1.4158 C.3     
  25 H25           -1.1609    -4.1902    -2.3332 H       
  26 H26            3.4779    -2.4842    -2.4529 H       
  27 H27           -2.2098    -2.8530     0.2493 H       
  28 H28           -0.4554    -6.7091    -0.3434 H       
  29 H29           -6.0855    -4.8160    -2.0207 H       
  30 H30           -6.8108    -3.6101    -0.9308 H       
  31 H31           -5.0409    -3.7745    -1.0245 H       
  32 H32           -7.3802    -6.8467     0.8179 H       
  33 H33           -8.1769    -5.4041     0.1451 H       
  34 H34           -7.4515    -6.6101    -0.9448 H       
  35 H35           -4.9408    -4.1066     1.4497 H       
  36 H36           -6.7107    -3.9422     1.5435 H       
  37 H37           -5.9140    -5.3847     2.2163 H       
@<TRIPOS>BOND
   1    1    2 1
   2    1    8 ar
   3    1    9 ar
   4    2    3 ar
   5    2    7 ar
   6    3    4 ar
   7    3   11 1
   8    4    5 ar
   9    4   25 1
  10    5    6 ar
  11    5   12 1
  12    6    7 ar
  13    6   10 1
  14    7   26 1
  15   12   14 1
  16   13   14 ar
  17   13   18 ar
  18   13   27 1
  19   14   15 ar
  20   15   16 ar
  21   15   28 1
  22   16   17 ar
  23   16   19 1
  24   17   18 ar
  25   17   20 1
  26   20   21 1
  27   21   22 1
  28   21   24 1
  29   21   23 1
  30   22   29 1
  31   22   30 1
  32   22   31 1
  33   23   32 1
  34   23   33 1
  35   23   34 1
  36   24   35 1
  37   24   36 1
  38   24   37 1

#	End of record

