#	Name: ASD10160011
#	Creating user name:	WinNT
#	Creation time:	15. 06. 2019 21:25

#	Modifying user name:	WinNT
#	Modification time:	15. 06. 2019 21:25

#	Program:	/corina/corina34_cracker 3.40 0067  02.08.2006

@<TRIPOS>MOLECULE
ASD10160011
  32   35    0    0    0
SMALL
NO_CHARGES


@<TRIPOS>ATOM
   1 C1            -0.0167     1.3823     0.0096 C.ar    
   2 C2             0.0021    -0.0041     0.0020 C.ar    
   3 C3            -1.1847    -0.7134     0.0096 C.ar    
   4 C4            -2.3954    -0.0412     0.0247 C.ar    
   5 C5            -2.4168     1.3516     0.0324 C.ar    
   6 C6            -1.2267     2.0599     0.0306 C.ar    
   7 O7             1.1517     2.0779     0.0022 O.3     
   8 C8             1.3178    -0.7387    -0.0150 C.3     
   9 O9            -3.6831    -0.4970     0.0346 O.3     
  10 C10           -4.4833     0.6216     0.4606 C.3     
  11 O11           -3.7167     1.7680     0.0469 O.3     
  12 C12            2.1129    -0.3724    -1.2469 C.ar    
  13 C13            3.2884     0.2133    -0.7935 C.ar    
  14 N14            3.3033     0.2477     0.6013 N.am    
  15 C15            2.1923    -0.2872     1.1353 C.2     
  16 C16            1.8713    -0.5166    -2.5942 C.ar    
  17 C17            2.8065    -0.0750    -3.5145 C.ar    
  18 C18            3.9802     0.5095    -3.0758 C.ar    
  19 C19            4.2248     0.6553    -1.7256 C.ar    
  20 O20            1.9381    -0.3895     2.3168 O.2     
  21 O21            1.1023    -2.1503     0.0403 O.3     
  22 H22           -1.1675    -1.7932     0.0033 H       
  23 H23           -1.2409     3.1398     0.0369 H       
  24 H24            1.4812     2.2839    -0.8833 H       
  25 H25           -5.4534     0.6099    -0.0364 H       
  26 H26           -4.6066     0.6139     1.5436 H       
  27 H27            4.0320     0.6154     1.1254 H       
  28 H28            0.9535    -0.9740    -2.9330 H       
  29 H29            2.6200    -0.1871    -4.5723 H       
  30 H30            4.7096     0.8539    -3.7939 H       
  31 H31            5.1439     1.1132    -1.3908 H       
  32 H32            0.6217    -2.4443     0.8263 H       
@<TRIPOS>BOND
   1    1    2 ar
   2    1    7 1
   3    1    6 ar
   4    2    3 ar
   5    2    8 1
   6    3    4 ar
   7    3   22 1
   8    4    5 ar
   9    4    9 1
  10    5    6 ar
  11    5   11 1
  12    6   23 1
  13    7   24 1
  14    8   12 1
  15    8   21 1
  16    8   15 1
  17    9   10 1
  18   10   11 1
  19   10   25 1
  20   10   26 1
  21   12   13 ar
  22   12   16 ar
  23   13   14 1
  24   13   19 ar
  25   14   15 am
  26   14   27 1
  27   15   20 2
  28   16   17 ar
  29   16   28 1
  30   17   18 ar
  31   17   29 1
  32   18   19 ar
  33   18   30 1
  34   19   31 1
  35   21   32 1

#	End of record

