#	Name: ASD15280007
#	Creating user name:	WinNT
#	Creation time:	15. 06. 2019 21:31

#	Modifying user name:	WinNT
#	Modification time:	15. 06. 2019 21:31

#	Program:	/corina/corina34_cracker 3.40 0067  02.08.2006

@<TRIPOS>MOLECULE
ASD15280007
  57   62    0    0    0
SMALL
NO_CHARGES


@<TRIPOS>ATOM
   1 O1             0.0021    -0.0041     0.0020 O.2     
   2 C2            -0.0144     1.2113     0.0087 C.2     
   3 N3             1.1435     1.9010     0.0013 N.am    
   4 C4             2.4220     1.1859    -0.0147 C.3     
   5 C5             3.5540     2.1806    -0.0202 C.ar    
   6 C6             4.0649     2.6537    -1.2205 C.ar    
   7 C7             5.1047     3.5666    -1.1820 C.ar    
   8 C8             5.6000     3.9768     0.0539 C.ar    
   9 N9             5.0835     3.4998     1.1793 N.ar    
  10 C10            4.0896     2.6349     1.1709 C.ar    
  11 C11            6.7138     4.9543     0.1121 C.ar    
  12 C12            7.2581     5.4641    -1.0714 C.ar    
  13 C13            8.2838     6.3640    -1.0355 C.ar    
  14 C14            8.8019     6.7871     0.1852 C.ar    
  15 N15            9.8073     7.6611     0.5319 N.pl3   
  16 H16           10.3543     8.1581    -0.0963 H       
  17 C17            9.9206     7.7248     1.8940 C.2     
  18 C18            9.0164     6.9155     2.4674 C.2     
  19 C19            8.2619     6.2813     1.3831 C.ar    
  20 C20            7.2110     5.3663     1.3415 C.ar    
  21 C21           -1.3048     1.9331     0.0187 C.ar    
  22 C22           -1.3247     3.3288     0.0207 C.ar    
  23 C23           -2.5338     3.9938     0.0241 C.ar    
  24 C24           -3.7203     3.2857     0.0311 C.ar    
  25 C25           -3.7195     1.8972     0.0390 C.ar    
  26 N26           -4.8900     1.1617     0.0714 N.am    
  27 C27           -6.0033     1.2808    -0.6003 C.2     
  28 O28           -6.8487     0.4427    -0.3537 O.2     
  29 C29           -6.3849     2.2740    -1.6061 C.ar    
  30 C30           -7.0472     1.8631    -2.7694 C.ar    
  31 C31           -7.4172     2.7905    -3.7191 C.ar    
  32 C32           -7.1380     4.1325    -3.5321 C.ar    
  33 C33           -6.4811     4.5498    -2.3870 C.ar    
  34 C34           -6.1052     3.6307    -1.4332 C.ar    
  35 S35           -5.2550     4.1580     0.0195 S.o2    
  36 O36           -6.0044     3.6735     1.1254 O.2     
  37 O37           -4.9393     5.5302    -0.1716 O.2     
  38 C38           -2.5015     1.2215     0.0206 C.ar    
  39 H39            1.1303     2.8709     0.0067 H       
  40 H40            2.4967     0.5553     0.8712 H       
  41 H41            2.4797     0.5648    -0.9086 H       
  42 H42            3.6604     2.3170    -2.1636 H       
  43 H43            5.5264     3.9551    -2.0973 H       
  44 H44            3.6910     2.2723     2.1068 H       
  45 H45            6.8629     5.1420    -2.0234 H       
  46 H46            8.6948     6.7488    -1.9572 H       
  47 H47           10.6329     8.3357     2.4287 H       
  48 H48            8.8723     6.7611     3.5265 H       
  49 H49            6.7898     4.9783     2.2572 H       
  50 H50           -0.3990     3.8851     0.0198 H       
  51 H51           -2.5529     5.0737     0.0216 H       
  52 H52           -4.8826     0.4273     0.7050 H       
  53 H53           -7.2688     0.8172    -2.9225 H       
  54 H54           -7.9276     2.4679    -4.6145 H       
  55 H55           -7.4321     4.8545    -4.2794 H       
  56 H56           -6.2633     5.5976    -2.2417 H       
  57 H57           -2.4853     0.1417     0.0118 H       
@<TRIPOS>BOND
   1    1    2 2
   2    2    3 am
   3    2   21 1
   4    3    4 1
   5    3   39 1
   6    4    5 1
   7    4   40 1
   8    4   41 1
   9    5   10 ar
  10    5    6 ar
  11    6    7 ar
  12    6   42 1
  13    7    8 ar
  14    7   43 1
  15    8    9 ar
  16    8   11 1
  17    9   10 ar
  18   10   44 1
  19   11   20 ar
  20   11   12 ar
  21   12   13 ar
  22   12   45 1
  23   13   14 ar
  24   13   46 1
  25   14   19 ar
  26   14   15 1
  27   15   16 1
  28   15   17 1
  29   17   18 2
  30   17   47 1
  31   18   19 1
  32   18   48 1
  33   19   20 ar
  34   20   49 1
  35   21   38 ar
  36   21   22 ar
  37   22   23 ar
  38   22   50 1
  39   23   24 ar
  40   23   51 1
  41   24   35 1
  42   24   25 ar
  43   25   26 1
  44   25   38 ar
  45   26   27 am
  46   26   52 1
  47   27   28 2
  48   27   29 1
  49   29   34 ar
  50   29   30 ar
  51   30   31 ar
  52   30   53 1
  53   31   32 ar
  54   31   54 1
  55   32   33 ar
  56   32   55 1
  57   33   34 ar
  58   33   56 1
  59   34   35 1
  60   35   36 2
  61   35   37 2
  62   38   57 1

#	End of record

