#	Name: ASD13490070
#	Creating user name:	WinNT
#	Creation time:	15. 06. 2019 21:30

#	Modifying user name:	WinNT
#	Modification time:	15. 06. 2019 21:30

#	Program:	/corina/corina34_cracker 3.40 0067  02.08.2006

@<TRIPOS>MOLECULE
ASD13490070
  48   51    0    0    0
SMALL
NO_CHARGES


@<TRIPOS>ATOM
   1 C1            -0.0168     1.3891     0.0097 C.ar    
   2 C2             0.0021    -0.0041     0.0020 C.ar    
   3 C3             1.2108    -0.6771    -0.0131 C.ar    
   4 C4             2.4061     0.0393    -0.0207 C.ar    
   5 C5             2.3851     1.4270    -0.0131 C.ar    
   6 C6             1.1815     2.1009     0.0021 C.ar    
   7 N7             3.6317    -0.6429    -0.0356 N.pl3   
   8 C8             4.6803    -0.4157    -0.8887 C.2     
   9 C9             5.6506    -1.2881    -0.5552 C.2     
  10 N10            5.2117    -2.0297     0.4724 N.2     
  11 C11            4.0057    -1.6490     0.7963 C.2     
  12 C12            6.9968    -1.4099    -1.2216 C.3     
  13 O13            1.2325    -2.0364    -0.0202 O.3     
  14 C14           -0.0302    -2.7054    -0.0113 C.3     
  15 C15           -1.3113     2.1142     0.0198 C.2     
  16 N16           -2.5023     1.5565     0.0228 N.2     
  17 N17           -3.4383     2.6034     0.0328 N.pl3   
  18 C18           -2.7319     3.7481     0.0350 C.2     
  19 N19           -1.4605     3.4457     0.0331 N.2     
  20 C20           -4.8976     2.4741     0.0389 C.3     
  21 C21           -3.4928     5.5977     1.4690 C.ar    
  22 C22           -2.4710     6.2648     2.1185 C.ar    
  23 C23           -2.6415     6.6894     3.4225 C.ar    
  24 C24           -3.8364     6.4464     4.0785 C.ar    
  25 C25           -4.8591     5.7781     3.4270 C.ar    
  26 C26           -4.6863     5.3544     2.1229 C.ar    
  27 F27           -4.0041     6.8606     5.3535 F       
  28 C28           -3.3079     5.1406     0.0449 C.3     
  29 H29           -0.9252    -0.5577     0.0083 H       
  30 H30            3.3126     1.9802    -0.0189 H       
  31 H31            1.1678     3.1808     0.0076 H       
  32 H32            4.7204     0.3211    -1.6774 H       
  33 H33            3.4050    -2.0663     1.5909 H       
  34 H34            7.7101    -0.7545    -0.7220 H       
  35 H35            7.3429    -2.4414    -1.1554 H       
  36 H36            6.9109    -1.1221    -2.2694 H       
  37 H37           -0.5831    -2.4260     0.8856 H       
  38 H38           -0.6005    -2.4170    -0.8943 H       
  39 H39            0.1298    -3.7836    -0.0183 H       
  40 H40           -5.2547     2.4371     1.0681 H       
  41 H41           -5.3404     3.3311    -0.4687 H       
  42 H42           -5.1834     1.5581    -0.4781 H       
  43 H43           -1.5389     6.4540     1.6068 H       
  44 H44           -1.8430     7.2103     3.9299 H       
  45 H45           -5.7916     5.5879     3.9376 H       
  46 H46           -5.4839     4.8331     1.6145 H       
  47 H47           -2.6269     5.8191    -0.4689 H       
  48 H48           -4.2717     5.1388    -0.4642 H       
@<TRIPOS>BOND
   1    1    2 ar
   2    1    6 ar
   3    1   15 1
   4    2    3 ar
   5    2   29 1
   6    3    4 ar
   7    3   13 1
   8    4    5 ar
   9    4    7 1
  10    5    6 ar
  11    5   30 1
  12    6   31 1
  13    7    8 1
  14    7   11 1
  15    8    9 2
  16    8   32 1
  17    9   10 1
  18    9   12 1
  19   10   11 2
  20   11   33 1
  21   12   34 1
  22   12   35 1
  23   12   36 1
  24   13   14 1
  25   14   37 1
  26   14   38 1
  27   14   39 1
  28   15   16 2
  29   15   19 1
  30   16   17 1
  31   17   18 1
  32   17   20 1
  33   18   19 2
  34   18   28 1
  35   20   40 1
  36   20   41 1
  37   20   42 1
  38   21   22 ar
  39   21   26 ar
  40   21   28 1
  41   22   23 ar
  42   22   43 1
  43   23   24 ar
  44   23   44 1
  45   24   25 ar
  46   24   27 1
  47   25   26 ar
  48   25   45 1
  49   26   46 1
  50   28   47 1
  51   28   48 1

#	End of record

