#	Name: ASD13490082
#	Creating user name:	WinNT
#	Creation time:	15. 06. 2019 21:30

#	Modifying user name:	WinNT
#	Modification time:	15. 06. 2019 21:30

#	Program:	/corina/corina34_cracker 3.40 0067  02.08.2006

@<TRIPOS>MOLECULE
ASD13490082
  57   61    0    0    0
SMALL
NO_CHARGES


@<TRIPOS>ATOM
   1 N1            -0.5995     0.8788     0.6776 N.pl3   
   2 C2            -0.6321    -0.4818     0.5088 C.2     
   3 C3             0.6209    -0.9302     0.7132 C.2     
   4 N4             1.4015     0.1226     0.9992 N.2     
   5 C5             0.6827     1.2117     0.9811 C.2     
   6 C6             1.0690    -2.3669     0.6346 C.3     
   7 C7            -1.6794     1.7576     0.5548 C.2     
   8 C8            -1.7011     2.7683    -0.5054 C.2     
   9 N9            -2.7523     3.6011    -0.5993 N.am    
  10 C10           -3.8032     3.5110     0.2852 C.2     
  11 C11           -3.8049     2.5806     1.2785 C.2     
  12 C12           -2.7373     1.6853     1.4191 C.2     
  13 O13           -0.7753     2.8536    -1.2942 O.2     
  14 C14           -4.9354     4.4522     0.1387 C.2     
  15 C15           -2.8040     4.6289    -1.6478 C.3     
  16 C16           -4.2428     4.6919    -2.1819 C.3     
  17 N17           -5.1378     5.0411    -1.0642 N.am    
  18 O18           -5.6690     4.6917     1.0782 O.2     
  19 C19           -6.2245     6.0060    -1.2494 C.3     
  20 C20           -5.9609     7.2273    -0.4067 C.2     
  21 C21           -7.5495     5.3697    -0.8248 C.3     
  22 C22           -6.8140     8.4299    -0.3904 C.ar    
  23 C23           -4.9378     7.3593     0.4193 C.2     
  24 C24           -5.0294     8.7183     1.0733 C.3     
  25 C25           -6.2712     9.3574     0.5009 C.ar    
  26 C26           -8.0454    10.8834     0.0166 C.ar    
  27 C27           -8.5928     9.9730    -0.8700 C.ar    
  28 C28           -7.9873     8.7514    -1.0776 C.ar    
  29 C29           -6.8827    10.5730     0.7015 C.ar    
  30 C30           -5.1664     8.5679     2.5897 C.3     
  31 C31           -9.8586    10.3175    -1.6116 C.3     
  32 F32          -10.2838    11.5972    -1.2390 F       
  33 F33           -9.6144    10.2899    -2.9888 F       
  34 F34          -10.8528     9.3853    -1.2954 F       
  35 H35           -1.4969    -1.0789     0.2600 H       
  36 H36            1.0459     2.2102     1.1748 H       
  37 H37            1.3826    -2.5945    -0.3842 H       
  38 H38            1.9051    -2.5245     1.3160 H       
  39 H39            0.2433    -3.0209     0.9153 H       
  40 H40           -4.6396     2.5293     1.9619 H       
  41 H41           -2.7470     0.9463     2.2067 H       
  42 H42           -2.5236     5.5957    -1.2300 H       
  43 H43           -2.1223     4.3647    -2.4564 H       
  44 H44           -4.3124     5.4545    -2.9575 H       
  45 H45           -4.5241     3.7218    -2.5917 H       
  46 H46           -6.2797     6.2940    -2.2992 H       
  47 H47           -8.3580     6.0876    -0.9626 H       
  48 H48           -7.7401     4.4863    -1.4343 H       
  49 H49           -7.4942     5.0817     0.2250 H       
  50 H50           -4.1685     6.6224     0.5967 H       
  51 H51           -4.1495     9.3139     0.8305 H       
  52 H52           -8.5250    11.8382     0.1737 H       
  53 H53           -8.4192     8.0446    -1.7706 H       
  54 H54           -6.4564    11.2847     1.3930 H       
  55 H55           -4.2847     8.0642     2.9860 H       
  56 H56           -5.2574     9.5537     3.0458 H       
  57 H57           -6.0547     7.9787     2.8177 H       
@<TRIPOS>BOND
   1    1    2 1
   2    1    5 1
   3    1    7 1
   4    2    3 2
   5    2   35 1
   6    3    4 1
   7    3    6 1
   8    4    5 2
   9    5   36 1
  10    6   37 1
  11    6   38 1
  12    6   39 1
  13    7    8 1
  14    7   12 2
  15    8    9 am
  16    8   13 2
  17    9   15 1
  18    9   10 1
  19   10   11 2
  20   10   14 1
  21   11   12 1
  22   11   40 1
  23   12   41 1
  24   14   17 am
  25   14   18 2
  26   15   16 1
  27   15   42 1
  28   15   43 1
  29   16   17 1
  30   16   44 1
  31   16   45 1
  32   17   19 1
  33   19   20 1
  34   19   21 1
  35   19   46 1
  36   20   23 2
  37   20   22 1
  38   21   47 1
  39   21   48 1
  40   21   49 1
  41   22   25 ar
  42   22   28 ar
  43   23   24 1
  44   23   50 1
  45   24   25 1
  46   24   30 1
  47   24   51 1
  48   25   29 ar
  49   26   27 ar
  50   26   29 ar
  51   26   52 1
  52   27   28 ar
  53   27   31 1
  54   28   53 1
  55   29   54 1
  56   30   55 1
  57   30   56 1
  58   30   57 1
  59   31   32 1
  60   31   33 1
  61   31   34 1

#	End of record

