#	Name: ASD10410266
#	Creating user name:	WinNT
#	Creation time:	15. 06. 2019 21:27

#	Modifying user name:	WinNT
#	Modification time:	15. 06. 2019 21:27

#	Program:	/corina/corina34_cracker 3.40 0067  02.08.2006

@<TRIPOS>MOLECULE
ASD10410266
  62   67    0    0    0
SMALL
NO_CHARGES


@<TRIPOS>ATOM
   1 C1            -0.0183     1.3941    -0.0811 C.ar    
   2 C2            -0.0058     0.0095     0.0247 C.ar    
   3 C3             1.2025    -0.6691     0.1154 C.ar    
   4 C4             2.3914     0.0330     0.1009 C.ar    
   5 C5             2.3788     1.4177    -0.0050 C.ar    
   6 C6             1.1705     2.0962    -0.0962 C.ar    
   7 N7             3.5846     2.1297    -0.0193 N.pl3   
   8 C8             3.6714     3.3405    -0.7064 C.2     
   9 N9             4.7092     4.1423    -0.7081 N.2     
  10 N10            2.7112     3.8683    -1.4748 N.2     
  11 C11            3.1219     5.0154    -1.9715 C.2     
  12 N12            4.3783     5.2392    -1.5200 N.pl3   
  13 C13            5.1856     6.3424    -1.8052 C.ar    
  14 N14            2.3995     5.8439    -2.8091 N.pl3   
  15 C15            6.1891     6.7091    -0.9166 C.ar    
  16 N16            4.9913     7.0259    -2.9220 N.ar    
  17 C17            5.7311     8.0734    -3.2298 C.ar    
  18 C18            6.7432     8.4969    -2.3903 C.ar    
  19 C19            6.9824     7.8045    -1.2116 C.ar    
  20 N20           -1.2110    -0.7022     0.0404 N.3     
  21 C21           -0.9681    -2.1467     0.1582 C.3     
  22 C22           -2.3079    -2.8806     0.2518 C.3     
  23 N23           -3.1124    -2.5802    -0.9407 N.3     
  24 C24           -3.3553    -1.1357    -1.0584 C.3     
  25 C25           -2.0155    -0.4018    -1.1521 C.3     
  26 C26           -4.3773    -3.3271    -0.9242 C.3     
  27 C27           -5.2739    -2.9044    -2.1279 C.3     
  28 C28           -4.3236    -2.9650    -3.3627 C.3     
  29 C29           -4.0620    -4.4728    -3.5808 C.3     
  30 C30           -4.1157    -4.8349    -1.1424 C.3     
  31 C31           -4.8788    -5.1812    -2.4573 C.3     
  32 C32           -6.1103    -4.2152    -2.3409 C.3     
  33 H33           -0.9578     1.9214    -0.1561 H       
  34 H34            1.2122    -1.7459     0.1977 H       
  35 H35            3.3310    -0.4947     0.1721 H       
  36 H36            1.1608     3.1730    -0.1788 H       
  37 H37            4.3594     1.7810     0.4487 H       
  38 H38            1.5021     5.5955    -3.0809 H       
  39 H39            2.7898     6.6738    -3.1251 H       
  40 H40            6.3476     6.1473    -0.0080 H       
  41 H41            5.5435     8.6067    -4.1500 H       
  42 H42            7.3444     9.3556    -2.6504 H       
  43 H43            7.7673     8.1153    -0.5380 H       
  44 H44           -0.4224    -2.4964    -0.7183 H       
  45 H45           -0.3814    -2.3449     1.0552 H       
  46 H46           -2.1310    -3.9546     0.3101 H       
  47 H47           -2.8416    -2.5508     1.1431 H       
  48 H48           -3.9420    -0.9375    -1.9554 H       
  49 H49           -3.9010    -0.7860    -0.1820 H       
  50 H50           -2.1924     0.6722    -1.2104 H       
  51 H51           -1.4817    -0.7316    -2.0434 H       
  52 H52           -4.9024    -3.1630     0.0168 H       
  53 H53           -5.8338    -1.9777    -2.0026 H       
  54 H54           -4.8095    -2.5332    -4.2376 H       
  55 H55           -3.3900    -2.4443    -3.1496 H       
  56 H56           -4.4192    -4.7823    -4.5630 H       
  57 H57           -2.9998    -4.6934    -3.4750 H       
  58 H58           -3.0485    -5.0220    -1.2618 H       
  59 H59           -4.5129    -5.4140    -0.3087 H       
  60 H60           -5.0947    -6.2374    -2.6188 H       
  61 H61           -6.7324    -4.4482    -1.4767 H       
  62 H62           -6.6931    -4.1832    -3.2615 H       
@<TRIPOS>BOND
   1    1    2 ar
   2    1    6 ar
   3    1   33 1
   4    2    3 ar
   5    2   20 1
   6    3    4 ar
   7    3   34 1
   8    4    5 ar
   9    4   35 1
  10    5    6 ar
  11    5    7 1
  12    6   36 1
  13    7    8 1
  14    7   37 1
  15    8    9 2
  16    8   10 1
  17    9   12 1
  18   10   11 2
  19   11   12 1
  20   11   14 1
  21   12   13 1
  22   13   15 ar
  23   13   16 ar
  24   14   38 1
  25   14   39 1
  26   15   19 ar
  27   15   40 1
  28   16   17 ar
  29   17   18 ar
  30   17   41 1
  31   18   19 ar
  32   18   42 1
  33   19   43 1
  34   20   21 1
  35   20   25 1
  36   21   22 1
  37   21   44 1
  38   21   45 1
  39   22   23 1
  40   22   46 1
  41   22   47 1
  42   23   24 1
  43   23   26 1
  44   24   25 1
  45   24   48 1
  46   24   49 1
  47   25   50 1
  48   25   51 1
  49   26   27 1
  50   26   30 1
  51   26   52 1
  52   27   28 1
  53   27   32 1
  54   27   53 1
  55   28   29 1
  56   28   54 1
  57   28   55 1
  58   29   31 1
  59   29   56 1
  60   29   57 1
  61   30   31 1
  62   30   58 1
  63   30   59 1
  64   31   32 1
  65   31   60 1
  66   32   61 1
  67   32   62 1

#	End of record

