#	Name: ASD11810002
#	Creating user name:	WinNT
#	Creation time:	15. 06. 2019 21:29

#	Modifying user name:	WinNT
#	Modification time:	15. 06. 2019 21:29

#	Program:	/corina/corina34_cracker 3.40 0067  02.08.2006

@<TRIPOS>MOLECULE
ASD11810002
  38   40    0    0    0
SMALL
NO_CHARGES


@<TRIPOS>ATOM
   1 C1             1.0271     4.5712    -0.5922 C.2     
   2 N2             1.7269     5.2695    -1.4347 N.2     
   3 N3             1.4796     3.4620     0.1142 N.am    
   4 C4             2.7452     3.0287    -0.0504 C.2     
   5 N5             3.1837     1.9537     0.6341 N.am    
   6 C6             4.4646     1.4448     0.3919 C.ar    
   7 C7             5.5103     2.3072     0.0898 C.ar    
   8 C8             6.7733     1.8018    -0.1488 C.ar    
   9 C9             6.9970     0.4386    -0.0876 C.ar    
  10 C10            5.9578    -0.4228     0.2130 C.ar    
  11 C11            4.6939     0.0768     0.4587 C.ar    
  12 S12            8.6095    -0.2023    -0.3938 S.o2    
  13 N13            9.4392    -0.1466     1.0383 N.am    
  14 C14            9.6724     1.0807     1.6631 C.ar    
  15 C15            9.4458     1.2221     3.0262 C.ar    
  16 C16            9.6779     2.4368     3.6409 C.ar    
  17 C17           10.1354     3.5117     2.9009 C.ar    
  18 C18           10.3620     3.3744     1.5437 C.ar    
  19 C19           10.1370     2.1610     0.9237 C.ar    
  20 O20            8.4417    -1.5781    -0.7070 O.2     
  21 O21            9.2494     0.7206    -1.2644 O.2     
  22 O22            3.4912     3.6075    -0.8164 O.2     
  23 N23            1.1628     6.2514    -1.9929 N.2     
  24 C24           -0.0718     6.4712    -1.6695 C.2     
  25 S25           -0.5435     5.2476    -0.4898 S.3     
  26 H26            0.8844     3.0002     0.7253 H       
  27 H27            2.6116     1.5328     1.2947 H       
  28 H28            5.3360     3.3720     0.0412 H       
  29 H29            7.5869     2.4720    -0.3838 H       
  30 H30            6.1358    -1.4870     0.2600 H       
  31 H31            3.8827    -0.5964     0.6933 H       
  32 H32            9.7632    -0.9663     1.4433 H       
  33 H33            9.0881     0.3831     3.6047 H       
  34 H34            9.5015     2.5475     4.7006 H       
  35 H35           10.3157     4.4607     3.3839 H       
  36 H36           10.7193     4.2159     0.9686 H       
  37 H37           10.3146     2.0543    -0.1363 H       
  38 H38           -0.6986     7.2639    -2.0504 H       
@<TRIPOS>BOND
   1    1    2 2
   2    1    3 1
   3    1   25 1
   4    2   23 1
   5    3    4 am
   6    3   26 1
   7    4    5 am
   8    4   22 2
   9    5    6 1
  10    5   27 1
  11    6    7 ar
  12    6   11 ar
  13    7    8 ar
  14    7   28 1
  15    8    9 ar
  16    8   29 1
  17    9   10 ar
  18    9   12 1
  19   10   11 ar
  20   10   30 1
  21   11   31 1
  22   12   13 am
  23   12   20 2
  24   12   21 2
  25   13   14 1
  26   13   32 1
  27   14   15 ar
  28   14   19 ar
  29   15   16 ar
  30   15   33 1
  31   16   17 ar
  32   16   34 1
  33   17   18 ar
  34   17   35 1
  35   18   19 ar
  36   18   36 1
  37   19   37 1
  38   23   24 2
  39   24   25 1
  40   24   38 1

#	End of record

