#	Name: ASD10950009
#	Creating user name:	WinNT
#	Creation time:	15. 06. 2019 21:28

#	Modifying user name:	WinNT
#	Modification time:	15. 06. 2019 21:28

#	Program:	/corina/corina34_cracker 3.40 0067  02.08.2006

@<TRIPOS>MOLECULE
ASD10950009
  60   64    0    0    0
SMALL
NO_CHARGES


@<TRIPOS>ATOM
   1 C1             1.5310     1.3542     1.7780 C.3     
   2 O2             1.2762    -0.0417     1.4700 O.3     
   3 C3            -0.0108    -0.4096     1.3192 C.2     
   4 O4            -0.8961     0.4131     1.4416 O.2     
   5 C5            -0.3457    -1.8137     1.0050 C.ar    
   6 C6            -1.6787    -2.1985     0.8480 C.ar    
   7 C7            -1.9843    -3.5113     0.5547 C.ar    
   8 C8            -0.9735    -4.4459     0.4160 C.ar    
   9 C9             0.3496    -4.0714     0.5703 C.ar    
  10 C10            0.6697    -2.7608     0.8580 C.ar    
  11 C11           -1.3151    -5.8783     0.0961 C.3     
  12 N12           -0.4713    -6.3652    -1.0016 N.am    
  13 C13           -0.4204    -5.8158    -2.3587 C.3     
  14 C14            0.6461    -4.7207    -2.4259 C.3     
  15 C15            0.6985    -4.1555    -3.8219 C.2     
  16 C16            1.5315    -4.5319    -4.8050 C.2     
  17 N17            1.2853    -3.7962    -5.9321 N.pl3   
  18 C18            0.2620    -2.9059    -5.6957 C.ar    
  19 C19           -0.1542    -3.0956    -4.3654 C.ar    
  20 C20           -1.1915    -2.3208    -3.8428 C.ar    
  21 C21           -1.7977    -1.3809    -4.6274 C.ar    
  22 C22           -1.3910    -1.1901    -5.9410 C.ar    
  23 C23           -0.3721    -1.9458    -6.4778 C.ar    
  24 C24            0.2468    -7.4056    -0.5413 C.2     
  25 O25            1.0489    -8.0427    -1.1946 O.2     
  26 C26           -0.0839    -7.6586     0.8772 C.2     
  27 C27           -1.0132    -6.7621     1.2837 C.2     
  28 C28           -1.6112    -6.6672     2.6186 C.2     
  29 O29           -0.9231    -6.3565     3.5727 O.2     
  30 C30           -3.0506    -6.9490     2.8057 C.ar    
  31 C31           -3.6354    -6.8047     4.0654 C.ar    
  32 C32           -4.9789    -7.0692     4.2337 C.ar    
  33 C33           -5.7471    -7.4772     3.1579 C.ar    
  34 C34           -5.1739    -7.6226     1.9051 C.ar    
  35 C35           -3.8323    -7.3552     1.7220 C.ar    
  36 Cl36          -6.1465    -8.1351     0.5616 Cl      
  37 O37            0.4563    -8.6312     1.6467 O.3     
  38 H38            2.6049     1.5152     1.8731 H       
  39 H39            1.1394     1.9805     0.9764 H       
  40 H40            1.0401     1.6150     2.7156 H       
  41 H41           -2.4687    -1.4700     0.9563 H       
  42 H42           -3.0150    -3.8103     0.4334 H       
  43 H43            1.1337    -4.8060     0.4611 H       
  44 H44            1.7028    -2.4698     0.9781 H       
  45 H45           -2.3676    -5.9605    -0.1755 H       
  46 H46           -0.1710    -6.6095    -3.0629 H       
  47 H47           -1.3916    -5.3934    -2.6164 H       
  48 H48            0.3967    -3.9270    -1.7217 H       
  49 H49            1.6173    -5.1431    -2.1682 H       
  50 H50            2.2848    -5.3010    -4.7188 H       
  51 H51            1.7612    -3.8879    -6.7724 H       
  52 H52           -1.5137    -2.4641    -2.8220 H       
  53 H53           -2.6000    -0.7818    -4.2227 H       
  54 H54           -1.8802    -0.4434    -6.5490 H       
  55 H55           -0.0628    -1.7898    -7.5008 H       
  56 H56           -3.0371    -6.4870     4.9065 H       
  57 H57           -5.4319    -6.9579     5.2077 H       
  58 H58           -6.7982    -7.6836     3.2954 H       
  59 H59           -3.3861    -7.4684     0.7450 H       
  60 H60            1.1070    -9.1800     1.1877 H       
@<TRIPOS>BOND
   1    1    2 1
   2    1   38 1
   3    1   39 1
   4    1   40 1
   5    2    3 1
   6    3    4 2
   7    3    5 1
   8    5    6 ar
   9    5   10 ar
  10    6    7 ar
  11    6   41 1
  12    7    8 ar
  13    7   42 1
  14    8    9 ar
  15    8   11 1
  16    9   10 ar
  17    9   43 1
  18   10   44 1
  19   11   12 1
  20   11   27 1
  21   11   45 1
  22   12   13 1
  23   12   24 am
  24   13   14 1
  25   13   46 1
  26   13   47 1
  27   14   15 1
  28   14   48 1
  29   14   49 1
  30   15   16 2
  31   15   19 1
  32   16   17 1
  33   16   50 1
  34   17   18 1
  35   17   51 1
  36   18   19 ar
  37   18   23 ar
  38   19   20 ar
  39   20   21 ar
  40   20   52 1
  41   21   22 ar
  42   21   53 1
  43   22   23 ar
  44   22   54 1
  45   23   55 1
  46   24   25 2
  47   24   26 1
  48   26   27 2
  49   26   37 1
  50   27   28 1
  51   28   29 2
  52   28   30 1
  53   30   31 ar
  54   30   35 ar
  55   31   32 ar
  56   31   56 1
  57   32   33 ar
  58   32   57 1
  59   33   34 ar
  60   33   58 1
  61   34   35 ar
  62   34   36 1
  63   35   59 1
  64   37   60 1

#	End of record

