#	Name: ASD10800040
#	Creating user name:	WinNT
#	Creation time:	15. 06. 2019 21:28

#	Modifying user name:	WinNT
#	Modification time:	15. 06. 2019 21:28

#	Program:	/corina/corina34_cracker 3.40 0067  02.08.2006

@<TRIPOS>MOLECULE
ASD10800040
  51   54    0    0    0
SMALL
NO_CHARGES


@<TRIPOS>ATOM
   1 C1            -0.0167     1.3803     0.0096 C.ar    
   2 C2             0.0021    -0.0041     0.0020 C.ar    
   3 C3             1.2051    -0.6830    -0.0133 C.ar    
   4 C4             2.3944     0.0212    -0.0211 C.ar    
   5 C5             2.3777     1.4025    -0.0134 C.ar    
   6 C6             1.1730     2.0847     0.0021 C.ar    
   7 C7             3.6750     2.1694    -0.0213 C.3     
   8 C8             4.0635     2.5292     1.4141 C.3     
   9 N9             4.7268     1.3434    -0.6194 N.pl3   
  10 C10            5.2934     3.3998     1.3984 C.ar    
  11 C11            5.1662     4.7748     1.3337 C.ar    
  12 C12            6.5488     2.8238     1.4544 C.ar    
  13 C13            7.6770     3.6223     1.4400 C.ar    
  14 C14            7.5499     4.9970     1.3691 C.ar    
  15 C15            6.2945     5.5734     1.3192 C.ar    
  16 C16            9.0455     2.9944     1.5020 C.3     
  17 C17            6.1559     7.0720     1.2420 C.3     
  18 C18            4.8870     1.3166    -1.9855 C.2     
  19 N19            5.7742     0.6292    -2.6101 N.2     
  20 S20            3.8973     2.2170    -3.1405 S.3     
  21 C21            4.7655     1.6184    -4.6265 C.3     
  22 C22            5.8427     0.6844    -4.0534 C.3     
  23 C23            0.8874     3.5712     0.0120 C.3     
  24 C24           -0.5823     3.6972     0.4663 C.3     
  25 C25           -1.1827     2.3455     0.0198 C.3     
  26 H26           -0.9268    -0.5550     0.0085 H       
  27 H27            1.2163    -1.7629    -0.0189 H       
  28 H28            3.3358    -0.5080    -0.0328 H       
  29 H29            3.5540     3.0821    -0.6047 H       
  30 H30            3.2431     3.0679     1.8884 H       
  31 H31            4.2710     1.6173     1.9739 H       
  32 H32            5.3103     0.8155    -0.0522 H       
  33 H33            4.1854     5.2251     1.2941 H       
  34 H34            6.6481     1.7498     1.5098 H       
  35 H35            8.4314     5.6210     1.3582 H       
  36 H36            9.3985     2.7918     0.4909 H       
  37 H37            9.7361     3.6763     1.9982 H       
  38 H38            8.9918     2.0607     2.0619 H       
  39 H39            6.1397     7.3821     0.1972 H       
  40 H40            5.2278     7.3765     1.7258 H       
  41 H41            7.0000     7.5415     1.7473 H       
  42 H42            4.0845     1.0646    -5.2727 H       
  43 H43            5.2202     2.4487    -5.1668 H       
  44 H44            6.8263     1.0492    -4.3495 H       
  45 H45            5.6987    -0.3176    -4.4577 H       
  46 H46            1.5460     4.0781     0.7172 H       
  47 H47            1.0111     3.9868    -0.9880 H       
  48 H48           -0.6447     3.8140     1.5482 H       
  49 H49           -1.0756     4.5250    -0.0431 H       
  50 H50           -1.6149     2.4345    -0.9769 H       
  51 H51           -1.9378     2.0134     0.7322 H       
@<TRIPOS>BOND
   1    1    2 ar
   2    1    6 ar
   3    1   25 1
   4    2    3 ar
   5    2   26 1
   6    3    4 ar
   7    3   27 1
   8    4    5 ar
   9    4   28 1
  10    5    6 ar
  11    5    7 1
  12    6   23 1
  13    7    8 1
  14    7    9 1
  15    7   29 1
  16    8   10 1
  17    8   30 1
  18    8   31 1
  19    9   18 1
  20    9   32 1
  21   10   11 ar
  22   10   12 ar
  23   11   15 ar
  24   11   33 1
  25   12   13 ar
  26   12   34 1
  27   13   14 ar
  28   13   16 1
  29   14   15 ar
  30   14   35 1
  31   15   17 1
  32   16   36 1
  33   16   37 1
  34   16   38 1
  35   17   39 1
  36   17   40 1
  37   17   41 1
  38   18   19 2
  39   18   20 1
  40   19   22 1
  41   20   21 1
  42   21   22 1
  43   21   42 1
  44   21   43 1
  45   22   44 1
  46   22   45 1
  47   23   24 1
  48   23   46 1
  49   23   47 1
  50   24   25 1
  51   24   48 1
  52   24   49 1
  53   25   50 1
  54   25   51 1

#	End of record

