#	Name: ASD10160127
#	Creating user name:	WinNT
#	Creation time:	15. 06. 2019 21:25

#	Modifying user name:	WinNT
#	Modification time:	15. 06. 2019 21:25

#	Program:	/corina/corina34_cracker 3.40 0067  02.08.2006

@<TRIPOS>MOLECULE
ASD10160127
  44   46    0    0    0
SMALL
NO_CHARGES


@<TRIPOS>ATOM
   1 C1            -0.1953     1.4348     0.6882 C.2     
   2 C2             1.1094     2.1155     0.5558 C.ar    
   3 C3             2.2096     1.4295     0.0326 C.ar    
   4 C4             3.4275     2.0728    -0.0884 C.ar    
   5 C5             3.5584     3.3911     0.3065 C.ar    
   6 C6             2.4717     4.0768     0.8260 C.ar    
   7 C7             1.2478     3.4482     0.9471 C.ar    
   8 O8            -0.2419     0.2741     1.0500 O.2     
   9 N9            -1.3340     2.1012     0.4135 N.am    
  10 S10           -2.7875     1.3086     0.4534 S.o2    
  11 O11           -3.5942     2.0087    -0.4838 O.2     
  12 O12           -2.4479    -0.0564     0.2522 O.2     
  13 C13           -3.3995     1.5702     2.1408 C.3     
  14 F14            2.6087     5.3649     1.2100 F       
  15 F15            2.0831     0.1410    -0.3534 F       
  16 O16           -1.2877     3.4792     0.0908 O.3     
  17 C17           -2.2632     3.8725    -2.0461 C.ar    
  18 C18           -1.1468     3.7314    -1.2368 C.ar    
  19 C19            0.1214     3.8517    -1.8008 C.ar    
  20 C20            0.2178     4.1093    -3.1572 C.ar    
  21 C21           -0.9474     4.2387    -3.9071 C.ar    
  22 N22           -2.1353     4.1180    -3.3365 N.ar    
  23 N23           -0.8623     4.4985    -5.2734 N.3     
  24 C24           -1.5889     3.4840    -6.0485 C.3     
  25 C25           -1.3515     5.8484    -5.5840 C.3     
  26 C26           -1.2164     6.3338    -7.0287 C.3     
  27 C27           -2.5924     5.9633    -6.4717 C.3     
  28 Cl28           1.7722     4.2696    -3.9134 Cl      
  29 H29            4.2784     1.5442    -0.4920 H       
  30 H30            4.5121     3.8888     0.2102 H       
  31 H31            0.4008     3.9854     1.3476 H       
  32 H32           -3.3727     2.6342     2.3762 H       
  33 H33           -4.4246     1.2073     2.2159 H       
  34 H34           -2.7691     1.0264     2.8444 H       
  35 H35           -3.2493     3.7761    -1.6165 H       
  36 H36            1.0085     3.7467    -1.1938 H       
  37 H37           -2.6493     3.5274    -5.7999 H       
  38 H38           -1.4571     3.6769    -7.1131 H       
  39 H39           -1.1994     2.4949    -5.8075 H       
  40 H40           -1.2291     6.5867    -4.7915 H       
  41 H41           -1.0055     7.3914    -7.1866 H       
  42 H42           -0.7645     5.6515    -7.7486 H       
  43 H43           -3.0458     5.0372    -6.8252 H       
  44 H44           -3.2867     6.7772    -6.2632 H       
@<TRIPOS>BOND
   1    1    2 1
   2    1    8 2
   3    1    9 am
   4    2    3 ar
   5    2    7 ar
   6    3    4 ar
   7    3   15 1
   8    4    5 ar
   9    4   29 1
  10    5    6 ar
  11    5   30 1
  12    6    7 ar
  13    6   14 1
  14    7   31 1
  15    9   10 am
  16    9   16 1
  17   10   11 2
  18   10   12 2
  19   10   13 1
  20   13   32 1
  21   13   33 1
  22   13   34 1
  23   16   18 1
  24   17   18 ar
  25   17   22 ar
  26   17   35 1
  27   18   19 ar
  28   19   20 ar
  29   19   36 1
  30   20   21 ar
  31   20   28 1
  32   21   22 ar
  33   21   23 1
  34   23   24 1
  35   23   25 1
  36   24   37 1
  37   24   38 1
  38   24   39 1
  39   25   26 1
  40   25   27 1
  41   25   40 1
  42   26   27 1
  43   26   41 1
  44   26   42 1
  45   27   43 1
  46   27   44 1

#	End of record

