#	Name: ASD10160398
#	Creating user name:	WinNT
#	Creation time:	15. 06. 2019 21:25

#	Modifying user name:	WinNT
#	Modification time:	15. 06. 2019 21:25

#	Program:	/corina/corina34_cracker 3.40 0067  02.08.2006

@<TRIPOS>MOLECULE
ASD10160398
  19   20    0    0    0
SMALL
NO_CHARGES


@<TRIPOS>ATOM
   1 C1            -0.0168     1.3861     0.0097 C.ar    
   2 C2             0.0021    -0.0041     0.0020 C.ar    
   3 C3             1.2210    -0.6607    -0.0131 C.ar    
   4 C4             2.3825     0.0998    -0.0201 C.ar    
   5 C5             2.2883     1.4769    -0.0118 C.ar    
   6 N6             1.1118     2.0749     0.0026 N.ar    
   7 O7            -1.2046     2.0422     0.0188 O.3     
   8 C8            -1.1569     3.4703     0.0264 C.3     
   9 C9            -2.3111     4.2193    -0.6427 C.3     
  10 C10           -2.1890     4.2072     0.8823 C.3     
  11 Cl11          -1.4823    -0.9043     0.0119 Cl      
  12 H12            1.2672    -1.7397    -0.0190 H       
  13 H13            3.3495    -0.3810    -0.0316 H       
  14 H14            3.1890     2.0728    -0.0172 H       
  15 H15           -0.1615     3.9078    -0.0502 H       
  16 H16           -2.0751     5.1498    -1.1591 H       
  17 H17           -3.1069     3.6227    -1.0887 H       
  18 H18           -2.9044     3.6025     1.4397 H       
  19 H19           -1.8726     5.1296     1.3693 H       
@<TRIPOS>BOND
   1    1    2 ar
   2    1    6 ar
   3    1    7 1
   4    2    3 ar
   5    2   11 1
   6    3    4 ar
   7    3   12 1
   8    4    5 ar
   9    4   13 1
  10    5    6 ar
  11    5   14 1
  12    7    8 1
  13    8    9 1
  14    8   10 1
  15    8   15 1
  16    9   10 1
  17    9   16 1
  18    9   17 1
  19   10   18 1
  20   10   19 1

#	End of record

