#	Name: ASD11000018
#	Creating user name:	WinNT
#	Creation time:	15. 06. 2019 21:28

#	Modifying user name:	WinNT
#	Modification time:	15. 06. 2019 21:28

#	Program:	/corina/corina34_cracker 3.40 0067  02.08.2006

@<TRIPOS>MOLECULE
ASD11000018
  59   62    0    0    0
SMALL
NO_CHARGES


@<TRIPOS>ATOM
   1 C1             0.0965     1.2854     0.1372 C.3     
   2 C2            -0.4346    -0.1192    -0.1564 C.3     
   3 N3             0.0186    -0.5444    -1.4850 N.am    
   4 C4             0.0801    -1.0787     0.8874 C.ar    
   5 C5             0.6522    -2.2877     0.5582 C.ar    
   6 C6            -0.0398    -0.7081     2.2201 C.ar    
   7 C7             1.0936    -3.1363     1.5664 C.ar    
   8 C8             0.9728    -2.7739     2.8951 C.ar    
   9 C9             0.4042    -1.5474     3.2256 C.ar    
  10 C10           -0.0866    -1.9769    -1.8083 C.3     
  11 C11            0.8422    -2.7405    -0.8658 C.3     
  12 O12            0.2848    -1.1773     4.5287 O.3     
  13 C13           -0.3091     0.0960     4.7896 C.3     
  14 O14            1.4079    -3.6114     3.8742 O.3     
  15 C15            1.9808    -4.8529     3.4587 C.3     
  16 C16            0.5110     0.3406    -2.3742 C.2     
  17 O17            0.4792     1.5307    -2.1285 O.2     
  18 C18            1.0899    -0.1360    -3.6484 C.ar    
  19 C19            1.6826    -1.3973    -3.7204 C.ar    
  20 C20            1.0407     0.6715    -4.7860 C.ar    
  21 C21            1.5830     0.2206    -5.9722 C.ar    
  22 C22            2.1746    -1.0295    -6.0350 C.ar    
  23 C23            2.2212    -1.8364    -4.9125 C.ar    
  24 O24            1.5250     1.2716     0.1012 O.3     
  25 C25            2.1599     2.4495     0.3431 C.ar    
  26 C26            3.5456     2.5072     0.3236 C.ar    
  27 C27            1.4218     3.5945     0.6036 C.ar    
  28 C28            2.0668     4.7910     0.8493 C.ar    
  29 C29            3.4526     4.8474     0.8359 C.ar    
  30 C30            4.1906     3.7037     0.5693 C.ar    
  31 I31            1.5101     1.4298    -7.6814 I       
  32 O32            4.0876     6.0254     1.0769 O.3     
  33 C33            5.5162     6.0103     1.0474 C.3     
  34 H34           -0.2793     1.9802    -0.6138 H       
  35 H35           -0.2391     1.6015     1.1249 H       
  36 H36           -1.5243    -0.1074    -0.1314 H       
  37 H37           -0.4830     0.2435     2.4735 H       
  38 H38            1.5348    -4.0880     1.3096 H       
  39 H39           -1.1138    -2.3127    -1.6659 H       
  40 H40            0.2171    -2.1450    -2.8415 H       
  41 H41            1.8764    -2.5659    -1.1624 H       
  42 H42            0.6255    -3.8065    -0.9348 H       
  43 H43            0.2850     0.8778     4.3164 H       
  44 H44           -1.3214     0.1143     4.3860 H       
  45 H45           -0.3438     0.2671     5.8656 H       
  46 H46            2.8506    -4.6596     2.8308 H       
  47 H47            2.2855    -5.4240     4.3357 H       
  48 H48            1.2434    -5.4220     2.8927 H       
  49 H49            1.7201    -2.0284    -2.8447 H       
  50 H50            0.5791     1.6467    -4.7380 H       
  51 H51            2.5975    -1.3779    -6.9657 H       
  52 H52            2.6845    -2.8104    -4.9681 H       
  53 H53            4.1202     1.6165     0.1166 H       
  54 H54            0.3428     3.5507     0.6141 H       
  55 H55            1.4921     5.6828     1.0515 H       
  56 H56            5.2697     3.7474     0.5592 H       
  57 H57            5.8879     5.3175     1.8023 H       
  58 H58            5.8559     5.6907     0.0622 H       
  59 H59            5.8945     7.0112     1.2551 H       
@<TRIPOS>BOND
   1    1    2 1
   2    1   24 1
   3    1   34 1
   4    1   35 1
   5    2    3 1
   6    2    4 1
   7    2   36 1
   8    3   10 1
   9    3   16 am
  10    4    5 ar
  11    4    6 ar
  12    5    7 ar
  13    5   11 1
  14    6    9 ar
  15    6   37 1
  16    7    8 ar
  17    7   38 1
  18    8    9 ar
  19    8   14 1
  20    9   12 1
  21   10   11 1
  22   10   39 1
  23   10   40 1
  24   11   41 1
  25   11   42 1
  26   12   13 1
  27   13   43 1
  28   13   44 1
  29   13   45 1
  30   14   15 1
  31   15   46 1
  32   15   47 1
  33   15   48 1
  34   16   17 2
  35   16   18 1
  36   18   20 ar
  37   18   19 ar
  38   19   23 ar
  39   19   49 1
  40   20   21 ar
  41   20   50 1
  42   21   22 ar
  43   21   31 1
  44   22   23 ar
  45   22   51 1
  46   23   52 1
  47   24   25 1
  48   25   26 ar
  49   25   27 ar
  50   26   30 ar
  51   26   53 1
  52   27   28 ar
  53   27   54 1
  54   28   29 ar
  55   28   55 1
  56   29   30 ar
  57   29   32 1
  58   30   56 1
  59   32   33 1
  60   33   57 1
  61   33   58 1
  62   33   59 1

#	End of record

