#	Name: ASD10610085
#	Creating user name:	WinNT
#	Creation time:	15. 06. 2019 21:27

#	Modifying user name:	WinNT
#	Modification time:	15. 06. 2019 21:27

#	Program:	/corina/corina34_cracker 3.40 0067  02.08.2006

@<TRIPOS>MOLECULE
ASD10610085
  62   66    0    0    0
SMALL
NO_CHARGES


@<TRIPOS>ATOM
   1 C1            -1.6989     1.5258    -1.1748 C.2     
   2 C2            -1.7364     0.0494    -1.2446 C.ar    
   3 C3            -2.1984    -0.5960    -2.3968 C.ar    
   4 C4            -2.2131    -1.9861    -2.4107 C.ar    
   5 C5            -1.7722    -2.6792    -1.2891 C.ar    
   6 N6            -1.3432    -2.0375    -0.2200 N.ar    
   7 C7            -1.3062    -0.7223    -0.1646 C.ar    
   8 O8            -2.0713     2.1888    -2.1231 O.2     
   9 N9            -1.2570     2.1366    -0.0576 N.am    
  10 O10           -2.5886     4.2547     1.2727 O.3     
  11 C11           -2.4380     4.3645    -0.1486 C.3     
  12 C12           -1.1173     3.5946    -0.0263 C.3     
  13 C13           -1.1597     4.2092     1.3782 C.3     
  14 C14           -0.0069     4.1117    -0.9042 C.2     
  15 N15            1.1222     3.3919    -1.0569 N.am    
  16 O16           -0.1294     5.1757    -1.4733 O.2     
  17 C17            2.2445     3.9429    -1.8204 C.3     
  18 C18            2.0366     3.6590    -3.3094 C.3     
  19 C19            3.5281     3.3006    -1.3611 C.ar    
  20 C20            4.6425     4.0912    -1.1313 C.ar    
  21 C21            5.8202     3.4949    -0.7085 C.ar    
  22 C22            5.8337     2.1084    -0.5301 C.ar    
  23 C23            4.6699     1.3845    -0.7828 C.ar    
  24 N24            3.5720     1.9952    -1.1786 N.ar    
  25 F25            4.5821     5.4279    -1.3178 F       
  26 C26            7.0666     1.4191    -0.0798 C.ar    
  27 C27            7.0183     0.5179     0.9960 C.ar    
  28 C28            8.1846    -0.1241     1.4102 C.ar    
  29 C29            9.3796     0.1288     0.7618 C.ar    
  30 C30            9.4253     1.0182    -0.2985 C.ar    
  31 C31            8.2763     1.6577    -0.7246 C.ar    
  32 O32            3.7240     0.3546     2.1548 O.3     
  33 N33            4.5736     0.7823     1.4022 N.2     
  34 C34            5.7350     0.2511     1.6874 C.2     
  35 N35            5.5443    -0.5880     2.7312 N.2     
  36 C36            4.2681    -0.5116     3.0153 C.2     
  37 C37            3.5481    -1.2599     4.1074 C.3     
  38 F38            8.1474    -0.9924     2.4446 F       
  39 Cl39          10.9329     1.3261    -1.1024 Cl      
  40 N40           -2.6658    -2.6778    -3.5374 N.pl3   
  41 H41           -2.5350    -0.0294    -3.2525 H       
  42 H42           -1.7814    -3.7592    -1.2933 H       
  43 H43           -0.9429    -0.2355     0.7285 H       
  44 H44           -1.0315     1.6108     0.7258 H       
  45 H45           -3.2029     3.8256    -0.7078 H       
  46 H46           -2.3103     5.3910    -0.4923 H       
  47 H47           -0.6982     5.1951     1.4333 H       
  48 H48           -0.8046     3.5342     2.1569 H       
  49 H49            1.1917     2.5089    -0.6613 H       
  50 H50            2.2993     5.0196    -1.6600 H       
  51 H51            1.1082     4.1236    -3.6417 H       
  52 H52            2.8717     4.0690    -3.8775 H       
  53 H53            1.9818     2.5823    -3.4699 H       
  54 H54            6.7045     4.0861    -0.5220 H       
  55 H55            4.6671     0.3128    -0.6488 H       
  56 H56           10.2819    -0.3695     1.0843 H       
  57 H57            8.3183     2.3462    -1.5556 H       
  58 H58            2.4922    -0.9896     4.0978 H       
  59 H59            3.6502    -2.3323     3.9412 H       
  60 H60            3.9812    -0.9991     5.0730 H       
  61 H61           -2.9724    -2.1880    -4.3165 H       
  62 H62           -2.6735    -3.6478    -3.5403 H       
@<TRIPOS>BOND
   1    1    2 1
   2    1    8 2
   3    1    9 am
   4    2    3 ar
   5    2    7 ar
   6    3    4 ar
   7    3   41 1
   8    4    5 ar
   9    4   40 1
  10    5    6 ar
  11    5   42 1
  12    6    7 ar
  13    7   43 1
  14    9   12 1
  15    9   44 1
  16   10   11 1
  17   10   13 1
  18   11   12 1
  19   11   45 1
  20   11   46 1
  21   12   13 1
  22   12   14 1
  23   13   47 1
  24   13   48 1
  25   14   15 am
  26   14   16 2
  27   15   17 1
  28   15   49 1
  29   17   18 1
  30   17   19 1
  31   17   50 1
  32   18   51 1
  33   18   52 1
  34   18   53 1
  35   19   20 ar
  36   19   24 ar
  37   20   21 ar
  38   20   25 1
  39   21   22 ar
  40   21   54 1
  41   22   23 ar
  42   22   26 1
  43   23   24 ar
  44   23   55 1
  45   26   27 ar
  46   26   31 ar
  47   27   28 ar
  48   27   34 1
  49   28   29 ar
  50   28   38 1
  51   29   30 ar
  52   29   56 1
  53   30   31 ar
  54   30   39 1
  55   31   57 1
  56   32   33 1
  57   32   36 1
  58   33   34 2
  59   34   35 1
  60   35   36 2
  61   36   37 1
  62   37   58 1
  63   37   59 1
  64   37   60 1
  65   40   61 1
  66   40   62 1

#	End of record

