#	Name: ASD10220080
#	Creating user name:	WinNT
#	Creation time:	15. 06. 2019 21:26

#	Modifying user name:	WinNT
#	Modification time:	15. 06. 2019 21:26

#	Program:	/corina/corina34_cracker 3.40 0067  02.08.2006

@<TRIPOS>MOLECULE
ASD10220080
  39   41    0    0    0
SMALL
NO_CHARGES


@<TRIPOS>ATOM
   1 C1             0.1558     3.5888    -0.3756 C.2     
   2 C2             0.3886     4.8594    -0.9600 C.2     
   3 C3            -0.6309     5.6741    -1.3026 C.2     
   4 C4            -2.0275     5.3000    -1.0937 C.2     
   5 C5            -2.3398     4.0736    -0.5272 C.2     
   6 C6            -1.2615     3.1493    -0.1438 C.2     
   7 O7            -3.1843     5.9392    -1.3527 O.3     
   8 C8            -4.2384     5.2053    -0.9899 C.2     
   9 C9            -3.8041     4.0184    -0.4620 C.2     
  10 C10           -4.6330     2.9183     0.0612 C.2     
  11 O11           -4.1122     1.8728     0.4009 O.2     
  12 C12           -6.0949     3.0848     0.1731 C.ar    
  13 C13           -6.6407     4.3538     0.3876 C.ar    
  14 C14           -8.0101     4.5069     0.4920 C.ar    
  15 C15           -8.8463     3.3983     0.3838 C.ar    
  16 C16           -8.3051     2.1327     0.1705 C.ar    
  17 C17           -6.9368     1.9748     0.0591 C.ar    
  18 Cl18           2.0213     5.3787    -1.2402 Cl      
  19 O19            1.0848     2.8672    -0.0728 O.2     
  20 O20           -1.5089     2.0708     0.3534 O.2     
  21 O21           -9.1245     1.0523     0.0657 O.3     
  22 C22           -8.5020    -0.2152    -0.1528 C.3     
  23 O23           -8.5417     5.7410     0.7012 O.3     
  24 C24           -7.6259     6.8332     0.8028 C.3     
  25 O25          -10.1924     3.5516     0.4868 O.3     
  26 C26          -10.9110     3.8049    -0.7221 C.3     
  27 H27           -0.4074     6.6335    -1.7452 H       
  28 H28           -5.2717     5.5009    -1.0960 H       
  29 H29           -5.9927     5.2137     0.4720 H       
  30 H30           -6.5177     0.9933    -0.1067 H       
  31 H31           -7.9352    -0.1861    -1.0834 H       
  32 H32           -7.8291    -0.4372     0.6755 H       
  33 H33           -9.2667    -0.9893    -0.2172 H       
  34 H34           -6.9468     6.6615     1.6380 H       
  35 H35           -7.0527     6.9139    -0.1208 H       
  36 H36           -8.1795     7.7574     0.9688 H       
  37 H37          -10.7628     2.9754    -1.4135 H       
  38 H38          -11.9731     3.9067    -0.4990 H       
  39 H39          -10.5452     4.7259    -1.1760 H       
@<TRIPOS>BOND
   1    1    2 1
   2    1   19 2
   3    1    6 1
   4    2    3 2
   5    2   18 1
   6    3    4 1
   7    3   27 1
   8    4    5 2
   9    4    7 1
  10    5    6 1
  11    5    9 1
  12    6   20 2
  13    7    8 1
  14    8    9 2
  15    8   28 1
  16    9   10 1
  17   10   11 2
  18   10   12 1
  19   12   13 ar
  20   12   17 ar
  21   13   14 ar
  22   13   29 1
  23   14   15 ar
  24   14   23 1
  25   15   16 ar
  26   15   25 1
  27   16   17 ar
  28   16   21 1
  29   17   30 1
  30   21   22 1
  31   22   31 1
  32   22   32 1
  33   22   33 1
  34   23   24 1
  35   24   34 1
  36   24   35 1
  37   24   36 1
  38   25   26 1
  39   26   37 1
  40   26   38 1
  41   26   39 1

#	End of record

