#	Name: ASD11000339
#	Creating user name:	WinNT
#	Creation time:	15. 06. 2019 21:29

#	Modifying user name:	WinNT
#	Modification time:	15. 06. 2019 21:29

#	Program:	/corina/corina34_cracker 3.40 0067  02.08.2006

@<TRIPOS>MOLECULE
ASD11000339
  43   46    0    0    0
SMALL
NO_CHARGES


@<TRIPOS>ATOM
   1 C1            -0.0195     1.3880    -0.0256 C.ar    
   2 C2             0.0011    -0.0028    -0.0136 C.ar    
   3 N3             1.1510    -0.6599    -0.0241 N.ar    
   4 C4             2.3088    -0.0279    -0.0461 C.ar    
   5 C5             2.3622     1.3519    -0.0587 C.ar    
   6 C6             1.1791     2.0784    -0.0488 C.ar    
   7 C7             3.5895    -0.8219    -0.0573 C.3     
   8 O8             4.7041     0.0721    -0.0810 O.3     
   9 C9             5.9435    -0.4867    -0.0937 C.ar    
  10 C10            6.0787    -1.8727    -0.0833 C.ar    
  11 C11            7.3265    -2.4565    -0.0963 C.ar    
  12 C12            8.4660    -1.6597    -0.1200 C.ar    
  13 C13            8.3339    -0.2582    -0.1306 C.ar    
  14 C14            7.0616     0.3226    -0.1225 C.ar    
  15 N15            9.7249    -2.2253    -0.1323 N.am    
  16 C16           10.8280    -1.4571    -0.1543 C.2     
  17 C17           10.7494    -0.0481    -0.1652 C.2     
  18 C18            9.5420     0.5687    -0.1545 C.2     
  19 O19           11.9237    -1.9911    -0.1646 O.2     
  20 N20           -1.1964    -0.7096     0.0101 N.pl3   
  21 C21           -1.1881    -2.1033    -0.1030 C.ar    
  22 C22           -2.1299    -2.8624     0.5797 C.ar    
  23 C23           -0.2414    -2.7308    -0.9027 C.ar    
  24 C24           -0.2355    -4.1074    -1.0125 C.ar    
  25 C25           -1.1714    -4.8616    -0.3268 C.ar    
  26 C26           -2.1192    -4.2387     0.4662 C.ar    
  27 Cl27          -1.1610    -6.5919    -0.4672 Cl      
  28 H28           -0.9585     1.9215    -0.0215 H       
  29 H29            3.3147     1.8607    -0.0760 H       
  30 H30            1.1942     3.1582    -0.0586 H       
  31 H31            3.6403    -1.4422     0.8376 H       
  32 H32            3.6150    -1.4579    -0.9421 H       
  33 H33            5.1969    -2.4960    -0.0646 H       
  34 H34            7.4197    -3.5324    -0.0878 H       
  35 H35            6.9547     1.3972    -0.1309 H       
  36 H36            9.8151    -3.1910    -0.1247 H       
  37 H37           11.6544     0.5411    -0.1825 H       
  38 H38            9.4728     1.6464    -0.1635 H       
  39 H39           -2.0375    -0.2358     0.1052 H       
  40 H40           -2.8696    -2.3769     1.1989 H       
  41 H41            0.4890    -2.1426    -1.4383 H       
  42 H42            0.5001    -4.5958    -1.6344 H       
  43 H43           -2.8485    -4.8298     1.0003 H       
@<TRIPOS>BOND
   1    1    2 ar
   2    1    6 ar
   3    1   28 1
   4    2    3 ar
   5    2   20 1
   6    3    4 ar
   7    4    5 ar
   8    4    7 1
   9    5    6 ar
  10    5   29 1
  11    6   30 1
  12    7    8 1
  13    7   31 1
  14    7   32 1
  15    8    9 1
  16    9   10 ar
  17    9   14 ar
  18   10   11 ar
  19   10   33 1
  20   11   12 ar
  21   11   34 1
  22   12   13 ar
  23   12   15 1
  24   13   14 ar
  25   13   18 1
  26   14   35 1
  27   15   16 am
  28   15   36 1
  29   16   17 1
  30   16   19 2
  31   17   18 2
  32   17   37 1
  33   18   38 1
  34   20   21 1
  35   20   39 1
  36   21   22 ar
  37   21   23 ar
  38   22   26 ar
  39   22   40 1
  40   23   24 ar
  41   23   41 1
  42   24   25 ar
  43   24   42 1
  44   25   26 ar
  45   25   27 1
  46   26   43 1

#	End of record

