#	Name: ASD10610165
#	Creating user name:	WinNT
#	Creation time:	15. 06. 2019 21:28

#	Modifying user name:	WinNT
#	Modification time:	15. 06. 2019 21:28

#	Program:	/corina/corina34_cracker 3.40 0067  02.08.2006

@<TRIPOS>MOLECULE
ASD10610165
  17   18    0    0    0
SMALL
NO_CHARGES


@<TRIPOS>ATOM
   1 N1            -0.0154     1.2845     0.0091 N.2     
   2 N2             0.0021    -0.0041     0.0020 N.pl3   
   3 N3             1.2225    -0.4134    -0.0118 N.2     
   4 N4             2.0075     0.6100    -0.0138 N.2     
   5 C5             1.2340     1.7049    -0.0006 C.2     
   6 C6             1.6947     3.1157     0.0022 C.ar    
   7 C7             3.0579     3.4066    -0.0092 C.ar    
   8 C8             3.4814     4.7208    -0.0066 C.ar    
   9 C9             2.5551     5.7498     0.0074 C.ar    
  10 C10            1.2004     5.4680     0.0188 C.ar    
  11 C11            0.7650     4.1557     0.0104 C.ar    
  12 F12           -0.5578     3.8813     0.0159 F       
  13 Cl13           3.0953     7.3996     0.0112 Cl      
  14 Br14           4.3254     2.0033    -0.0277 Br      
  15 H15           -0.7815    -0.5758     0.0064 H       
  16 H16            4.5375     4.9467    -0.0150 H       
  17 H17            0.4820     6.2744     0.0296 H       
@<TRIPOS>BOND
   1    1    2 1
   2    1    5 2
   3    2    3 1
   4    2   15 1
   5    3    4 2
   6    4    5 1
   7    5    6 1
   8    6    7 ar
   9    6   11 ar
  10    7    8 ar
  11    7   14 1
  12    8    9 ar
  13    8   16 1
  14    9   10 ar
  15    9   13 1
  16   10   11 ar
  17   10   17 1
  18   11   12 1

#	End of record

