#	Name: ASD10420073
#	Creating user name:	WinNT
#	Creation time:	15. 06. 2019 21:27

#	Modifying user name:	WinNT
#	Modification time:	15. 06. 2019 21:27

#	Program:	/corina/corina34_cracker 3.40 0067  02.08.2006

@<TRIPOS>MOLECULE
ASD10420073
  79   83    0    0    0
SMALL
NO_CHARGES


@<TRIPOS>ATOM
   1 N1             1.3505     0.3412    -4.0808 N.am    
   2 C2             0.9384     0.5541    -2.6863 C.3     
   3 C3             1.7568    -0.3791    -1.7854 C.3     
   4 N4             3.1779    -0.2402    -2.1330 N.am    
   5 C5             3.5901    -0.4532    -3.5275 C.3     
   6 C6             2.7717     0.4801    -4.4284 C.3     
   7 C7             0.4423     0.0188    -5.0229 C.2     
   8 O8            -0.7293    -0.0983    -4.7225 O.2     
   9 O9             0.8331    -0.1736    -6.2968 O.3     
  10 C10            4.0869     0.0773    -1.1899 C.2     
  11 O11            3.7236     0.3388    -0.0579 O.2     
  12 C12            7.5098     0.8393    -2.1821 C.2     
  13 C13            8.4287     1.7881    -2.6453 C.2     
  14 C14            7.9919     3.0842    -2.8873 C.2     
  15 C15            6.6377     3.4149    -2.6621 C.2     
  16 N16            5.7948     2.5191    -2.2299 N.2     
  17 N17            6.2031     1.2029    -1.9765 N.pl3   
  18 C18            7.6420    -0.5206    -1.8468 C.2     
  19 C19            6.3849    -0.9666    -1.4420 C.2     
  20 C20            5.5116     0.1075    -1.5270 C.2     
  21 C21            8.8828    -1.3265    -1.9119 C.ar    
  22 C22            9.9594    -1.0230    -1.0783 C.ar    
  23 C23           11.1128    -1.7775    -1.1437 C.ar    
  24 C24           11.2030    -2.8328    -2.0338 C.ar    
  25 C25           10.1388    -3.1384    -2.8635 C.ar    
  26 C26            8.9776    -2.3956    -2.8029 C.ar    
  27 C27            8.9365     4.1085    -3.3760 C.2     
  28 N28            8.5071     5.3646    -3.6091 N.am    
  29 O29           10.1016     3.8188    -3.5680 O.2     
  30 C30            9.4443     6.3809    -4.0939 C.3     
  31 C31            6.0386    -2.3617    -0.9895 C.3     
  32 C32            6.1430    -2.4433     0.5117 C.ar    
  33 C33            4.9972    -2.5256     1.2804 C.ar    
  34 C34            5.0934    -2.6011     2.6594 C.ar    
  35 C35            6.3378    -2.5940     3.2670 C.ar    
  36 C36            7.4818    -2.5117     2.4964 C.ar    
  37 C37            7.3847    -2.4417     1.1190 C.ar    
  38 C38            3.6438    -2.5326     0.6177 C.3     
  39 F39            3.9742    -2.6810     3.4117 F       
  40 C40           -0.1991    -0.5185    -7.2581 C.3     
  41 C41           -1.2403     0.6013    -7.3121 C.3     
  42 C42            0.4307    -0.6964    -8.6410 C.3     
  43 C43           -0.8755    -1.8237    -6.8339 C.3     
  44 H44            1.1240     1.5905    -2.4041 H       
  45 H45           -0.1225     0.3279    -2.5798 H       
  46 H46            1.6069    -0.1039    -0.7414 H       
  47 H47            1.4406    -1.4102    -1.9435 H       
  48 H48            4.6510    -0.2269    -3.6341 H       
  49 H49            3.4044    -1.4895    -3.8097 H       
  50 H50            2.9215     0.2049    -5.4724 H       
  51 H51            3.0879     1.5112    -4.2703 H       
  52 H52            9.4608     1.5168    -2.8116 H       
  53 H53            6.2963     4.4222    -2.8493 H       
  54 H54            9.8905    -0.1991    -0.3836 H       
  55 H55           11.9470    -1.5436    -0.4989 H       
  56 H56           12.1080    -3.4202    -2.0815 H       
  57 H57           10.2155    -3.9630    -3.5568 H       
  58 H58            8.1457    -2.6383    -3.4474 H       
  59 H59            7.5776     5.5957    -3.4559 H       
  60 H60           10.2492     6.5078    -3.3699 H       
  61 H61            9.8619     6.0637    -5.0495 H       
  62 H62            8.9192     7.3272    -4.2231 H       
  63 H63            5.0205    -2.6010    -1.2965 H       
  64 H64            6.7308    -3.0724    -1.4410 H       
  65 H65            6.4141    -2.6525     4.3427 H       
  66 H66            8.4524    -2.5063     2.9701 H       
  67 H67            8.2795    -2.3819     0.5173 H       
  68 H68            3.3931    -3.5491     0.3142 H       
  69 H69            2.8938    -2.1675     1.3193 H       
  70 H70            3.6655    -1.8864    -0.2598 H       
  71 H71           -0.7585     1.5312    -7.6143 H       
  72 H72           -2.0152     0.3425    -8.0337 H       
  73 H73           -1.6890     0.7281    -6.3269 H       
  74 H74            1.1725    -1.4941    -8.6025 H       
  75 H75           -0.3441    -0.9553    -9.3626 H       
  76 H76            0.9126     0.2335    -8.9432 H       
  77 H77           -1.3242    -1.6969    -5.8487 H       
  78 H78           -1.6503    -2.0825    -7.5555 H       
  79 H79           -0.1337    -2.6214    -6.7954 H       
@<TRIPOS>BOND
   1    1    2 1
   2    1    6 1
   3    1    7 am
   4    2    3 1
   5    2   44 1
   6    2   45 1
   7    3    4 1
   8    3   46 1
   9    3   47 1
  10    4    5 1
  11    4   10 am
  12    5    6 1
  13    5   48 1
  14    5   49 1
  15    6   50 1
  16    6   51 1
  17    7    8 2
  18    7    9 1
  19    9   40 1
  20   10   11 2
  21   10   20 1
  22   12   13 1
  23   12   17 1
  24   12   18 2
  25   13   14 2
  26   13   52 1
  27   14   15 1
  28   14   27 1
  29   15   16 2
  30   15   53 1
  31   16   17 1
  32   17   20 1
  33   18   19 1
  34   18   21 1
  35   19   20 2
  36   19   31 1
  37   21   22 ar
  38   21   26 ar
  39   22   23 ar
  40   22   54 1
  41   23   24 ar
  42   23   55 1
  43   24   25 ar
  44   24   56 1
  45   25   26 ar
  46   25   57 1
  47   26   58 1
  48   27   28 am
  49   27   29 2
  50   28   30 1
  51   28   59 1
  52   30   60 1
  53   30   61 1
  54   30   62 1
  55   31   32 1
  56   31   63 1
  57   31   64 1
  58   32   33 ar
  59   32   37 ar
  60   33   34 ar
  61   33   38 1
  62   34   35 ar
  63   34   39 1
  64   35   36 ar
  65   35   65 1
  66   36   37 ar
  67   36   66 1
  68   37   67 1
  69   38   68 1
  70   38   69 1
  71   38   70 1
  72   40   41 1
  73   40   43 1
  74   40   42 1
  75   41   71 1
  76   41   72 1
  77   41   73 1
  78   42   74 1
  79   42   75 1
  80   42   76 1
  81   43   77 1
  82   43   78 1
  83   43   79 1

#	End of record

