#	Name: ASD11000102
#	Creating user name:	WinNT
#	Creation time:	15. 06. 2019 21:28

#	Modifying user name:	WinNT
#	Modification time:	15. 06. 2019 21:28

#	Program:	/corina/corina34_cracker 3.40 0067  02.08.2006

@<TRIPOS>MOLECULE
ASD11000102
  55   58    0    0    0
SMALL
NO_CHARGES


@<TRIPOS>ATOM
   1 C1             0.0991     1.2913     0.1354 C.3     
   2 C2            -0.4216    -0.1186    -0.1509 C.3     
   3 N3             0.0295    -0.5450    -1.4798 N.am    
   4 C4             0.1055    -1.0701     0.8940 C.ar    
   5 C5             0.6857    -2.2758     0.5665 C.ar    
   6 C6            -0.0109    -0.6963     2.2261 C.ar    
   7 C7             1.1376    -3.1154     1.5759 C.ar    
   8 C8             1.0184    -2.7456     2.9047 C.ar    
   9 C9             0.4427    -1.5261     3.2298 C.ar    
  10 C10           -0.0656    -1.9794    -1.7977 C.3     
  11 C11            0.8730    -2.7326    -0.8564 C.3     
  12 C12            0.5114     0.3407    -2.3741 C.2     
  13 O13            0.4701     1.5314    -2.1330 O.2     
  14 C14            1.0903    -0.1359    -3.6483 C.ar    
  15 C15            1.0415     0.6717    -4.7857 C.ar    
  16 O16            1.5275     1.2892     0.0936 O.3     
  17 C17            2.1537     2.4731     0.3286 C.ar    
  18 C18            3.5388     2.5421     0.3033 C.ar    
  19 C19            1.4073     3.6130     0.5879 C.ar    
  20 C20            2.0434     4.8157     0.8266 C.ar    
  21 C21            3.4286     4.8833     0.8073 C.ar    
  22 C22            4.1749     3.7447     0.5420 C.ar    
  23 O23            4.0549     6.0674     1.0414 O.3     
  24 C24            5.4834     6.0639     1.0061 C.3     
  25 C25            1.6928    -1.3928    -3.7175 C.ar    
  26 C26            2.2312    -1.8323    -4.9095 C.ar    
  27 C27            2.1755    -1.0302    -6.0349 C.ar    
  28 C28            1.5839     0.2205    -5.9724 C.ar    
  29 Cl29           1.5188     1.2200    -7.3903 Cl      
  30 C30            1.3076    -3.1246     5.2338 C.3     
  31 O31            1.4642    -3.5732     3.8861 O.3     
  32 H32           -0.2854     1.9803    -0.6167 H       
  33 H33           -0.2350     1.6084     1.1233 H       
  34 H34           -1.5112    -0.1158    -0.1214 H       
  35 H35           -0.4603     0.2528     2.4784 H       
  36 H36            1.5856    -4.0649     1.3223 H       
  37 H37            0.3498    -1.2282     4.2638 H       
  38 H38           -1.0895    -2.3228    -1.6499 H       
  39 H39            0.2352    -2.1487    -2.8316 H       
  40 H40            1.9046    -2.5513    -1.1582 H       
  41 H41            0.6640    -3.8004    -0.9205 H       
  42 H42            0.5802     1.6471    -4.7377 H       
  43 H43            4.1199     1.6553     0.0973 H       
  44 H44            0.3287     3.5603     0.6030 H       
  45 H45            1.4622     5.7034     1.0279 H       
  46 H46            5.2535     3.7973     0.5273 H       
  47 H47            5.8639     5.3770     1.7620 H       
  48 H48            5.8217     5.7435     0.0207 H       
  49 H49            5.8543     7.0687     1.2086 H       
  50 H50            1.7378    -2.0202    -2.8396 H       
  51 H51            2.6977    -2.8049    -4.9637 H       
  52 H52            2.5992    -1.3787    -6.9652 H       
  53 H53            0.2498    -2.9653     5.4431 H       
  54 H54            1.7035    -3.8773     5.9156 H       
  55 H55            1.8500    -2.1891     5.3707 H       
@<TRIPOS>BOND
   1    1    2 1
   2    1   16 1
   3    1   32 1
   4    1   33 1
   5    2    3 1
   6    2    4 1
   7    2   34 1
   8    3   10 1
   9    3   12 am
  10    4    5 ar
  11    4    6 ar
  12    5    7 ar
  13    5   11 1
  14    6    9 ar
  15    6   35 1
  16    7    8 ar
  17    7   36 1
  18    8    9 ar
  19    8   31 1
  20    9   37 1
  21   10   11 1
  22   10   38 1
  23   10   39 1
  24   11   40 1
  25   11   41 1
  26   12   13 2
  27   12   14 1
  28   14   15 ar
  29   14   25 ar
  30   15   28 ar
  31   15   42 1
  32   16   17 1
  33   17   18 ar
  34   17   19 ar
  35   18   22 ar
  36   18   43 1
  37   19   20 ar
  38   19   44 1
  39   20   21 ar
  40   20   45 1
  41   21   22 ar
  42   21   23 1
  43   22   46 1
  44   23   24 1
  45   24   47 1
  46   24   48 1
  47   24   49 1
  48   25   26 ar
  49   25   50 1
  50   26   27 ar
  51   26   51 1
  52   27   28 ar
  53   27   52 1
  54   28   29 1
  55   30   31 1
  56   30   53 1
  57   30   54 1
  58   30   55 1

#	End of record

