#	Name: ASD13010040
#	Creating user name:	WinNT
#	Creation time:	15. 06. 2019 21:30

#	Modifying user name:	WinNT
#	Modification time:	15. 06. 2019 21:30

#	Program:	/corina/corina34_cracker 3.40 0067  02.08.2006

@<TRIPOS>MOLECULE
ASD13010040
  39   42    0    0    0
SMALL
NO_CHARGES


@<TRIPOS>ATOM
   1 C1            -0.0044     1.3876    -0.3069 C.ar    
   2 C2             0.0186     0.0163    -0.4284 C.ar    
   3 C3             1.2209    -0.6780    -0.3866 C.ar    
   4 C4             2.4024    -0.0133    -0.2237 C.ar    
   5 C5             1.1878     2.0860    -0.1406 C.ar    
   6 N6             1.4975     3.4166     0.0057 N.pl3   
   7 C7             2.4044     1.3785    -0.0982 C.ar    
   8 C8             3.4560     2.3805     0.0837 C.2     
   9 N9             2.8832     3.5528     0.1380 N.2     
  10 C10            0.5768     4.4644     0.0199 C.ar    
  11 O11            4.7888     2.1350     0.1778 O.3     
  12 C12            5.6227     3.1951     0.3460 C.ar    
  13 C13            6.1487     3.8485    -0.7601 C.ar    
  14 C14            5.9454     3.6303     1.6241 C.ar    
  15 C15            6.7934     4.7093     1.7920 C.ar    
  16 C16            7.3196     5.3550     0.6884 C.ar    
  17 C17            6.9962     4.9269    -0.5859 C.ar    
  18 C18           -1.2533     6.5472     0.0495 C.ar    
  19 C19           -1.4755     5.4068     0.8272 C.ar    
  20 C20           -0.5649     4.3747     0.8101 C.ar    
  21 C21            0.8053     5.6014    -0.7528 C.ar    
  22 C22           -0.1029     6.6382    -0.7400 C.ar    
  23 C23           -2.2273     7.6541     0.0661 C.2     
  24 O24           -3.2244     7.5757     0.7562 O.2     
  25 O25           -2.0118     8.7527    -0.6840 O.3     
  26 Cl26           5.7433     3.3117    -2.3605 Cl      
  27 Cl27           5.2843     2.8209     3.0103 Cl      
  28 F28            1.9177     5.6876    -1.5147 F       
  29 H29           -0.9436     1.9195    -0.3451 H       
  30 H30           -0.9072    -0.5247    -0.5571 H       
  31 H31            1.2211    -1.7537    -0.4834 H       
  32 H32            3.3325    -0.5614    -0.1916 H       
  33 H33            7.0448     5.0483     2.7861 H       
  34 H34            7.9813     6.1981     0.8220 H       
  35 H35            7.4058     5.4356    -1.4461 H       
  36 H36           -2.3631     5.3341     1.4382 H       
  37 H37           -0.7370     3.4938     1.4107 H       
  38 H38            0.0718     7.5177    -1.3419 H       
  39 H39           -2.6783     9.4519    -0.6402 H       
@<TRIPOS>BOND
   1    1    2 ar
   2    1    5 ar
   3    1   29 1
   4    2    3 ar
   5    2   30 1
   6    3    4 ar
   7    3   31 1
   8    4    7 ar
   9    4   32 1
  10    5    7 ar
  11    5    6 1
  12    6    9 1
  13    6   10 1
  14    7    8 1
  15    8    9 2
  16    8   11 1
  17   10   21 ar
  18   10   20 ar
  19   11   12 1
  20   12   14 ar
  21   12   13 ar
  22   13   17 ar
  23   13   26 1
  24   14   15 ar
  25   14   27 1
  26   15   16 ar
  27   15   33 1
  28   16   17 ar
  29   16   34 1
  30   17   35 1
  31   18   19 ar
  32   18   22 ar
  33   18   23 1
  34   19   20 ar
  35   19   36 1
  36   20   37 1
  37   21   22 ar
  38   21   28 1
  39   22   38 1
  40   23   24 2
  41   23   25 1
  42   25   39 1

#	End of record

