#	Name: ASD10420059
#	Creating user name:	WinNT
#	Creation time:	15. 06. 2019 21:27

#	Modifying user name:	WinNT
#	Modification time:	15. 06. 2019 21:27

#	Program:	/corina/corina34_cracker 3.40 0067  02.08.2006

@<TRIPOS>MOLECULE
ASD10420059
  30   31    0    0    0
SMALL
NO_CHARGES


@<TRIPOS>ATOM
   1 C1             1.5028    -0.6392     2.6592 C.2     
   2 C2             0.7406    -1.0172     1.4568 C.ar    
   3 C3             1.1707    -0.5991     0.1868 C.ar    
   4 N4             2.3177     0.1735     0.0574 N.pl3   
   5 C5             0.4430    -0.9629    -0.9393 C.ar    
   6 C6            -0.6959    -1.7309    -0.8081 C.ar    
   7 C7            -1.1233    -2.1446     0.4436 C.ar    
   8 C8            -0.4121    -1.7990     1.5718 C.ar    
   9 O9             2.4443     0.1236     2.5669 O.2     
  10 O10            1.1526    -1.1348     3.8625 O.3     
  11 C11            3.5767    -0.4298     0.1159 C.ar    
  12 C12            4.7257     0.3481     0.0427 C.ar    
  13 C13            5.9682    -0.2513     0.1012 C.ar    
  14 C14            6.0699    -1.6244     0.2326 C.ar    
  15 C15            4.9286    -2.4015     0.3053 C.ar    
  16 C16            3.6825    -1.8080     0.2531 C.ar    
  17 C17            4.6158     1.8442    -0.1010 C.3     
  18 F18            5.8973     2.4030    -0.1530 F       
  19 F19            3.9255     2.1502    -1.2787 F       
  20 F20            3.9227     2.3683     0.9954 F       
  21 H21            2.2448     1.1318    -0.0736 H       
  22 H22            0.7688    -0.6440    -1.9184 H       
  23 H23           -1.2582    -2.0110    -1.6867 H       
  24 H24           -2.0164    -2.7451     0.5348 H       
  25 H25           -0.7472    -2.1284     2.5442 H       
  26 H26            1.6826    -0.8580     4.6225 H       
  27 H27            6.8616     0.3527     0.0440 H       
  28 H28            7.0430    -2.0907     0.2782 H       
  29 H29            5.0115    -3.4735     0.4075 H       
  30 H30            2.7914    -2.4151     0.3147 H       
@<TRIPOS>BOND
   1    1    2 1
   2    1    9 2
   3    1   10 1
   4    2    3 ar
   5    2    8 ar
   6    3    4 1
   7    3    5 ar
   8    4   11 1
   9    4   21 1
  10    5    6 ar
  11    5   22 1
  12    6    7 ar
  13    6   23 1
  14    7    8 ar
  15    7   24 1
  16    8   25 1
  17   10   26 1
  18   11   12 ar
  19   11   16 ar
  20   12   13 ar
  21   12   17 1
  22   13   14 ar
  23   13   27 1
  24   14   15 ar
  25   14   28 1
  26   15   16 ar
  27   15   29 1
  28   16   30 1
  29   17   18 1
  30   17   19 1
  31   17   20 1

#	End of record

