#	Name: ASD10160109
#	Creating user name:	WinNT
#	Creation time:	15. 06. 2019 21:25

#	Modifying user name:	WinNT
#	Modification time:	15. 06. 2019 21:25

#	Program:	/corina/corina34_cracker 3.40 0067  02.08.2006

@<TRIPOS>MOLECULE
ASD10160109
  47   48    0    0    0
SMALL
NO_CHARGES


@<TRIPOS>ATOM
   1 C1            -0.0169     1.3919     0.0097 C.ar    
   2 C2             0.0021    -0.0041     0.0020 C.ar    
   3 C3             1.1884     2.1011     0.0020 C.ar    
   4 C4             2.3894     1.4161    -0.0132 C.ar    
   5 C5             2.4002     0.0338    -0.0211 C.ar    
   6 C6             1.2091    -0.6751    -0.0131 C.ar    
   7 C7            -1.3039     2.1164     0.0197 C.2     
   8 N8            -2.4637     1.4299     0.0215 N.am    
   9 O9            -1.3171     3.3320     0.0264 O.2     
  10 S10           -3.9067     2.2422     0.0328 S.o2    
  11 O11           -4.8874     1.2142     0.0576 O.2     
  12 O12           -3.7825     3.1623     1.1085 O.2     
  13 C13            3.7130    -0.7058    -0.0386 C.3     
  14 C14            4.0437    -1.1753     1.3547 C.ar    
  15 F15            1.2290    -2.0260    -0.0210 F       
  16 C16            3.6189    -2.4134     1.7927 C.ar    
  17 C17            4.7838    -0.3694     2.2093 C.ar    
  18 C18            5.0652    -0.8393     3.4810 C.ar    
  19 C19            4.5999    -2.0945     3.8562 C.ar    
  20 N20            3.9024    -2.8344     3.0110 N.ar    
  21 F21            1.1794     3.4520     0.0089 F       
  22 O22            4.8686    -2.5670     5.0995 O.3     
  23 C23            4.3627    -3.8634     5.4243 C.3     
  24 Cl24           5.9870     0.1255     4.5914 Cl      
  25 C25           -3.9445     3.1198    -1.5543 C.3     
  26 C26            4.9463    -4.8955     4.4573 C.3     
  27 C27            4.7630    -4.2230     6.8565 C.3     
  28 C28            2.8373    -3.8597     5.3067 C.3     
  29 H29           -0.9251    -0.5579     0.0083 H       
  30 H30            3.3211     1.9622    -0.0191 H       
  31 H31           -2.4531     0.4600     0.0162 H       
  32 H32            3.6365    -1.5662    -0.7034 H       
  33 H33            4.5000    -0.0408    -0.3943 H       
  34 H34            3.0468    -3.0458     1.1299 H       
  35 H35            5.1322     0.6015     1.8894 H       
  36 H36           -3.8900     2.3985    -2.3697 H       
  37 H37           -4.8713     3.6880    -1.6333 H       
  38 H38           -3.0950     3.8002    -1.6136 H       
  39 H39            6.0330    -4.8981     4.5410 H       
  40 H40            4.5604    -5.8844     4.7050 H       
  41 H41            4.6611    -4.6393     3.4369 H       
  42 H42            4.3473    -3.4877     7.5455 H       
  43 H43            4.3772    -5.2118     7.1042 H       
  44 H44            5.8498    -4.2256     6.9403 H       
  45 H45            2.5521    -3.6035     4.2864 H       
  46 H46            2.4514    -4.8486     5.5545 H       
  47 H47            2.4215    -3.1244     5.9957 H       
@<TRIPOS>BOND
   1    1    2 ar
   2    1    3 ar
   3    1    7 1
   4    2    6 ar
   5    2   29 1
   6    3    4 ar
   7    3   21 1
   8    4    5 ar
   9    4   30 1
  10    5    6 ar
  11    5   13 1
  12    6   15 1
  13    7    8 am
  14    7    9 2
  15    8   10 am
  16    8   31 1
  17   10   11 2
  18   10   12 2
  19   10   25 1
  20   13   14 1
  21   13   32 1
  22   13   33 1
  23   14   16 ar
  24   14   17 ar
  25   16   20 ar
  26   16   34 1
  27   17   18 ar
  28   17   35 1
  29   18   19 ar
  30   18   24 1
  31   19   20 ar
  32   19   22 1
  33   22   23 1
  34   23   26 1
  35   23   27 1
  36   23   28 1
  37   25   36 1
  38   25   37 1
  39   25   38 1
  40   26   39 1
  41   26   40 1
  42   26   41 1
  43   27   42 1
  44   27   43 1
  45   27   44 1
  46   28   45 1
  47   28   46 1
  48   28   47 1

#	End of record

