#	Name: ASD14940002
#	Creating user name:	WinNT
#	Creation time:	15. 06. 2019 21:31

#	Modifying user name:	WinNT
#	Modification time:	15. 06. 2019 21:31

#	Program:	/corina/corina34_cracker 3.40 0067  02.08.2006

@<TRIPOS>MOLECULE
ASD14940002
  42   45    0    0    0
SMALL
NO_CHARGES


@<TRIPOS>ATOM
   1 C1             0.3404     1.1867    -0.1690 C.ar    
   2 C2             0.5629    -0.1724    -0.2411 C.ar    
   3 C3             1.8551    -0.6656    -0.2377 C.ar    
   4 C4             2.9180     0.2090    -0.1534 C.ar    
   5 C5             2.6949     1.5822    -0.0710 C.ar    
   6 C6             1.4045     2.0793    -0.0919 C.ar    
   7 C7             1.0858     3.5380    -0.0580 C.3     
   8 S8             4.0806     2.6567     0.0802 S.3     
   9 C9             3.3948     4.0995     0.8189 C.ar    
  10 C10            2.0479     4.3903     0.7026 C.ar    
  11 C11            1.5506     5.5330     1.3202 C.ar    
  12 C12            4.2369     4.9522     1.5303 C.ar    
  13 C13            3.7334     6.0857     2.1325 C.ar    
  14 C14            2.3845     6.3729     2.0278 C.ar    
  15 N15            1.0297     4.0279    -1.4376 N.am    
  16 S16           -0.4293     4.1644    -2.2090 S.o2    
  17 O17           -0.1575     4.7294    -3.4843 O.2     
  18 O18           -1.0928     2.9198    -2.0358 O.2     
  19 C19           -1.3760     5.3601    -1.3266 C.ar    
  20 C20           -2.8619     7.2362     0.0575 C.ar    
  21 C21           -3.0173     5.8907     0.3339 C.ar    
  22 C22           -2.2745     4.9526    -0.3584 C.ar    
  23 C23           -1.2161     6.7060    -1.5986 C.ar    
  24 C24           -1.9589     7.6440    -0.9064 C.ar    
  25 C25           -3.6716     8.2588     0.8122 C.3     
  26 H26           -0.6720     1.5628    -0.1770 H       
  27 H27           -0.2736    -0.8530    -0.2999 H       
  28 H28            2.0307    -1.7293    -0.3004 H       
  29 H29            3.9284    -0.1723    -0.1508 H       
  30 H30            0.0970     3.6615     0.3837 H       
  31 H31            0.4986     5.7655     1.2444 H       
  32 H32            5.2896     4.7241     1.6100 H       
  33 H33            4.3886     6.7458     2.6816 H       
  34 H34            1.9835     7.2565     2.5020 H       
  35 H35            1.8471     4.2722    -1.8991 H       
  36 H36           -3.7228     5.5720     1.0870 H       
  37 H37           -2.3965     3.9014    -0.1430 H       
  38 H38           -0.5106     7.0246    -2.3517 H       
  39 H39           -1.8375     8.6952    -1.1223 H       
  40 H40           -3.1274     8.5661     1.7053 H       
  41 H41           -3.8450     9.1267     0.1759 H       
  42 H42           -4.6281     7.8235     1.1014 H       
@<TRIPOS>BOND
   1    1    2 ar
   2    1    6 ar
   3    1   26 1
   4    2    3 ar
   5    2   27 1
   6    3    4 ar
   7    3   28 1
   8    4    5 ar
   9    4   29 1
  10    5    6 ar
  11    5    8 1
  12    6    7 1
  13    7   10 1
  14    7   15 1
  15    7   30 1
  16    8    9 1
  17    9   12 ar
  18    9   10 ar
  19   10   11 ar
  20   11   14 ar
  21   11   31 1
  22   12   13 ar
  23   12   32 1
  24   13   14 ar
  25   13   33 1
  26   14   34 1
  27   15   16 am
  28   15   35 1
  29   16   17 2
  30   16   18 2
  31   16   19 1
  32   19   23 ar
  33   19   22 ar
  34   20   21 ar
  35   20   24 ar
  36   20   25 1
  37   21   22 ar
  38   21   36 1
  39   22   37 1
  40   23   24 ar
  41   23   38 1
  42   24   39 1
  43   25   40 1
  44   25   41 1
  45   25   42 1

#	End of record

