#	Name: ASD11030062
#	Creating user name:	WinNT
#	Creation time:	15. 06. 2019 21:29

#	Modifying user name:	WinNT
#	Modification time:	15. 06. 2019 21:29

#	Program:	/corina/corina34_cracker 3.40 0067  02.08.2006

@<TRIPOS>MOLECULE
ASD11030062
  80   85    0    0    0
SMALL
NO_CHARGES


@<TRIPOS>ATOM
   1 C1             0.8683     0.2285     2.0639 C.2     
   2 N2             0.1189    -0.3770     1.1846 N.2     
   3 C3             1.8946     1.2395     1.7606 C.2     
   4 C4             1.6578     2.4630     1.2162 C.2     
   5 C5             2.9005     3.1265     1.0859 C.ar    
   6 C6             3.8875     2.2468     1.5757 C.ar    
   7 N7             3.2448     1.0979     1.9888 N.pl3   
   8 C8             3.2683     4.3894     0.5981 C.ar    
   9 C9             4.5764     4.7646     0.5973 C.ar    
  10 C10            5.5651     3.8960     1.0826 C.ar    
  11 C11            5.2174     2.6380     1.5708 C.ar    
  12 C12            3.8933    -0.0817     2.5669 C.3     
  13 C13            0.3116     3.0136     0.8215 C.3     
  14 C14            6.9796     4.3157     1.0752 C.2     
  15 N15            7.3193     5.5315     0.6029 N.am    
  16 O16            7.8388     3.5649     1.4953 O.2     
  17 C17            8.7114     5.9821     0.6738 C.3     
  18 C18            9.6361     5.1640    -0.1904 C.2     
  19 N19            9.1786     4.6101    -1.3307 N.am    
  20 O20           10.7919     5.0040     0.1403 O.2     
  21 C21           10.0651     3.9829    -2.2059 C.ar    
  22 C22           11.1827     3.3204    -1.7039 C.ar    
  23 C23           12.0575     2.7028    -2.5509 C.ar    
  24 C24           11.8351     2.7321    -3.9333 C.ar    
  25 C25           10.7077     3.4001    -4.4438 C.ar    
  26 C26            9.8263     4.0168    -3.5742 C.ar    
  27 C27            8.8778     7.4997     0.4894 C.3     
  28 C28            9.9423     7.4383     1.5975 C.3     
  29 C29            9.2232     6.1775     2.1107 C.3     
  30 C30           12.7741     2.0696    -4.8447 C.2     
  31 C31           13.8579     1.4282    -4.3503 C.2     
  32 C32            0.0222     4.3079     1.6018 C.3     
  33 C33           -0.1421     5.4273     0.5531 C.3     
  34 C34           -0.5458     4.6789    -0.7414 C.3     
  35 C35            0.3132     3.3918    -0.6741 C.3     
  36 C36           -0.7458    -1.2519     1.6398 C.2     
  37 C37           -0.7589    -1.4235     2.9673 C.2     
  38 S38            0.4497    -0.3525     3.6736 S.3     
  39 C39           14.7642     0.7887    -5.2300 C.2     
  40 O40           14.5684     0.8159    -6.4305 O.2     
  41 O41           15.8454     0.1490    -4.7369 O.3     
  42 O42           10.4831     3.4349    -5.7815 O.3     
  43 C43            9.2330     4.0640    -7.7518 C.3     
  44 C44            9.3175     4.1322    -6.2256 C.3     
  45 H45            2.5130     5.0640     0.2227 H       
  46 H46            4.8552     5.7374     0.2201 H       
  47 H47            5.9804     1.9713     1.9446 H       
  48 H48            3.9439     0.0259     3.6504 H       
  49 H49            3.3169    -0.9724     2.3167 H       
  50 H50            4.9015    -0.1763     2.1636 H       
  51 H51           -0.4660     2.2761     1.0200 H       
  52 H52            6.6420     6.1081     0.2159 H       
  53 H53            8.2328     4.6477    -1.5427 H       
  54 H54           11.3586     3.2954    -0.6386 H       
  55 H55           12.9221     2.1913    -2.1544 H       
  56 H56            8.9582     4.5314    -3.9590 H       
  57 H57            9.2777     7.7799    -0.4851 H       
  58 H58            7.9927     8.0728     0.7655 H       
  59 H59           10.9486     7.2447     1.2261 H       
  60 H60            9.9001     8.2786     2.2905 H       
  61 H61            8.4322     6.3884     2.8304 H       
  62 H62            9.9023     5.3929     2.4445 H       
  63 H63           12.6003     2.0937    -5.9103 H       
  64 H64           14.0317     1.4041    -3.2847 H       
  65 H65           -0.8964     4.1987     2.1784 H       
  66 H66            0.8553     4.5377     2.2660 H       
  67 H67           -0.9281     6.1198     0.8543 H       
  68 H68            0.7998     5.9568     0.4097 H       
  69 H69           -1.6082     4.4352    -0.7314 H       
  70 H70           -0.2916     5.2673    -1.6231 H       
  71 H71            1.3287     3.5925    -1.0158 H       
  72 H72           -0.1405     2.5988    -1.2686 H       
  73 H73           -1.4066    -1.7996     0.9843 H       
  74 H74           -1.4020    -2.0989     3.5120 H       
  75 H75           16.4049    -0.2565    -5.4134 H       
  76 H76            8.3439     4.5958    -8.0905 H       
  77 H77           10.1199     4.5256    -8.1858 H       
  78 H78            9.1749     3.0220    -8.0663 H       
  79 H79            8.4305     3.6705    -5.7916 H       
  80 H80            9.3755     5.1742    -5.9111 H       
@<TRIPOS>BOND
   1    1    2 2
   2    1    3 1
   3    1   38 1
   4    2   36 1
   5    3    4 2
   6    3    7 1
   7    4    5 1
   8    4   13 1
   9    5    6 ar
  10    5    8 ar
  11    6    7 1
  12    6   11 ar
  13    7   12 1
  14    8    9 ar
  15    8   45 1
  16    9   10 ar
  17    9   46 1
  18   10   11 ar
  19   10   14 1
  20   11   47 1
  21   12   48 1
  22   12   49 1
  23   12   50 1
  24   13   32 1
  25   13   35 1
  26   13   51 1
  27   14   15 am
  28   14   16 2
  29   15   17 1
  30   15   52 1
  31   17   18 1
  32   17   27 1
  33   17   29 1
  34   18   19 am
  35   18   20 2
  36   19   21 1
  37   19   53 1
  38   21   22 ar
  39   21   26 ar
  40   22   23 ar
  41   22   54 1
  42   23   24 ar
  43   23   55 1
  44   24   25 ar
  45   24   30 1
  46   25   26 ar
  47   25   42 1
  48   26   56 1
  49   27   28 1
  50   27   57 1
  51   27   58 1
  52   28   29 1
  53   28   59 1
  54   28   60 1
  55   29   61 1
  56   29   62 1
  57   30   31 2
  58   30   63 1
  59   31   39 1
  60   31   64 1
  61   32   33 1
  62   32   65 1
  63   32   66 1
  64   33   34 1
  65   33   67 1
  66   33   68 1
  67   34   35 1
  68   34   69 1
  69   34   70 1
  70   35   71 1
  71   35   72 1
  72   36   37 2
  73   36   73 1
  74   37   38 1
  75   37   74 1
  76   39   40 2
  77   39   41 1
  78   41   75 1
  79   42   44 1
  80   43   44 1
  81   43   76 1
  82   43   77 1
  83   43   78 1
  84   44   79 1
  85   44   80 1

#	End of record

