#	Name: ASD13490047
#	Creating user name:	WinNT
#	Creation time:	15. 06. 2019 21:30

#	Modifying user name:	WinNT
#	Modification time:	15. 06. 2019 21:30

#	Program:	/corina/corina34_cracker 3.40 0067  02.08.2006

@<TRIPOS>MOLECULE
ASD13490047
  33   35    0    0    0
SMALL
NO_CHARGES


@<TRIPOS>ATOM
   1 C1            -0.6631     1.9902    -0.1208 C.ar    
   2 C2            -1.0016     0.6542    -0.1130 C.ar    
   3 C3            -0.0052    -0.3162     0.0081 C.ar    
   4 C4             1.3317     0.0705     0.1208 C.ar    
   5 C5             1.6637     1.4080     0.1123 C.ar    
   6 C6             0.6690     2.3719    -0.0084 C.ar    
   7 C7            -0.3648    -1.7498     0.0174 C.2     
   8 O8            -1.6082    -2.2688    -0.0828 O.3     
   9 C9            -1.4982    -3.6038    -0.0327 C.2     
  10 N10           -0.2406    -3.9223     0.0937 N.2     
  11 C11            0.4916    -2.7983     0.1223 C.2     
  12 N12            1.0087     3.7261    -0.0172 N.am    
  13 S13            2.0733     4.3200     1.1036 S.o2    
  14 C14            1.3559     4.0626     2.6921 C.ar    
  15 O15            3.2243     3.4888     1.0436 O.2     
  16 O16            2.1194     5.7267     0.9073 O.2     
  17 C17           -0.1090     4.7778     4.4473 C.ar    
  18 C18            0.4544     4.9792     3.1998 C.ar    
  19 C19            1.6904     2.9412     3.4277 C.ar    
  20 C20            1.1274     2.7385     4.6752 C.ar    
  21 C21            0.2295     3.6583     5.1862 C.ar    
  22 Cl22          -1.2403     5.9297     5.0853 Cl      
  23 Cl23           1.5473     1.3298     5.5987 Cl      
  24 H24           -1.4331     2.7412    -0.2189 H       
  25 H25           -2.0367     0.3583    -0.2000 H       
  26 H26            2.1047    -0.6778     0.2149 H       
  27 H27            2.6975     1.7078     0.1998 H       
  28 H28           -2.3194    -4.3030    -0.0879 H       
  29 H29            1.5660    -2.7384     0.2147 H       
  30 H30            0.6211     4.3191    -0.6798 H       
  31 H31            0.1900     5.8529     2.6227 H       
  32 H32            2.3912     2.2229     3.0285 H       
  33 H33           -0.2098     3.5009     6.1602 H       
@<TRIPOS>BOND
   1    1    2 ar
   2    1    6 ar
   3    1   24 1
   4    2    3 ar
   5    2   25 1
   6    3    4 ar
   7    3    7 1
   8    4    5 ar
   9    4   26 1
  10    5    6 ar
  11    5   27 1
  12    6   12 1
  13    7    8 1
  14    7   11 2
  15    8    9 1
  16    9   10 2
  17    9   28 1
  18   10   11 1
  19   11   29 1
  20   12   13 am
  21   12   30 1
  22   13   14 1
  23   13   15 2
  24   13   16 2
  25   14   19 ar
  26   14   18 ar
  27   17   18 ar
  28   17   21 ar
  29   17   22 1
  30   18   31 1
  31   19   20 ar
  32   19   32 1
  33   20   21 ar
  34   20   23 1
  35   21   33 1

#	End of record

