#	Name: ASD16570001
#	Creating user name:	WinNT
#	Creation time:	15. 06. 2019 21:31

#	Modifying user name:	WinNT
#	Modification time:	15. 06. 2019 21:31

#	Program:	/corina/corina34_cracker 3.40 0067  02.08.2006

@<TRIPOS>MOLECULE
ASD16570001
  73   77    0    0    0
SMALL
NO_CHARGES


@<TRIPOS>ATOM
   1 C1            -0.0184     1.5028     0.0103 C.2     
   2 C2             0.0021    -0.0041     0.0020 C.3     
   3 C3            -1.4333    -0.5336     0.0129 C.3     
   4 C4            -1.4126    -2.0635     0.0045 C.3     
   5 C5            -2.8479    -2.5931     0.0153 C.3     
   6 C6            -2.8272    -4.1229     0.0069 C.3     
   7 C7            -4.2626    -4.6525     0.0178 C.3     
   8 C8            -5.6573    -8.1837     0.0121 C.1     
   9 C9            -5.6413    -9.3576     0.0057 C.1     
  10 C10           -4.3972   -12.8527    -0.0364 C.ar    
  11 C11           -5.5883   -13.5624    -0.0342 C.ar    
  12 C12           -5.8364   -15.0560    -0.0508 C.3     
  13 C13           -7.3104   -15.2161    -0.4791 C.3     
  14 C14           -7.9372   -13.8845    -0.0146 C.3     
  15 C15           -6.8172   -11.5066     0.0054 C.ar    
  16 N16           -7.9318   -16.3514     0.2074 N.pl3   
  17 C17           -7.9236   -17.5996    -0.3782 C.ar    
  18 C18           -8.4902   -19.9662    -0.3856 C.ar    
  19 C19           -9.7044   -19.6964     2.0927 C.ar    
  20 C20           -9.1421   -18.5948     1.5172 C.ar    
  21 C21           -8.5245   -18.7091     0.2673 C.ar    
  22 C22           -6.6950   -19.1363    -3.4617 C.ar    
  23 C23           -6.6720   -20.3749    -4.1103 C.ar    
  24 C24           -6.0584   -20.4562    -5.3482 C.ar    
  25 C25           -5.4930   -19.3203    -5.8990 C.ar    
  26 C26           -6.1028   -18.0390    -4.0837 C.ar    
  27 O27           -1.0727     2.0926     0.0286 O.2     
  28 C28           -4.2418    -6.1823     0.0094 C.3     
  29 C29           -5.6772    -6.7119     0.0202 C.3     
  30 C30           -5.6219   -10.7895    -0.0022 C.ar    
  31 C31           -6.7967   -12.8889    -0.0133 C.ar    
  32 C32           -4.4063   -11.4746    -0.0180 C.ar    
  33 C33           -9.6775   -20.9311     1.4504 C.ar    
  34 C34           -9.0835   -21.0765     0.2322 C.ar    
  35 N35           -7.8939   -20.0561    -1.5819 N.ar    
  36 C36           -7.3445   -18.9917    -2.1366 C.ar    
  37 N37           -7.3588   -17.7912    -1.5608 N.ar    
  38 N38           -5.5303   -18.1652    -5.2633 N.ar    
  39 H39            0.5123    -0.3556    -0.8948 H       
  40 H40            0.5293    -0.3651     0.8851 H       
  41 H41           -1.9435    -0.1821     0.9097 H       
  42 H42           -1.9605    -0.1726    -0.8702 H       
  43 H43           -0.9024    -2.4150    -0.8923 H       
  44 H44           -0.8854    -2.4246     0.8875 H       
  45 H45           -3.3581    -2.2415     0.9121 H       
  46 H46           -3.3751    -2.2320    -0.8677 H       
  47 H47           -2.3170    -4.4744    -0.8899 H       
  48 H48           -2.3000    -4.4840     0.8900 H       
  49 H49           -4.7728    -4.3010     0.9146 H       
  50 H50           -4.7898    -4.2914    -0.8653 H       
  51 H51           -3.4564   -13.3830    -0.0483 H       
  52 H52           -5.1783   -15.5408    -0.7719 H       
  53 H53           -5.6821   -15.4761     0.9431 H       
  54 H54           -7.3899   -15.3253    -1.5607 H       
  55 H55           -8.7140   -13.5688    -0.7111 H       
  56 H56           -8.3484   -13.9898     0.9893 H       
  57 H57           -7.7609   -10.9816     0.0179 H       
  58 H58           -8.3489   -16.2250     1.0740 H       
  59 H59          -10.1813   -19.6083     3.0577 H       
  60 H60           -9.1738   -17.6410     2.0228 H       
  61 H61           -7.1212   -21.2460    -3.6567 H       
  62 H62           -6.0212   -21.3964    -5.8783 H       
  63 H63           -5.0131   -19.3803    -6.8647 H       
  64 H64           -6.1135   -17.0762    -3.5943 H       
  65 H65           -3.7316    -6.5338    -0.8874 H       
  66 H66           -3.7146    -6.5434     0.8924 H       
  67 H67           -6.2044    -6.3508    -0.8628 H       
  68 H68           -6.1874    -6.3604     0.9170 H       
  69 H69           -3.4756   -10.9267    -0.0153 H       
  70 H70          -10.1336   -21.7874     1.9250 H       
  71 H71           -9.0701   -22.0406    -0.2543 H       
  72 O72            1.1348     2.1897     0.0030 O.3     
  73 H73            1.0711     3.1546     0.0088 H       
@<TRIPOS>BOND
   1    1    2 1
   2    1   72 1
   3    1   27 2
   4    2    3 1
   5    2   39 1
   6    2   40 1
   7    3    4 1
   8    3   41 1
   9    3   42 1
  10    4    5 1
  11    4   43 1
  12    4   44 1
  13    5    6 1
  14    5   45 1
  15    5   46 1
  16    6    7 1
  17    6   47 1
  18    6   48 1
  19    7   28 1
  20    7   49 1
  21    7   50 1
  22    8   29 1
  23    8    9 3
  24    9   30 1
  25   10   32 ar
  26   10   51 1
  27   10   11 ar
  28   11   12 1
  29   11   31 ar
  30   12   52 1
  31   12   53 1
  32   12   13 1
  33   13   14 1
  34   13   54 1
  35   13   16 1
  36   14   31 1
  37   14   55 1
  38   14   56 1
  39   15   30 ar
  40   15   57 1
  41   15   31 ar
  42   16   58 1
  43   16   17 1
  44   17   37 ar
  45   17   21 ar
  46   18   35 ar
  47   18   21 ar
  48   18   34 ar
  49   19   20 ar
  50   19   59 1
  51   19   33 ar
  52   20   21 ar
  53   20   60 1
  54   22   26 ar
  55   22   23 ar
  56   22   36 1
  57   23   24 ar
  58   23   61 1
  59   24   25 ar
  60   24   62 1
  61   25   38 ar
  62   25   63 1
  63   26   38 ar
  64   26   64 1
  65   28   65 1
  66   28   66 1
  67   28   29 1
  68   29   67 1
  69   29   68 1
  70   30   32 ar
  71   32   69 1
  72   33   34 ar
  73   33   70 1
  74   34   71 1
  75   35   36 ar
  76   36   37 ar
  77   72   73 1

#	End of record

