#	Name: ASD13620008
#	Creating user name:	WinNT
#	Creation time:	15. 06. 2019 21:30

#	Modifying user name:	WinNT
#	Modification time:	15. 06. 2019 21:30

#	Program:	/corina/corina34_cracker 3.40 0067  02.08.2006

@<TRIPOS>MOLECULE
ASD13620008
  52   53    0    0    0
SMALL
NO_CHARGES


@<TRIPOS>ATOM
   1 C1            -0.0167     1.3833     0.0096 C.ar    
   2 C2             0.0021    -0.0041     0.0020 C.ar    
   3 C3             1.2081    -0.6771    -0.0131 C.ar    
   4 C4             2.3962     0.0305    -0.0202 C.ar    
   5 C5             2.3801     1.4128    -0.0126 C.ar    
   6 C6             1.1763     2.0908     0.0021 C.ar    
   7 C7            -1.2922    -0.7759     0.0107 C.3     
   8 C8            -1.3448    -1.6452     1.2328 C.2     
   9 C9            -1.7592    -2.8715     1.2332 C.2     
  10 C10           -2.2360    -3.5983     0.0099 C.3     
  11 C11           -2.5625    -2.5998    -1.1026 C.3     
  12 C12           -1.3785    -1.6359    -1.2520 C.3     
  13 C13           -1.7626    -3.6158     2.5436 C.3     
  14 C14           -1.5932    -0.7518    -2.4534 C.2     
  15 C15           -2.8134     0.1290    -2.5322 C.3     
  16 C16           -0.7192    -0.7490    -3.4292 C.2     
  17 C17            3.6767     2.1809    -0.0204 C.3     
  18 C18            4.1023     2.4485    -1.4654 C.3     
  19 C19            5.4186     3.2283    -1.4733 C.3     
  20 C20            5.8442     3.4960    -2.9183 C.3     
  21 C21            7.1606     4.2757    -2.9262 C.3     
  22 O22           -1.2021     2.0479     0.0189 O.3     
  23 H23            1.2233    -1.7570    -0.0191 H       
  24 H24            3.3382    -0.4976    -0.0313 H       
  25 H25            1.1643     3.1708     0.0076 H       
  26 H26           -2.1291    -0.0777     0.0278 H       
  27 H27           -1.0160    -1.2215     2.1702 H       
  28 H28           -1.4567    -4.2789    -0.3327 H       
  29 H29           -3.1305    -4.1708     0.2555 H       
  30 H30           -2.7205    -3.1339    -2.0396 H       
  31 H31           -3.4603    -2.0399    -0.8406 H       
  32 H32           -0.4562    -2.2044    -1.3718 H       
  33 H33           -1.3922    -2.9624     3.3335 H       
  34 H34           -2.7789    -3.9311     2.7797 H       
  35 H35           -1.1192    -4.4922     2.4654 H       
  36 H36           -2.5911     1.0985    -2.0864 H       
  37 H37           -3.0963     0.2654    -3.5760 H       
  38 H38           -3.6355    -0.3397    -1.9912 H       
  39 H39            0.1552    -1.3803    -3.3727 H       
  40 H40           -0.8731    -0.1155    -4.2902 H       
  41 H41            3.5405     3.1290     0.4998 H       
  42 H42            4.4475     1.5976     0.4833 H       
  43 H43            4.2385     1.5004    -1.9856 H       
  44 H44            3.3314     3.0318    -1.9691 H       
  45 H45            5.2824     4.1764    -0.9531 H       
  46 H46            6.1895     2.6450    -0.9696 H       
  47 H47            5.9804     2.5478    -3.4385 H       
  48 H48            5.0734     4.0793    -3.4220 H       
  49 H49            7.0244     5.2238    -2.4060 H       
  50 H50            7.9314     3.6924    -2.4225 H       
  51 H51            7.4638     4.4664    -3.9557 H       
  52 H52           -1.5410     2.2354     0.9049 H       
@<TRIPOS>BOND
   1    1    2 ar
   2    1    6 ar
   3    1   22 1
   4    2    3 ar
   5    2    7 1
   6    3    4 ar
   7    3   23 1
   8    4    5 ar
   9    4   24 1
  10    5    6 ar
  11    5   17 1
  12    6   25 1
  13    7    8 1
  14    7   12 1
  15    7   26 1
  16    8    9 2
  17    8   27 1
  18    9   10 1
  19    9   13 1
  20   10   11 1
  21   10   28 1
  22   10   29 1
  23   11   12 1
  24   11   30 1
  25   11   31 1
  26   12   14 1
  27   12   32 1
  28   13   33 1
  29   13   34 1
  30   13   35 1
  31   14   15 1
  32   14   16 2
  33   15   36 1
  34   15   37 1
  35   15   38 1
  36   16   39 1
  37   16   40 1
  38   17   18 1
  39   17   41 1
  40   17   42 1
  41   18   19 1
  42   18   43 1
  43   18   44 1
  44   19   20 1
  45   19   45 1
  46   19   46 1
  47   20   21 1
  48   20   47 1
  49   20   48 1
  50   21   49 1
  51   21   50 1
  52   21   51 1
  53   22   52 1

#	End of record

