#	Name: ASD11030061
#	Creating user name:	WinNT
#	Creation time:	15. 06. 2019 21:29

#	Modifying user name:	WinNT
#	Modification time:	15. 06. 2019 21:29

#	Program:	/corina/corina34_cracker 3.40 0067  02.08.2006

@<TRIPOS>MOLECULE
ASD11030061
  84   89    0    0    0
SMALL
NO_CHARGES


@<TRIPOS>ATOM
   1 C1             0.4097     3.9490     5.2918 C.2     
   2 C2             0.3985     2.8646     6.1242 C.2     
   3 C3             1.5275     4.3712     4.4198 C.2     
   4 C4             1.4090     4.7595     3.1247 C.2     
   5 C5             2.7026     5.0823     2.6487 C.ar    
   6 C6             3.5957     4.8688     3.7185 C.ar    
   7 N7             2.8473     4.4374     4.7961 N.pl3   
   8 C8             3.1865     5.5338     1.4123 C.ar    
   9 C9             4.5173     5.7652     1.2452 C.ar    
  10 C10            5.4132     5.5551     2.3039 C.ar    
  11 C11            4.9484     5.1076     3.5397 C.ar    
  12 C12            3.3750     4.0979     6.1199 C.3     
  13 C13            0.1283     4.8333     2.3338 C.3     
  14 C14            6.8529     5.8088     2.1088 C.2     
  15 N15            7.3053     6.2417     0.9153 N.am    
  16 O16            7.6319     5.6275     3.0249 O.2     
  17 C17            8.7193     6.5867     0.7492 C.3     
  18 C18            9.6347     5.4017     0.9197 C.2     
  19 N19            9.2433     4.1820     0.5005 N.am    
  20 O20           10.7235     5.5456     1.4340 O.2     
  21 C21           10.0439     3.0681     0.7521 C.ar    
  22 C22           10.8164     3.0166     1.9100 C.ar    
  23 C23           11.6040     1.9314     2.1669 C.ar    
  24 C24           11.6395     0.8607     1.2648 C.ar    
  25 C25           10.8610     0.9091     0.0947 C.ar    
  26 C26           10.0631     2.0120    -0.1507 C.ar    
  27 C27            9.0078     7.4108    -0.5167 C.3     
  28 C28            9.9923     8.2290     0.3354 C.3     
  29 C29            9.1517     7.8205     1.5588 C.3     
  30 C30           12.4854    -0.3057     1.5391 C.2     
  31 C31           13.2336    -0.3489     2.6655 C.2     
  32 C32           -0.1102     6.2744     1.8501 C.3     
  33 C33           -0.1383     6.2229     0.3086 C.3     
  34 C34           -0.5241     4.7583    -0.0155 C.3     
  35 C35            0.2368     3.9563     1.0693 C.3     
  36 N36           -0.8010     2.8345     6.7373 N.pl3   
  37 N37           -1.5554     3.9214     6.2798 N.2     
  38 C38           -0.8420     4.5880     5.4121 C.2     
  39 C39           -1.2405     1.8356     7.7147 C.3     
  40 O40           10.8880    -0.1229    -0.7859 O.3     
  41 C41           10.2317    -1.2526    -2.8190 C.3     
  42 C42           10.0707    -0.0024    -1.9519 C.3     
  43 C43           14.0501    -1.4747     2.9302 C.2     
  44 O44           14.0790    -2.4034     2.1447 O.2     
  45 O45           14.7964    -1.5178     4.0538 O.3     
  46 H46            1.2045     2.1596     6.2644 H       
  47 H47            2.5030     5.6976     0.5923 H       
  48 H48            4.8858     6.1125     0.2913 H       
  49 H49            5.6399     4.9466     4.3535 H       
  50 H50            3.3782     4.9880     6.7491 H       
  51 H51            2.7469     3.3327     6.5761 H       
  52 H52            4.3926     3.7203     6.0195 H       
  53 H53           -0.7090     4.5022     2.9480 H       
  54 H54            6.6945     6.3249     0.1663 H       
  55 H55            8.4048     4.0790     0.0239 H       
  56 H56           10.7925     3.8401     2.6084 H       
  57 H57           12.2005     1.8988     3.0666 H       
  58 H58            9.4622     2.0560    -1.0470 H       
  59 H59            9.4883     6.8385    -1.3102 H       
  60 H60            8.1512     7.9863    -0.8676 H       
  61 H61           11.0033     7.8218     0.3464 H       
  62 H62            9.9678     9.2982     0.1250 H       
  63 H63            8.3341     8.5079     1.7760 H       
  64 H64            9.7489     7.5802     2.4384 H       
  65 H65           12.5111    -1.1300     0.8418 H       
  66 H66           13.2080     0.4755     3.3628 H       
  67 H67           -1.0637     6.6424     2.2289 H       
  68 H68            0.7004     6.9204     2.1874 H       
  69 H69           -0.8883     6.9104    -0.0824 H       
  70 H70            0.8450     6.4576    -0.0989 H       
  71 H71           -1.6000     4.6121     0.0796 H       
  72 H72           -0.1820     4.4803    -1.0124 H       
  73 H73            1.2808     3.8249     0.7846 H       
  74 H74           -0.2394     2.9897     1.2335 H       
  75 H75           -1.1530     5.4779     4.8852 H       
  76 H76           -0.9749     2.1678     8.7183 H       
  77 H77           -2.3213     1.7120     7.6470 H       
  78 H78           -0.7522     0.8837     7.5059 H       
  79 H79            9.6083    -1.1607    -3.7084 H       
  80 H80           11.2753    -1.3569    -3.1160 H       
  81 H81            9.9263    -2.1309    -2.2504 H       
  82 H82            9.0272     0.1019    -1.6549 H       
  83 H83           10.3762     0.8760    -2.5205 H       
  84 H84           15.3201    -2.3252     4.1473 H       
@<TRIPOS>BOND
   1    1    2 2
   2    1    3 1
   3    1   38 1
   4    2   36 1
   5    2   46 1
   6    3    4 2
   7    3    7 1
   8    4    5 1
   9    4   13 1
  10    5    6 ar
  11    5    8 ar
  12    6    7 1
  13    6   11 ar
  14    7   12 1
  15    8    9 ar
  16    8   47 1
  17    9   10 ar
  18    9   48 1
  19   10   11 ar
  20   10   14 1
  21   11   49 1
  22   12   50 1
  23   12   51 1
  24   12   52 1
  25   13   32 1
  26   13   35 1
  27   13   53 1
  28   14   15 am
  29   14   16 2
  30   15   17 1
  31   15   54 1
  32   17   18 1
  33   17   27 1
  34   17   29 1
  35   18   19 am
  36   18   20 2
  37   19   21 1
  38   19   55 1
  39   21   22 ar
  40   21   26 ar
  41   22   23 ar
  42   22   56 1
  43   23   24 ar
  44   23   57 1
  45   24   25 ar
  46   24   30 1
  47   25   26 ar
  48   25   40 1
  49   26   58 1
  50   27   28 1
  51   27   59 1
  52   27   60 1
  53   28   29 1
  54   28   61 1
  55   28   62 1
  56   29   63 1
  57   29   64 1
  58   30   31 2
  59   30   65 1
  60   31   43 1
  61   31   66 1
  62   32   33 1
  63   32   67 1
  64   32   68 1
  65   33   34 1
  66   33   69 1
  67   33   70 1
  68   34   35 1
  69   34   71 1
  70   34   72 1
  71   35   73 1
  72   35   74 1
  73   36   37 1
  74   36   39 1
  75   37   38 2
  76   38   75 1
  77   39   76 1
  78   39   77 1
  79   39   78 1
  80   40   42 1
  81   41   42 1
  82   41   79 1
  83   41   80 1
  84   41   81 1
  85   42   82 1
  86   42   83 1
  87   43   44 2
  88   43   45 1
  89   45   84 1

#	End of record

