#	Name: ASD13750001
#	Creating user name:	WinNT
#	Creation time:	15. 06. 2019 21:30

#	Modifying user name:	WinNT
#	Modification time:	15. 06. 2019 21:30

#	Program:	/corina/corina34_cracker 3.40 0067  02.08.2006

@<TRIPOS>MOLECULE
ASD13750001
  16   17    0    0    0
SMALL
NO_CHARGES


@<TRIPOS>ATOM
   1 O1            -0.0161     1.3395     0.0094 O.3     
   2 C2             0.0021    -0.0041     0.0020 C.2     
   3 C3             1.2760    -0.4347    -0.0125 C.2     
   4 C4             2.1043     0.7116    -0.0142 C.2     
   5 C5             1.2503     1.8106    -0.0002 C.2     
   6 N6             3.3947     1.1743    -0.0237 N.pl3   
   7 C7             3.3654     2.5560    -0.0158 C.2     
   8 C8             2.0471     2.9601    -0.0012 C.2     
   9 C9             4.5324     3.4382    -0.0208 C.2     
  10 O10            5.7752     2.9128    -0.0343 O.3     
  11 O11            4.3823     4.6454    -0.0128 O.2     
  12 H12           -0.8711    -0.6397     0.0073 H       
  13 H13            1.6049    -1.4633    -0.0211 H       
  14 H14            4.1937     0.6245    -0.0342 H       
  15 H15            1.6935     3.9806     0.0072 H       
  16 H16            6.4814     3.5734    -0.0367 H       
@<TRIPOS>BOND
   1    1    2 1
   2    1    5 1
   3    2    3 2
   4    2   12 1
   5    3    4 1
   6    3   13 1
   7    4    6 1
   8    4    5 2
   9    5    8 1
  10    6    7 1
  11    6   14 1
  12    7    8 2
  13    7    9 1
  14    8   15 1
  15    9   10 1
  16    9   11 2
  17   10   16 1

#	End of record

