#	Name: ASD15230001
#	Creating user name:	WinNT
#	Creation time:	15. 06. 2019 21:31

#	Modifying user name:	WinNT
#	Modification time:	15. 06. 2019 21:31

#	Program:	/corina/corina34_cracker 3.40 0067  02.08.2006

@<TRIPOS>MOLECULE
ASD15230001
  56   57    0    0    0
SMALL
NO_CHARGES


@<TRIPOS>ATOM
   1 C1            -0.1942     1.2136     0.1540 C.3     
   2 C2            -0.8281     1.6460    -1.1431 C.2     
   3 C3            -3.1861     0.0628    -3.5624 C.3     
   4 C4            -2.9059     0.6626    -9.4191 C.3     
   5 O5            -3.3639     1.1002    -8.1382 O.3     
   6 C6            -3.4753     2.5195    -8.0145 C.3     
   7 C7            -3.9710     2.8717    -6.6105 C.3     
   8 O8            -2.9890     2.4842    -5.6474 O.3     
   9 C9            -3.2733     2.7269    -4.3507 C.2     
  10 O10           -4.3275     3.2537    -4.0473 O.2     
  11 C11           -2.3463     2.3692    -3.3446 C.2     
  12 C12           -2.2800     1.0918    -2.9369 C.2     
  13 N13           -1.4010     0.7101    -1.9602 N.pl3   
  14 C14           -0.8286     2.9473    -1.4804 C.2     
  15 C15           -1.4470     3.4235    -2.7641 C.3     
  16 C16           -0.3593     3.7485    -3.7552 C.ar    
  17 C17           -0.2299     5.0356    -4.2418 C.ar    
  18 C18            0.7678     5.3337    -5.1515 C.ar    
  19 C19            1.6359     4.3446    -5.5738 C.ar    
  20 C20            1.5070     3.0573    -5.0862 C.ar    
  21 C21            0.5127     2.7604    -4.1733 C.ar    
  22 N22            0.9058     6.7119    -5.6734 N.pl3   
  23 O23            0.1404     7.5834    -5.3016 O.2     
  24 O24            1.7846     6.9745    -6.4748 O.2     
  25 C25           -0.2346     3.8883    -0.6078 C.2     
  26 O26            0.2697     3.5169     0.4355 O.2     
  27 O27           -0.2270     5.1982    -0.9322 O.3     
  28 C28            0.3901     6.0928    -0.0043 C.3     
  29 C29            0.9754     7.2875    -0.7599 C.3     
  30 C30           -0.6536     6.5860     0.9997 C.3     
  31 H31           -0.2908     0.1334     0.2632 H       
  32 H32            0.8613     1.4857     0.1509 H       
  33 H33           -0.6947     1.7091     0.9859 H       
  34 H34           -2.7330    -0.3097    -4.4811 H       
  35 H35           -3.3310    -0.7642    -2.8674 H       
  36 H36           -4.1496     0.5183    -3.7911 H       
  37 H37           -3.6015     0.9989   -10.1880 H       
  38 H38           -1.9185     1.0810    -9.6144 H       
  39 H39           -2.8484    -0.4258    -9.4321 H       
  40 H40           -2.4997     2.9764    -8.1806 H       
  41 H41           -4.1827     2.8943    -8.7542 H       
  42 H42           -4.1408     3.9463    -6.5441 H       
  43 H43           -4.9035     2.3435    -6.4113 H       
  44 H44           -1.1829    -0.2282    -1.8469 H       
  45 H45           -2.0302     4.3225    -2.5647 H       
  46 H46           -0.9082     5.8084    -3.9119 H       
  47 H47            2.4148     4.5773    -6.2848 H       
  48 H48            2.1852     2.2844    -5.4165 H       
  49 H49            0.4120     1.7548    -3.7924 H       
  50 H50            1.1875     5.5726     0.5265 H       
  51 H51            0.1781     7.8077    -1.2907 H       
  52 H52            1.4461     7.9699    -0.0522 H       
  53 H53            1.7190     6.9361    -1.4753 H       
  54 H54           -0.1829     7.2684     1.7075 H       
  55 H55           -1.4510     7.1062     0.4690 H       
  56 H56           -1.0706     5.7349     1.5381 H       
@<TRIPOS>BOND
   1    1   31 1
   2    1   32 1
   3    1   33 1
   4    1    2 1
   5    2   13 1
   6    2   14 2
   7    3   34 1
   8    3   35 1
   9    3   36 1
  10    3   12 1
  11    4    5 1
  12    4   37 1
  13    4   38 1
  14    4   39 1
  15    5    6 1
  16    6    7 1
  17    6   40 1
  18    6   41 1
  19    7    8 1
  20    7   42 1
  21    7   43 1
  22    8    9 1
  23    9   10 2
  24    9   11 1
  25   11   12 2
  26   11   15 1
  27   12   13 1
  28   13   44 1
  29   14   15 1
  30   14   25 1
  31   15   45 1
  32   15   16 1
  33   16   17 ar
  34   16   21 ar
  35   17   46 1
  36   17   18 ar
  37   18   19 ar
  38   18   22 1
  39   19   20 ar
  40   19   47 1
  41   20   21 ar
  42   20   48 1
  43   21   49 1
  44   22   23 2
  45   22   24 2
  46   25   27 1
  47   25   26 2
  48   27   28 1
  49   28   30 1
  50   28   29 1
  51   28   50 1
  52   29   51 1
  53   29   52 1
  54   29   53 1
  55   30   54 1
  56   30   55 1
  57   30   56 1

#	End of record

