#	Name: ASD11000304
#	Creating user name:	WinNT
#	Creation time:	15. 06. 2019 21:29

#	Modifying user name:	WinNT
#	Modification time:	15. 06. 2019 21:29

#	Program:	/corina/corina34_cracker 3.40 0067  02.08.2006

@<TRIPOS>MOLECULE
ASD11000304
  43   46    0    0    0
SMALL
NO_CHARGES


@<TRIPOS>ATOM
   1 N1            -0.0144     1.3253     0.0177 N.ar    
   2 C2             0.0026    -0.0050     0.0129 C.ar    
   3 N3             1.1650    -0.6517     0.0114 N.ar    
   4 C4             2.2971     0.0285     0.0147 C.ar    
   5 N5             2.2761     1.3514     0.0199 N.ar    
   6 C6             1.1216     1.9984     0.0209 C.ar    
   7 N7            -1.1834    -0.7127     0.0100 N.pl3   
   8 C8            -2.4014    -0.0364     0.1313 C.ar    
   9 C9            -3.5260    -0.5028    -0.5373 C.ar    
  10 C10           -4.7273     0.1675    -0.4154 C.ar    
  11 C11           -4.8113     1.3017     0.3712 C.ar    
  12 C12           -3.6934     1.7689     1.0378 C.ar    
  13 C13           -2.4905     1.0998     0.9251 C.ar    
  14 C14           -6.1239     2.0305     0.5018 C.3     
  15 F15           -6.8405     1.5101     1.5848 F       
  16 F16           -5.8822     3.3921     0.7137 F       
  17 F17           -6.8675     1.8660    -0.6717 F       
  18 C18            3.6146    -0.7032     0.0129 C.3     
  19 C19            4.0615    -0.9456    -1.4301 C.3     
  20 N20            8.8405    -3.9029    -1.4377 N.pl3   
  21 N21            8.2977    -5.1920    -1.4417 N.2     
  22 C22            6.9967    -5.1295    -1.4420 C.2     
  23 C23            6.6181    -3.7202    -1.4379 C.ar    
  24 C24            5.3941    -3.0418    -1.4368 C.ar    
  25 C25            5.3789    -1.6772    -1.4318 C.ar    
  26 C26            6.5667    -0.9559    -1.4289 C.ar    
  27 C27            7.7737    -1.5955    -1.4308 C.ar    
  28 C28            7.8207    -2.9875    -1.4353 C.ar    
  29 H29            1.1086     3.0783     0.0245 H       
  30 H30           -1.1716    -1.6788    -0.0762 H       
  31 H31           -3.4609    -1.3884    -1.1520 H       
  32 H32           -5.6021    -0.1944    -0.9353 H       
  33 H33           -3.7623     2.6552     1.6510 H       
  34 H34           -1.6191     1.4623     1.4500 H       
  35 H35            4.3640    -0.1034     0.5295 H       
  36 H36            3.4998    -1.6595     0.5232 H       
  37 H37            3.3121    -1.5454    -1.9467 H       
  38 H38            4.1763     0.0107    -1.9404 H       
  39 H39            9.7870    -3.6908    -1.4332 H       
  40 H40            6.3192    -5.9706    -1.4452 H       
  41 H41            4.4667    -3.5951    -1.4403 H       
  42 H42            6.5351     0.1236    -1.4253 H       
  43 H43            8.6895    -1.0230    -1.4291 H       
@<TRIPOS>BOND
   1    1    2 ar
   2    1    6 ar
   3    2    3 ar
   4    2    7 1
   5    3    4 ar
   6    4    5 ar
   7    4   18 1
   8    5    6 ar
   9    6   29 1
  10    7    8 1
  11    7   30 1
  12    8    9 ar
  13    8   13 ar
  14    9   10 ar
  15    9   31 1
  16   10   11 ar
  17   10   32 1
  18   11   12 ar
  19   11   14 1
  20   12   13 ar
  21   12   33 1
  22   13   34 1
  23   14   15 1
  24   14   16 1
  25   14   17 1
  26   18   19 1
  27   18   35 1
  28   18   36 1
  29   19   25 1
  30   19   37 1
  31   19   38 1
  32   20   21 1
  33   20   28 1
  34   20   39 1
  35   21   22 2
  36   22   23 1
  37   22   40 1
  38   23   24 ar
  39   23   28 ar
  40   24   25 ar
  41   24   41 1
  42   25   26 ar
  43   26   27 ar
  44   26   42 1
  45   27   28 ar
  46   27   43 1

#	End of record

