#	Name: ASD10410112
#	Creating user name:	WinNT
#	Creation time:	15. 06. 2019 21:26

#	Modifying user name:	WinNT
#	Modification time:	15. 06. 2019 21:26

#	Program:	/corina/corina34_cracker 3.40 0067  02.08.2006

@<TRIPOS>MOLECULE
ASD10410112
  51   55    0    0    0
SMALL
NO_CHARGES


@<TRIPOS>ATOM
   1 C1             0.0481     1.2900     0.5573 C.ar    
   2 C2            -0.0009     0.0001     0.0449 C.ar    
   3 C3             1.1437    -0.5801    -0.4860 C.ar    
   4 C4             2.3306     0.1252    -0.5040 C.ar    
   5 C5             2.3796     1.4151     0.0084 C.ar    
   6 C6             1.2348     1.9955     0.5390 C.ar    
   7 N7             3.5833     2.1305    -0.0098 N.pl3   
   8 C8             3.5666     3.5107    -0.1121 C.2     
   9 N9             4.6562     4.3287    -0.0381 N.pl3   
  10 N10            2.5007     4.2526    -0.3023 N.2     
  11 C11            2.8588     5.5492    -0.3511 C.2     
  12 C12            4.1963     5.6263    -0.1892 C.2     
  13 N13            1.9903     6.6347    -0.5413 N.pl3   
  14 N14           -1.2037    -0.7152     0.0640 N.3     
  15 C15            5.9778     3.9343     0.1535 C.ar    
  16 C16            6.9925     4.4198    -0.6984 C.ar    
  17 C17            8.3269     3.9960    -0.4726 C.ar    
  18 C18            8.5735     3.1096     0.5931 C.ar    
  19 C19            7.5267     2.6975     1.3596 C.ar    
  20 N20            6.2867     3.1100     1.1350 N.ar    
  21 C21            6.7197     5.3015    -1.7531 C.ar    
  22 C22            7.7396     5.7379    -2.5446 C.ar    
  23 C23            9.0503     5.3215    -2.3225 C.ar    
  24 C24            9.3517     4.4649    -1.3065 C.ar    
  25 C25           -1.0314    -2.0514    -0.5244 C.3     
  26 C26           -2.3525    -2.8192    -0.4292 C.3     
  27 O27           -3.3818    -2.0695    -1.0803 O.3     
  28 C28           -3.5769    -0.7630    -0.5322 C.3     
  29 C29           -2.2682     0.0256    -0.6284 C.3     
  30 H30           -0.8430     1.7428     0.9662 H       
  31 H31            1.1056    -1.5832    -0.8845 H       
  32 H32            3.2208    -0.3263    -0.9162 H       
  33 H33            1.2729     2.9987     0.9371 H       
  34 H34            4.4288     1.6587     0.0493 H       
  35 H35            4.7931     6.5264    -0.1797 H       
  36 H36            1.0389     6.4812    -0.6513 H       
  37 H37            2.3413     7.5387    -0.5627 H       
  38 H38            9.5754     2.7626     0.7987 H       
  39 H39            7.7124     2.0175     2.1779 H       
  40 H40            5.7084     5.6326    -1.9374 H       
  41 H41            7.5283     6.4171    -3.3572 H       
  42 H42            9.8394     5.6831    -2.9652 H       
  43 H43           10.3720     4.1500    -1.1447 H       
  44 H44           -0.7417    -1.9538    -1.5707 H       
  45 H45           -0.2565    -2.5915     0.0196 H       
  46 H46           -2.2457    -3.7889    -0.9153 H       
  47 H47           -2.6149    -2.9635     0.6188 H       
  48 H48           -4.3556    -0.2457    -1.0926 H       
  49 H49           -3.8749    -0.8476     0.5129 H       
  50 H50           -2.3961     1.0016    -0.1603 H       
  51 H51           -1.9983     0.1564    -1.6763 H       
@<TRIPOS>BOND
   1    1    2 ar
   2    1    6 ar
   3    1   30 1
   4    2    3 ar
   5    2   14 1
   6    3    4 ar
   7    3   31 1
   8    4    5 ar
   9    4   32 1
  10    5    6 ar
  11    5    7 1
  12    6   33 1
  13    7    8 1
  14    7   34 1
  15    8    9 1
  16    8   10 2
  17    9   15 1
  18    9   12 1
  19   10   11 1
  20   11   12 2
  21   11   13 1
  22   12   35 1
  23   13   36 1
  24   13   37 1
  25   14   25 1
  26   14   29 1
  27   15   16 ar
  28   15   20 ar
  29   16   17 ar
  30   16   21 ar
  31   17   18 ar
  32   17   24 ar
  33   18   19 ar
  34   18   38 1
  35   19   20 ar
  36   19   39 1
  37   21   22 ar
  38   21   40 1
  39   22   23 ar
  40   22   41 1
  41   23   24 ar
  42   23   42 1
  43   24   43 1
  44   25   26 1
  45   25   44 1
  46   25   45 1
  47   26   27 1
  48   26   46 1
  49   26   47 1
  50   27   28 1
  51   28   29 1
  52   28   48 1
  53   28   49 1
  54   29   50 1
  55   29   51 1

#	End of record

