#	Name: ASD10160305
#	Creating user name:	WinNT
#	Creation time:	15. 06. 2019 21:25

#	Modifying user name:	WinNT
#	Modification time:	15. 06. 2019 21:25

#	Program:	/corina/corina34_cracker 3.40 0067  02.08.2006

@<TRIPOS>MOLECULE
ASD10160305
  40   42    0    0    0
SMALL
NO_CHARGES


@<TRIPOS>ATOM
   1 C1            -2.2253    -2.6053     4.8639 C.2     
   2 C2            -1.6250    -3.0071     3.5801 C.ar    
   3 C3            -0.2999    -3.4581     3.5348 C.ar    
   4 C4             0.2576    -3.8338     2.3294 C.ar    
   5 C5            -0.4932    -3.7649     1.1634 C.ar    
   6 C6            -1.8114    -3.3169     1.2040 C.ar    
   7 C7            -2.3785    -2.9447     2.4031 C.ar    
   8 O8            -1.5706    -2.6650     5.8859 O.2     
   9 O9            -3.4989    -2.1663     4.9042 O.3     
  10 F10           -2.5367    -3.2517     0.0661 F       
  11 F11            0.4313    -3.5250     4.6688 F       
  12 O12            0.0593    -4.1350    -0.0197 O.3     
  13 C13            2.4217    -3.8529    -0.1444 C.ar    
  14 C14            1.3101    -4.6678    -0.0012 C.ar    
  15 C15            1.4897    -6.0386     0.1622 C.ar    
  16 C16            2.7815    -6.5372     0.1754 C.ar    
  17 C17            3.8478    -5.6586     0.0260 C.ar    
  18 N18            3.6389    -4.3622    -0.1271 N.ar    
  19 O19            5.1185    -6.1369     0.0379 O.3     
  20 C20            8.5654    -4.6857     0.3816 C.3     
  21 C21            7.4199    -5.6725     0.6216 C.3     
  22 C22            6.1718    -5.1843    -0.1202 C.3     
  23 C23            6.5034    -5.0291    -1.6076 C.3     
  24 C24            7.6843    -4.0671    -1.7615 C.3     
  25 O25            8.8017    -4.5646    -1.0226 O.3     
  26 Cl26           3.0654    -8.2379     0.3764 Cl      
  27 H27            1.2795    -4.1815     2.2930 H       
  28 H28           -3.4022    -2.6018     2.4339 H       
  29 H29           -3.8491    -1.9140     5.7695 H       
  30 H30            2.2902    -2.7891    -0.2761 H       
  31 H31            0.6417    -6.6975     0.2764 H       
  32 H32            8.2975    -3.7114     0.7904 H       
  33 H33            9.4680    -5.0502     0.8720 H       
  34 H34            7.7032    -6.6570     0.2492 H       
  35 H35            7.2087    -5.7329     1.6892 H       
  36 H36            5.8583    -4.2231     0.2870 H       
  37 H37            6.7681    -6.0006    -2.0251 H       
  38 H38            5.6368    -4.6293    -2.1342 H       
  39 H39            7.9521    -3.9860    -2.8150 H       
  40 H40            7.4049    -3.0847    -1.3807 H       
@<TRIPOS>BOND
   1    1    2 1
   2    1    8 2
   3    1    9 1
   4    2    3 ar
   5    2    7 ar
   6    3    4 ar
   7    3   11 1
   8    4    5 ar
   9    4   27 1
  10    5    6 ar
  11    5   12 1
  12    6    7 ar
  13    6   10 1
  14    7   28 1
  15    9   29 1
  16   12   14 1
  17   13   14 ar
  18   13   18 ar
  19   13   30 1
  20   14   15 ar
  21   15   16 ar
  22   15   31 1
  23   16   17 ar
  24   16   26 1
  25   17   18 ar
  26   17   19 1
  27   19   22 1
  28   20   21 1
  29   20   25 1
  30   20   32 1
  31   20   33 1
  32   21   22 1
  33   21   34 1
  34   21   35 1
  35   22   23 1
  36   22   36 1
  37   23   24 1
  38   23   37 1
  39   23   38 1
  40   24   25 1
  41   24   39 1
  42   24   40 1

#	End of record

