#	Name: ASD16560001
#	Creating user name:	WinNT
#	Creation time:	15. 06. 2019 21:31

#	Modifying user name:	WinNT
#	Modification time:	15. 06. 2019 21:31

#	Program:	/corina/corina34_cracker 3.40 0067  02.08.2006

@<TRIPOS>MOLECULE
ASD16560001
  63   66    0    0    0
SMALL
NO_CHARGES


@<TRIPOS>ATOM
   1 N1            -0.0165     1.3680     0.0096 N.pl3   
   2 C2             0.0021    -0.0041     0.0020 C.2     
   3 N3             1.1596    -0.6265    -0.0124 N.2     
   4 C4             1.2262    -1.9630    -0.0202 C.2     
   5 N5             2.2535    -2.8670    -0.0349 N.pl3   
   6 C6             1.7014    -4.1152    -0.0363 C.2     
   7 N7             0.4038    -4.0233    -0.0234 N.2     
   8 C8             0.0465    -2.7160    -0.0130 C.2     
   9 C9            -1.1923    -2.0334     0.0025 C.2     
  10 O10           -2.2447    -2.6489     0.0092 O.2     
  11 N11           -1.1803    -0.6821     0.0152 N.am    
  12 C12            3.6843    -2.5525    -0.0473 C.3     
  13 O13            4.4507    -3.6884    -0.5021 O.3     
  14 C14            5.7931    -3.5090    -0.0205 C.3     
  15 C15            6.4117    -4.8678     0.3142 C.3     
  16 O16            6.5751    -5.6255    -0.8863 O.3     
  17 P17            7.1998    -7.1092    -0.9086 P.3     
  18 O18            6.4386    -7.9789     0.0159 O.2     
  19 O19            8.7401    -7.0499    -0.4438 O.3     
  20 O20            7.1122    -7.7060    -2.4013 O.3     
  21 P21            7.1634    -9.1931    -3.0160 P.3     
  22 O22            5.7228    -9.8925    -2.8494 O.3     
  23 O23            8.1841    -9.9888    -2.2981 O.2     
  24 O24            7.5448    -9.1153    -4.5782 O.3     
  25 C25            7.7708   -10.2743    -5.3829 C.3     
  26 O26            6.5383   -10.6923    -5.9733 O.3     
  27 C27            6.6471   -11.8653    -6.7822 C.3     
  28 C28            7.6080   -11.5956    -7.9431 C.3     
  29 O29            7.0827   -10.5514    -8.7651 O.3     
  30 C30            8.9680   -11.1699    -7.3815 C.3     
  31 O31            9.8495   -10.8453    -8.4584 O.3     
  32 C32            8.7768    -9.9407    -6.4876 C.3     
  33 O33           10.0281    -9.5781    -5.9003 O.3     
  34 C34            5.2689   -12.2331    -7.3356 C.3     
  35 F35            5.3758   -13.3807    -8.1285 F       
  36 F36            4.3909   -12.4795    -6.2746 F       
  37 F37            4.7797   -11.1754    -8.1096 F       
  38 C38            5.7115    -2.6428     1.2514 C.3     
  39 O39            6.4678    -1.4414     1.0877 O.3     
  40 C40            4.2044    -2.3192     1.3941 C.3     
  41 O41            4.0100    -0.9607     1.7927 O.3     
  42 H42            0.8168     1.8644     0.0043 H       
  43 H43           -0.8631     1.8416     0.0162 H       
  44 H44            2.2584    -5.0405    -0.0466 H       
  45 H45           -2.0174    -0.1921     0.0260 H       
  46 H46            3.8790    -1.6803    -0.6714 H       
  47 H47            6.3940    -3.0047    -0.7772 H       
  48 H48            7.3835    -4.7186     0.7848 H       
  49 H49            5.7559    -5.4070     0.9978 H       
  50 H50            9.2995    -6.4964    -1.0057 H       
  51 H51            5.0042    -9.4239    -3.2956 H       
  52 H52            8.1667   -11.0771    -4.7609 H       
  53 H53            7.0283   -12.6890    -6.1786 H       
  54 H54            7.7265   -12.5025    -8.5360 H       
  55 H55            6.2189   -10.7515    -9.1509 H       
  56 H56            9.3924   -11.9856    -6.7961 H       
  57 H57           10.7310   -10.5666    -8.1748 H       
  58 H58            8.3997    -9.1108    -7.0852 H       
  59 H59            9.9803    -8.8086    -5.3166 H       
  60 H60            6.0674    -3.2015     2.1170 H       
  61 H61            6.4513    -0.8581     1.8588 H       
  62 H62            3.7248    -3.0015     2.0959 H       
  63 H63            4.3197    -0.7653     2.6877 H       
@<TRIPOS>BOND
   1    1    2 1
   2    1   42 1
   3    1   43 1
   4    2    3 2
   5    2   11 1
   6    3    4 1
   7    4    5 1
   8    4    8 2
   9    5   12 1
  10    5    6 1
  11    6   44 1
  12    6    7 2
  13    7    8 1
  14    8    9 1
  15    9   10 2
  16    9   11 am
  17   11   45 1
  18   12   40 1
  19   12   46 1
  20   12   13 1
  21   13   14 1
  22   14   15 1
  23   14   38 1
  24   14   47 1
  25   15   48 1
  26   15   49 1
  27   15   16 1
  28   16   17 1
  29   17   18 2
  30   17   19 1
  31   17   20 1
  32   19   50 1
  33   20   21 1
  34   21   22 1
  35   21   23 2
  36   21   24 1
  37   22   51 1
  38   24   25 1
  39   25   32 1
  40   25   52 1
  41   25   26 1
  42   26   27 1
  43   27   28 1
  44   27   53 1
  45   27   34 1
  46   28   30 1
  47   28   54 1
  48   28   29 1
  49   29   55 1
  50   30   31 1
  51   30   32 1
  52   30   56 1
  53   31   57 1
  54   32   33 1
  55   32   58 1
  56   33   59 1
  57   34   35 1
  58   34   36 1
  59   34   37 1
  60   38   39 1
  61   38   60 1
  62   38   40 1
  63   39   61 1
  64   40   41 1
  65   40   62 1
  66   41   63 1

#	End of record

