#	Name: ASD10298001
#	Creating user name:	WinNT
#	Creation time:	15. 06. 2019 21:26

#	Modifying user name:	WinNT
#	Modification time:	15. 06. 2019 21:26

#	Program:	/corina/corina34_cracker 3.40 0067  02.08.2006

@<TRIPOS>MOLECULE
ASD10298001
  66   68    0    0    0
SMALL
NO_CHARGES


@<TRIPOS>ATOM
   1 P1            -0.0180     1.4758     0.0102 P.3     
   2 O2             0.0021    -0.0041     0.0020 O.2     
   3 O3             1.4924     2.0330    -0.0013 O.3     
   4 O4            -0.7967     2.0091    -1.2942 O.3     
   5 O5            -0.7716     1.9950     1.3348 O.3     
   6 C6            -0.4354     1.6326    -2.6245 C.3     
   7 O7            -1.1742     3.7449    -3.6030 O.3     
   8 C8            -1.3752     2.3148    -3.6206 C.3     
   9 C9            -1.0318     1.8857    -5.0644 C.3     
  10 C10           -1.2518     3.1671    -5.8992 C.3     
  11 C11           -1.7020     4.2188    -4.8611 C.3     
  12 O12           -2.2734     2.9589    -6.8764 O.3     
  13 O13           -1.9109     0.8470    -5.5005 O.3     
  14 C14           -1.9626     6.5577    -5.4699 C.2     
  15 N15           -1.4729     7.7742    -5.7732 N.am    
  16 C16           -0.1411     7.9834    -5.7995 C.2     
  17 C17            0.7363     6.9121    -5.5049 C.2     
  18 C18            0.2180     5.7023    -5.2036 C.2     
  19 N19           -1.1395     5.5314    -5.1881 N.am    
  20 O20            0.3028     9.0836    -6.0746 O.2     
  21 O21           -3.1659     6.3850    -5.4454 O.2     
  22 P22           -0.7058     1.5880     2.8911 P.3     
  23 O23           -0.5959     0.1170     3.0121 O.2     
  24 O24            0.5781     2.2799     3.5729 O.3     
  25 O25           -2.0434     2.0892     3.6339 O.3     
  26 O26           -1.7967     2.8144     5.8383 O.3     
  27 C27           -2.3338     1.7889     5.0005 C.3     
  28 C28           -3.8504     1.7146     5.1957 C.3     
  29 C29           -4.4656     3.0812     4.8792 C.3     
  30 C30           -3.8156     4.1411     5.7739 C.3     
  31 C31           -2.3003     4.1217     5.5563 C.3     
  32 C32           -1.6377     5.1362     6.4904 C.3     
  33 O33           -0.2385     5.2011     6.2075 O.3     
  34 O34           -4.3299     5.4311     5.4370 O.3     
  35 O35           -5.8720     3.0418     5.1293 O.3     
  36 C36           -4.4306    -0.5914     4.6637 C.2     
  37 C37           -5.0074    -1.6302     3.7368 C.3     
  38 O38           -3.9840    -0.9216     5.7418 O.2     
  39 N39           -4.4111     0.7047     4.2946 N.am    
  40 H40            1.5557     2.9980     0.0033 H       
  41 H41            0.5909     1.9412    -2.8234 H       
  42 H42           -0.5166     0.5508    -2.7307 H       
  43 H43           -2.4131     2.0746    -3.3901 H       
  44 H44            0.0066     1.5610    -5.1296 H       
  45 H45           -0.3220     3.4759    -6.3772 H       
  46 H46           -2.7900     4.2706    -4.8208 H       
  47 H47           -2.0683     2.2653    -7.5183 H       
  48 H48           -1.7400     0.5393    -6.4012 H       
  49 H49           -2.0805     8.5032    -5.9739 H       
  50 H50            1.8059     7.0605    -5.5214 H       
  51 H51            0.8718     4.8734    -4.9761 H       
  52 H52            0.5732     3.2460     3.5306 H       
  53 H53           -1.8858     0.8312     5.2655 H       
  54 H54           -4.0720     1.4458     6.2285 H       
  55 H55           -4.2869     3.3280     3.8327 H       
  56 H56           -4.0364     3.9213     6.8184 H       
  57 H57           -2.0784     4.3812     4.5212 H       
  58 H58           -2.0854     6.1181     6.3366 H       
  59 H59           -1.7852     4.8277     7.5253 H       
  60 H60            0.2466     5.8262     6.7635 H       
  61 H61           -3.9609     6.1519     5.9655 H       
  62 H62           -6.3270     3.8759     4.9496 H       
  63 H63           -4.9366    -2.6128     4.2032 H       
  64 H64           -6.0533    -1.3977     3.5363 H       
  65 H65           -4.4496    -1.6314     2.8004 H       
  66 H66           -4.7683     0.9689     3.4323 H       
@<TRIPOS>BOND
   1    1    2 2
   2    1    3 1
   3    1    4 1
   4    1    5 1
   5    3   40 1
   6    4    6 1
   7    5   22 1
   8    6    8 1
   9    6   41 1
  10    6   42 1
  11    7    8 1
  12    7   11 1
  13    8    9 1
  14    8   43 1
  15    9   10 1
  16    9   13 1
  17    9   44 1
  18   10   11 1
  19   10   12 1
  20   10   45 1
  21   11   19 1
  22   11   46 1
  23   12   47 1
  24   13   48 1
  25   14   15 am
  26   14   19 am
  27   14   21 2
  28   15   16 am
  29   15   49 1
  30   16   17 1
  31   16   20 2
  32   17   18 2
  33   17   50 1
  34   18   19 1
  35   18   51 1
  36   22   23 2
  37   22   24 1
  38   22   25 1
  39   24   52 1
  40   25   27 1
  41   26   27 1
  42   26   31 1
  43   27   28 1
  44   27   53 1
  45   28   29 1
  46   28   39 1
  47   28   54 1
  48   29   30 1
  49   29   35 1
  50   29   55 1
  51   30   31 1
  52   30   34 1
  53   30   56 1
  54   31   32 1
  55   31   57 1
  56   32   33 1
  57   32   58 1
  58   32   59 1
  59   33   60 1
  60   34   61 1
  61   35   62 1
  62   36   37 1
  63   36   38 2
  64   36   39 am
  65   37   63 1
  66   37   64 1
  67   37   65 1
  68   39   66 1

#	End of record

