#	Name: ASD11000178
#	Creating user name:	WinNT
#	Creation time:	15. 06. 2019 21:28

#	Modifying user name:	WinNT
#	Modification time:	15. 06. 2019 21:28

#	Program:	/corina/corina34_cracker 3.40 0067  02.08.2006

@<TRIPOS>MOLECULE
ASD11000178
  43   46    0    0    0
SMALL
NO_CHARGES


@<TRIPOS>ATOM
   1 N1            -0.0172     1.3215    -0.0111 N.ar    
   2 C2             0.0016    -0.0034    -0.0059 C.ar    
   3 N3             1.1403    -0.6810    -0.0153 N.ar    
   4 C4             2.3025    -0.0498    -0.0304 C.ar    
   5 C5             2.3192     1.3363    -0.0362 C.ar    
   6 C6             1.1099     2.0136    -0.0260 C.ar    
   7 C7             3.6238     2.0904    -0.0528 C.3     
   8 O8             4.0223     2.3233    -1.4052 O.3     
   9 C9             5.1875     2.9971    -1.5982 C.ar    
  10 C10            5.6243     3.2586    -2.8799 C.ar    
  11 N11           -1.1974    -0.6965     0.0102 N.pl3   
  12 C12           -1.2008    -2.0923    -0.1029 C.ar    
  13 C13           -2.1491    -2.8420     0.5799 C.ar    
  14 C14           -0.2594    -2.7267    -0.9028 C.ar    
  15 C15           -0.2636    -4.1032    -1.0150 C.ar    
  16 C16           -1.2075    -4.8526    -0.3287 C.ar    
  17 C17           -2.1520    -4.2195     0.4672 C.ar    
  18 O18           -1.2108    -6.2082    -0.4399 O.3     
  19 C19           -0.2138    -6.7927    -1.2803 C.3     
  20 F20           -0.3607    -6.3082    -2.5845 F       
  21 F21            1.0565    -6.4581    -0.7989 F       
  22 C22            5.9308     3.4247    -0.4996 C.ar    
  23 C23            7.1036     4.1029    -0.6709 C.ar    
  24 C24            7.5706     4.3758    -1.9538 C.ar    
  25 C25            6.8245     3.9526    -3.0704 C.ar    
  26 N26            8.6803     5.0188    -2.4418 N.pl3   
  27 N27            8.6415     4.9993    -3.8398 N.2     
  28 C28            7.5689     4.3841    -4.2491 C.2     
  29 Cl29          -3.3332    -5.1582     1.3259 Cl      
  30 H30            3.2273    -0.6075    -0.0376 H       
  31 H31            1.0881     3.0934    -0.0305 H       
  32 H32            3.4983     3.0448     0.4585 H       
  33 H33            4.3891     1.5038     0.4556 H       
  34 H34            5.0448     2.9299    -3.7299 H       
  35 H35           -2.0347    -0.2151     0.0999 H       
  36 H36           -2.8839    -2.3491     1.1992 H       
  37 H37            0.4759    -2.1436    -1.4374 H       
  38 H38            0.4682    -4.5962    -1.6377 H       
  39 H39           -0.3285    -7.8766    -1.2802 H       
  40 H40            5.5750     3.2176     0.4989 H       
  41 H41            7.6692     4.4283     0.1897 H       
  42 H42            9.3793     5.4222    -1.9037 H       
  43 H43            7.2819     4.2215    -5.2776 H       
@<TRIPOS>BOND
   1    1    2 ar
   2    1    6 ar
   3    2    3 ar
   4    2   11 1
   5    3    4 ar
   6    4    5 ar
   7    4   30 1
   8    5    6 ar
   9    5    7 1
  10    6   31 1
  11    7    8 1
  12    7   32 1
  13    7   33 1
  14    8    9 1
  15    9   22 ar
  16    9   10 ar
  17   10   25 ar
  18   10   34 1
  19   11   12 1
  20   11   35 1
  21   12   13 ar
  22   12   14 ar
  23   13   17 ar
  24   13   36 1
  25   14   15 ar
  26   14   37 1
  27   15   16 ar
  28   15   38 1
  29   16   17 ar
  30   16   18 1
  31   17   29 1
  32   18   19 1
  33   19   20 1
  34   19   21 1
  35   19   39 1
  36   22   23 ar
  37   22   40 1
  38   23   24 ar
  39   23   41 1
  40   24   25 ar
  41   24   26 1
  42   25   28 1
  43   26   27 1
  44   26   42 1
  45   27   28 2
  46   28   43 1

#	End of record

