#	Name: ASD14790002
#	Creating user name:	WinNT
#	Creation time:	15. 06. 2019 21:31

#	Modifying user name:	WinNT
#	Modification time:	15. 06. 2019 21:31

#	Program:	/corina/corina34_cracker 3.40 0067  02.08.2006

@<TRIPOS>MOLECULE
ASD14790002
  44   46    0    0    0
SMALL
NO_CHARGES


@<TRIPOS>ATOM
   1 I1             0.2147     1.6104    -3.0985 I       
   2 I2             3.8342    -2.5264    -0.6459 I       
   3 Cl3            0.1709     4.2844     6.4422 Cl      
   4 Cl4           -5.4670     0.2834    10.2240 Cl      
   5 O5            -0.0779     1.7937     2.4796 O.2     
   6 O6            -0.2888     2.0976     0.0039 O.3     
   7 N7             1.2368     0.2810     3.4374 N.am    
   8 N8             1.7596     1.3387    10.3262 N.1     
   9 C9            -0.0087     2.2174     8.6225 C.3     
  10 C10            0.3221     1.7033     7.2451 C.ar    
  11 C11            0.8208    -0.1250     5.7814 C.ar    
  12 C12            0.5176     0.3494     7.0423 C.ar    
  13 C13            0.9297     0.7590     4.7153 C.ar    
  14 C14           -1.3778     1.7323     9.0243 C.ar    
  15 C15            0.4240     2.5864     6.1845 C.ar    
  16 C16            0.7274     2.1173     4.9199 C.ar    
  17 C17            1.0341    -1.6007     5.5622 C.3     
  18 C18           -2.4178     2.6330     9.1594 C.ar    
  19 C19           -1.5945     0.3861     9.2521 C.ar    
  20 C20            0.7245     0.8894     2.3493 C.2     
  21 C21            0.9893     1.7215     9.5841 C.1     
  22 C22            1.1374     0.4584     1.0004 C.ar    
  23 C23           -3.6736     2.1887     9.5279 C.ar    
  24 C24           -2.8501    -0.0595     9.6198 C.ar    
  25 C25           -3.8899     0.8422     9.7612 C.ar    
  26 C26            0.6074     1.0882    -0.1336 C.ar    
  27 C27            2.0636    -0.5764     0.8463 C.ar    
  28 C28            1.0027     0.6747    -1.3977 C.ar    
  29 C29            2.4454    -0.9747    -0.4169 C.ar    
  30 C30            1.9146    -0.3531    -1.5362 C.ar    
  31 H31            0.0032     3.3073     8.6161 H       
  32 H32            0.4333    -0.3377     7.8713 H       
  33 H33            0.8113     2.8070     4.0931 H       
  34 H34            0.0836    -2.0719     5.3118 H       
  35 H35            1.7394    -1.7483     4.7444 H       
  36 H36            1.4334    -2.0492     6.4718 H       
  37 H37            1.8184    -0.4884     3.3342 H       
  38 H38           -2.2489     3.6840     8.9773 H       
  39 H39           -0.7825    -0.3176     9.1425 H       
  40 H40           -4.4859     2.8925     9.6341 H       
  41 H41           -3.0192    -1.1112     9.7978 H       
  42 H42            2.4801    -1.0633     1.7157 H       
  43 H43            2.2189    -0.6717    -2.5222 H       
  44 H44            0.1130     2.9754     0.0596 H       
@<TRIPOS>BOND
   1    1   28 1
   2    2   29 1
   3    3   15 1
   4    4   25 1
   5    5   20 2
   6    6   26 1
   7    6   44 1
   8    7   13 1
   9    7   20 am
  10    7   37 1
  11    8   21 3
  12    9   10 1
  13    9   14 1
  14    9   21 1
  15    9   31 1
  16   10   12 ar
  17   10   15 ar
  18   11   12 ar
  19   11   13 ar
  20   11   17 1
  21   12   32 1
  22   13   16 ar
  23   14   18 ar
  24   14   19 ar
  25   15   16 ar
  26   16   33 1
  27   17   34 1
  28   17   35 1
  29   17   36 1
  30   18   23 ar
  31   18   38 1
  32   19   24 ar
  33   19   39 1
  34   20   22 1
  35   22   26 ar
  36   22   27 ar
  37   23   25 ar
  38   23   40 1
  39   24   25 ar
  40   24   41 1
  41   26   28 ar
  42   27   29 ar
  43   27   42 1
  44   28   30 ar
  45   29   30 ar
  46   30   43 1

#	End of record

