#	Name: ASD11710015
#	Creating user name:	WinNT
#	Creation time:	15. 06. 2019 21:29

#	Modifying user name:	WinNT
#	Modification time:	15. 06. 2019 21:29

#	Program:	/corina/corina34_cracker 3.40 0067  02.08.2006

@<TRIPOS>MOLECULE
ASD11710015
  50   52    0    0    0
SMALL
NO_CHARGES


@<TRIPOS>ATOM
   1 C1             3.2392     4.9984     2.4240 C.ar    
   2 C2             2.3955     6.0792     2.5998 C.ar    
   3 C3             1.3062     6.2485     1.7659 C.ar    
   4 C4             1.0608     5.3373     0.7557 C.ar    
   5 C5             1.9050     4.2570     0.5793 C.ar    
   6 C6             2.9936     4.0869     1.4142 C.ar    
   7 C7             1.6372     3.2633    -0.5216 C.3     
   8 N8             2.3268     3.6890    -1.7420 N.am    
   9 C9             3.5868     3.2759    -1.9831 C.2     
  10 C10            4.2464     3.6215    -3.2604 C.ar    
  11 O11            4.1809     2.6192    -1.1505 O.2     
  12 C12            3.9764     4.8423    -3.8809 C.ar    
  13 C13            5.1462     2.7309    -3.8480 C.ar    
  14 C14            5.7586     3.0597    -5.0397 C.ar    
  15 C15            5.4829     4.2694    -5.6520 C.ar    
  16 C16            4.5956     5.1588    -5.0723 C.ar    
  17 S17            6.2703     4.6820    -7.1733 S.o2    
  18 N18            5.3998     3.9652    -8.3861 N.am    
  19 C19            4.4046     4.6852    -9.0509 C.ar    
  20 C20            4.0672     4.3615   -10.3590 C.ar    
  21 C21            3.7460     5.7230    -8.4036 C.ar    
  22 C22            2.7625     6.4329    -9.0639 C.ar    
  23 C23            2.4328     6.1114   -10.3679 C.ar    
  24 C24            3.0828     5.0755   -11.0134 C.ar    
  25 O25            6.1113     6.0842    -7.3401 O.2     
  26 O26            7.5380     4.0402    -7.1560 O.2     
  27 C27            5.6735     2.5758    -8.7616 C.3     
  28 C28            1.6467     4.5638    -2.7004 C.3     
  29 H29            4.0929     4.8686     3.0727 H       
  30 H30            2.5872     6.7912     3.3890 H       
  31 H31            0.6466     7.0925     1.9037 H       
  32 H32            0.2093     5.4692     0.1046 H       
  33 H33            3.6534     3.2431     1.2761 H       
  34 H34            2.0028     2.2813    -0.2214 H       
  35 H35            0.5650     3.2099    -0.7099 H       
  36 H36            3.2840     5.5374    -3.4294 H       
  37 H37            5.3627     1.7866    -3.3707 H       
  38 H38            6.4550     2.3714    -5.4955 H       
  39 H39            4.3847     6.1014    -5.5554 H       
  40 H40            4.5745     3.5526   -10.8637 H       
  41 H41            4.0025     5.9741    -7.3850 H       
  42 H42            2.2501     7.2398    -8.5613 H       
  43 H43            1.6628     6.6677   -10.8817 H       
  44 H44            2.8229     4.8270   -12.0318 H       
  45 H45            5.0489     1.9090    -8.1672 H       
  46 H46            5.4514     2.4349    -9.8194 H       
  47 H47            6.7238     2.3499    -8.5776 H       
  48 H48            1.8817     5.6037    -2.4734 H       
  49 H49            1.9826     4.3274    -3.7100 H       
  50 H50            0.5696     4.4112    -2.6308 H       
@<TRIPOS>BOND
   1    1    2 ar
   2    1    6 ar
   3    1   29 1
   4    2    3 ar
   5    2   30 1
   6    3    4 ar
   7    3   31 1
   8    4    5 ar
   9    4   32 1
  10    5    6 ar
  11    5    7 1
  12    6   33 1
  13    7    8 1
  14    7   34 1
  15    7   35 1
  16    8    9 am
  17    8   28 1
  18    9   10 1
  19    9   11 2
  20   10   12 ar
  21   10   13 ar
  22   12   16 ar
  23   12   36 1
  24   13   14 ar
  25   13   37 1
  26   14   15 ar
  27   14   38 1
  28   15   16 ar
  29   15   17 1
  30   16   39 1
  31   17   18 am
  32   17   25 2
  33   17   26 2
  34   18   19 1
  35   18   27 1
  36   19   20 ar
  37   19   21 ar
  38   20   24 ar
  39   20   40 1
  40   21   22 ar
  41   21   41 1
  42   22   23 ar
  43   22   42 1
  44   23   24 ar
  45   23   43 1
  46   24   44 1
  47   27   45 1
  48   27   46 1
  49   27   47 1
  50   28   48 1
  51   28   49 1
  52   28   50 1

#	End of record

