#	Name: ASD14640028
#	Creating user name:	WinNT
#	Creation time:	15. 06. 2019 21:31

#	Modifying user name:	WinNT
#	Modification time:	15. 06. 2019 21:31

#	Program:	/corina/corina34_cracker 3.40 0067  02.08.2006

@<TRIPOS>MOLECULE
ASD14640028
  37   40    0    0    0
SMALL
NO_CHARGES


@<TRIPOS>ATOM
   1 C1            -0.0164     1.3608     0.0095 C.ar    
   2 C2             1.2974     1.8238    -0.0005 C.ar    
   3 C3             1.5479     3.1860     0.0048 C.ar    
   4 C4             3.4766     3.7513    -1.4476 C.3     
   5 C5             4.9564     4.1442    -1.4492 C.3     
   6 C6             5.5310     3.9574    -2.8603 C.3     
   7 C7             4.5933     4.6197    -3.8372 C.2     
   8 C8             2.6646     4.7886    -2.2317 C.3     
   9 C9             4.8146     4.9576    -5.1103 C.2     
  10 C10            2.7763     5.5516    -4.6513 C.2     
  11 C11            0.4956     4.0830     0.0205 C.ar    
  12 C12           -0.8079     3.6237     0.0305 C.ar    
  13 C13           -1.0655     2.2651     0.0193 C.ar    
  14 O14            0.0021    -0.0041     0.0020 O.3     
  15 C15            1.3360    -0.3727     0.3995 C.3     
  16 O16            2.1386     0.7488    -0.0144 O.3     
  17 C17            2.9678     3.6907    -0.0059 C.3     
  18 N18            3.2992     4.9917    -3.5357 N.pl3   
  19 N19            3.6933     5.5265    -5.5934 N.2     
  20 N20            1.4955     6.0628    -4.7789 N.pl3   
  21 H21            3.3607     2.7732    -1.9143 H       
  22 H22            5.0558     5.1879    -1.1513 H       
  23 H23            5.5011     3.5123    -0.7478 H       
  24 H24            6.5152     4.4218    -2.9216 H       
  25 H25            5.6105     2.8944    -3.0878 H       
  26 H26            1.6466     4.4255    -2.3729 H       
  27 H27            2.6444     5.7293    -1.6814 H       
  28 H28            5.7330     4.8023    -5.6570 H       
  29 H29            0.6928     5.1448     0.0294 H       
  30 H30           -1.6271     4.3273     0.0431 H       
  31 H31           -2.0850     1.9089     0.0271 H       
  32 H32            1.3909    -0.5049     1.4801 H       
  33 H33            3.0024     4.6875     0.4338 H       
  34 H34            3.5977     3.0159     0.5736 H       
  35 H35            0.8857     6.0371    -4.0250 H       
  36 H36            1.2082     6.4465    -5.6222 H       
  37 H37            1.6509    -1.2817    -0.1129 H       
@<TRIPOS>BOND
   1    1   14 1
   2    1    2 ar
   3    1   13 ar
   4    2   16 1
   5    2    3 ar
   6    3   17 1
   7    3   11 ar
   8    4    5 1
   9    4   17 1
  10    4   21 1
  11    4    8 1
  12    5   22 1
  13    5   23 1
  14    5    6 1
  15    6   24 1
  16    6   25 1
  17    6    7 1
  18    7    9 2
  19    7   18 1
  20    8   26 1
  21    8   27 1
  22    8   18 1
  23    9   28 1
  24    9   19 1
  25   10   18 1
  26   10   19 2
  27   10   20 1
  28   11   12 ar
  29   11   29 1
  30   12   13 ar
  31   12   30 1
  32   13   31 1
  33   14   15 1
  34   15   32 1
  35   15   37 1
  36   15   16 1
  37   17   33 1
  38   17   34 1
  39   20   35 1
  40   20   36 1

#	End of record

