#	Name: ASD10438001
#	Creating user name:	WinNT
#	Creation time:	15. 06. 2019 21:27

#	Modifying user name:	WinNT
#	Modification time:	15. 06. 2019 21:27

#	Program:	/corina/corina34_cracker 3.40 0067  02.08.2006

@<TRIPOS>MOLECULE
ASD10438001
  31   33    0    0    0
SMALL
NO_CHARGES


@<TRIPOS>ATOM
   1 N1            -0.0165     1.3638     0.0095 N.pl3   
   2 C2             0.0021    -0.0041     0.0020 C.2     
   3 C3             1.2701    -0.4446    -0.0124 C.2     
   4 C4             2.1349     0.7378    -0.0143 C.ar    
   5 C5             3.5188     0.9265    -0.0265 C.ar    
   6 C6             4.0324     2.2078    -0.0246 C.ar    
   7 C7             3.1771     3.3069    -0.0100 C.ar    
   8 C8             1.8114     3.1326     0.0021 C.ar    
   9 C9             1.2740     1.8496    -0.0002 C.ar    
  10 O10            5.3789     2.3977    -0.0364 O.3     
  11 C11            5.8436     3.7490    -0.0336 C.3     
  12 C12            7.3734     3.7623    -0.0481 C.3     
  13 N13            7.8498     5.1476    -0.0452 N.pl3   
  14 C14            8.1187     5.8929     1.0644 C.2     
  15 C15            8.5333     7.1118     0.6633 C.2     
  16 C16            8.5198     7.1194    -0.7455 C.2     
  17 C17            8.1032     5.9029    -1.1517 C.2     
  18 H18           -0.8178     1.9103     0.0165 H       
  19 H19           -0.8737    -0.6360     0.0073 H       
  20 H20            1.5918    -1.4755    -0.0207 H       
  21 H21            4.1831     0.0750    -0.0371 H       
  22 H22            3.5891     4.3052    -0.0079 H       
  23 H23            1.1574     3.9920     0.0136 H       
  24 H24            5.4674     4.2644    -0.9172 H       
  25 H25            5.4843     4.2549     0.8626 H       
  26 H26            7.7497     3.2468     0.8356 H       
  27 H27            7.7327     3.2564    -0.9443 H       
  28 H28            8.0167     5.5639     2.0880 H       
  29 H29            8.8224     7.9316     1.3043 H       
  30 H30            8.7968     7.9460    -1.3830 H       
  31 H31            7.9879     5.5828    -2.1767 H       
@<TRIPOS>BOND
   1    1    2 1
   2    1    9 1
   3    1   18 1
   4    2    3 2
   5    2   19 1
   6    3    4 1
   7    3   20 1
   8    4    5 ar
   9    4    9 ar
  10    5    6 ar
  11    5   21 1
  12    6    7 ar
  13    6   10 1
  14    7    8 ar
  15    7   22 1
  16    8    9 ar
  17    8   23 1
  18   10   11 1
  19   11   12 1
  20   11   24 1
  21   11   25 1
  22   12   13 1
  23   12   26 1
  24   12   27 1
  25   13   14 1
  26   13   17 1
  27   14   15 2
  28   14   28 1
  29   15   16 1
  30   15   29 1
  31   16   17 2
  32   16   30 1
  33   17   31 1

#	End of record

