#	Name: ASD10610190
#	Creating user name:	WinNT
#	Creation time:	15. 06. 2019 21:28

#	Modifying user name:	WinNT
#	Modification time:	15. 06. 2019 21:28

#	Program:	/corina/corina34_cracker 3.40 0067  02.08.2006

@<TRIPOS>MOLECULE
ASD10610190
  50   53    0    0    0
SMALL
NO_CHARGES


@<TRIPOS>ATOM
   1 O1            -0.0174     1.4293     0.0099 O.3     
   2 C2             0.0021    -0.0041     0.0020 C.3     
   3 C3             1.3600     0.0520     0.7127 C.3     
   4 C4             1.4159     1.4068    -0.0039 C.3     
   5 C5             1.2778     0.1407     2.2148 C.2     
   6 O6             0.2898     0.6068     2.7416 O.2     
   7 N7             2.3022    -0.2980     2.9729 N.am    
   8 C8             2.2223    -0.2117     4.4331 C.3     
   9 C9             2.6734     1.1779     4.8874 C.3     
  10 C10            4.7641    -3.1769     6.1772 C.ar    
  11 C11            3.6700    -2.6890     6.8898 C.ar    
  12 C12            2.8511    -1.7312     6.3221 C.ar    
  13 C13            3.1177    -1.2565     5.0478 C.ar    
  14 C14            4.2022    -1.7383     4.3381 C.ar    
  15 C15            5.0260    -2.6952     4.8957 C.ar    
  16 C16            5.6500    -4.1998     6.7828 C.ar    
  17 C17            5.9761    -5.3628     6.0678 C.ar    
  18 C18            6.8104    -6.3172     6.6475 C.ar    
  19 C19            7.3114    -6.1146     7.9204 C.ar    
  20 C20            6.9883    -4.9669     8.6247 C.ar    
  21 C21            6.1670    -4.0091     8.0607 C.ar    
  22 N22            5.6571    -6.6137     3.9212 N.2     
  23 N23            5.0123    -6.4236     2.8217 N.pl3   
  24 N24            4.3897    -5.2985     2.8819 N.2     
  25 N25            4.6268    -4.7488     4.0244 N.2     
  26 C26            5.4358    -5.5753     4.7033 C.2     
  27 C27            4.9911    -7.3437     1.6819 C.3     
  28 F28            7.1289    -7.4396     5.9664 F       
  29 F29            1.7901    -1.2566     7.0106 F       
  30 Cl30           7.6238    -4.7268    10.2222 Cl      
  31 N31            2.3403    -0.9324     0.2353 N.3     
  32 H32           -0.7857    -0.4509     0.6086 H       
  33 H33            0.0552    -0.4306    -0.9996 H       
  34 H34            1.8381     1.3486    -1.0071 H       
  35 H35            1.8669     2.1962     0.5974 H       
  36 H36            3.0924    -0.6707     2.5516 H       
  37 H37            1.1938    -0.3819     4.7514 H       
  38 H38            2.6139     1.2420     5.9739 H       
  39 H39            3.7019     1.3481     4.5692 H       
  40 H40            2.0257     1.9335     4.4429 H       
  41 H41            3.4623    -3.0590     7.8829 H       
  42 H42            4.4049    -1.3653     3.3450 H       
  43 H43            5.8724    -3.0705     4.3395 H       
  44 H44            7.9576    -6.8554     8.3677 H       
  45 H45            5.9229    -3.1140     8.6136 H       
  46 H46            4.1663    -8.0467     1.7977 H       
  47 H47            4.8590    -6.7772     0.7600 H       
  48 H48            5.9324    -7.8917     1.6398 H       
  49 H49            3.2113    -0.8482     0.7376 H       
  50 H50            1.9733    -1.8699     0.3022 H       
@<TRIPOS>BOND
   1    1    2 1
   2    1    4 1
   3    2    3 1
   4    2   32 1
   5    2   33 1
   6    3    4 1
   7    3    5 1
   8    3   31 1
   9    4   34 1
  10    4   35 1
  11    5    6 2
  12    5    7 am
  13    7    8 1
  14    7   36 1
  15    8    9 1
  16    8   13 1
  17    8   37 1
  18    9   38 1
  19    9   39 1
  20    9   40 1
  21   10   11 ar
  22   10   15 ar
  23   10   16 1
  24   11   12 ar
  25   11   41 1
  26   12   13 ar
  27   12   29 1
  28   13   14 ar
  29   14   15 ar
  30   14   42 1
  31   15   43 1
  32   16   17 ar
  33   16   21 ar
  34   17   18 ar
  35   17   26 1
  36   18   19 ar
  37   18   28 1
  38   19   20 ar
  39   19   44 1
  40   20   21 ar
  41   20   30 1
  42   21   45 1
  43   22   23 1
  44   22   26 2
  45   23   24 1
  46   23   27 1
  47   24   25 2
  48   25   26 1
  49   27   46 1
  50   27   47 1
  51   27   48 1
  52   31   49 1
  53   31   50 1

#	End of record

