#	Name: ASD10610097
#	Creating user name:	WinNT
#	Creation time:	15. 06. 2019 21:28

#	Modifying user name:	WinNT
#	Modification time:	15. 06. 2019 21:28

#	Program:	/corina/corina34_cracker 3.40 0067  02.08.2006

@<TRIPOS>MOLECULE
ASD10610097
  59   62    0    0    0
SMALL
NO_CHARGES


@<TRIPOS>ATOM
   1 O1             1.6494    -1.1244    -3.2598 O.3     
   2 C2             0.9446    -1.2488    -2.1161 C.2     
   3 N3             1.5048    -0.4636    -1.2253 N.2     
   4 N4             2.5115     0.1327    -1.7611 N.2     
   5 C5             2.6304    -0.2479    -3.0073 C.2     
   6 C6            -0.2363    -2.1067    -1.9058 C.2     
   7 O7            -0.6607    -2.7908    -2.8171 O.2     
   8 N8            -0.8450    -2.1325    -0.7037 N.am    
   9 O9            -1.5605    -4.4825     0.7086 O.3     
  10 C10           -1.9136    -4.4181    -0.6792 C.3     
  11 C11           -2.0790    -2.9013    -0.5238 C.3     
  12 C12           -2.3661    -3.3166     0.9244 C.3     
  13 C13           -3.2614    -2.3217    -1.2566 C.2     
  14 N14           -3.4013    -0.9851    -1.3595 N.am    
  15 O15           -4.0871    -3.0579    -1.7536 O.2     
  16 C16           -4.6040    -0.4198    -1.9760 C.3     
  17 C17           -4.4237    -0.3706    -3.4945 C.3     
  18 C18           -5.2428     3.5385    -0.4869 C.ar    
  19 C19           -6.3160     2.7944    -0.9731 C.ar    
  20 C20           -6.1051     1.5155    -1.4529 C.ar    
  21 C21           -4.8293     0.9748    -1.4514 C.ar    
  22 C22           -3.7622     1.7105    -0.9697 C.ar    
  23 C23           -3.9624     2.9885    -0.4879 C.ar    
  24 C24           -5.4615     4.9139     0.0238 C.ar    
  25 C25           -6.3988     5.1464     1.0343 C.ar    
  26 C26           -6.5973     6.4349     1.5061 C.ar    
  27 C27           -5.8700     7.4859     0.9776 C.ar    
  28 C28           -4.9410     7.2582    -0.0233 C.ar    
  29 C29           -4.7296     5.9781    -0.4976 C.ar    
  30 F30           -7.1440     0.7920    -1.9248 F       
  31 O31           -7.1135     4.1132     1.5522 O.3     
  32 C32           -6.5252     3.3989     2.6412 C.3     
  33 C33           -7.4228     2.2197     3.0218 C.3     
  34 F34           -8.6820     2.6959     3.4024 F       
  35 F35           -7.5601     1.3646     1.9232 F       
  36 Cl36          -4.0340     8.5848    -0.6799 Cl      
  37 Cl37          -7.7602     6.7294     2.7610 Cl      
  38 C38            3.6817     0.2157    -3.9824 C.3     
  39 H39           -0.4660    -1.6420     0.0425 H       
  40 H40           -1.0987    -4.6984    -1.3466 H       
  41 H41           -2.8452    -4.9333    -0.9131 H       
  42 H42           -3.4159    -3.5442     1.1092 H       
  43 H43           -1.9477    -2.6319     1.6620 H       
  44 H44           -2.7056    -0.3975    -1.0254 H       
  45 H45           -5.4644    -1.0431    -1.7323 H       
  46 H46           -4.2607    -1.3793    -3.8740 H       
  47 H47           -5.3185     0.0500    -3.9532 H       
  48 H48           -3.5633     0.2527    -3.7382 H       
  49 H49           -7.3104     3.2158    -0.9742 H       
  50 H50           -2.7699     1.2843    -0.9705 H       
  51 H51           -3.1276     3.5614    -0.1118 H       
  52 H52           -6.0277     8.4884     1.3470 H       
  53 H53           -4.0009     5.8033    -1.2754 H       
  54 H54           -5.5442     3.0279     2.3447 H       
  55 H55           -6.4182     4.0652     3.4972 H       
  56 H56           -6.9741     1.6749     3.8525 H       
  57 H57            3.3224     1.0982    -4.5117 H       
  58 H58            4.5951     0.4633    -3.4415 H       
  59 H59            3.8881    -0.5791    -4.6993 H       
@<TRIPOS>BOND
   1    1    2 1
   2    1    5 1
   3    2    3 2
   4    2    6 1
   5    3    4 1
   6    4    5 2
   7    5   38 1
   8    6    7 2
   9    6    8 am
  10    8   11 1
  11    8   39 1
  12    9   10 1
  13    9   12 1
  14   10   11 1
  15   10   40 1
  16   10   41 1
  17   11   12 1
  18   11   13 1
  19   12   42 1
  20   12   43 1
  21   13   14 am
  22   13   15 2
  23   14   16 1
  24   14   44 1
  25   16   17 1
  26   16   21 1
  27   16   45 1
  28   17   46 1
  29   17   47 1
  30   17   48 1
  31   18   19 ar
  32   18   23 ar
  33   18   24 1
  34   19   20 ar
  35   19   49 1
  36   20   21 ar
  37   20   30 1
  38   21   22 ar
  39   22   23 ar
  40   22   50 1
  41   23   51 1
  42   24   25 ar
  43   24   29 ar
  44   25   26 ar
  45   25   31 1
  46   26   27 ar
  47   26   37 1
  48   27   28 ar
  49   27   52 1
  50   28   29 ar
  51   28   36 1
  52   29   53 1
  53   31   32 1
  54   32   33 1
  55   32   54 1
  56   32   55 1
  57   33   34 1
  58   33   35 1
  59   33   56 1
  60   38   57 1
  61   38   58 1
  62   38   59 1

#	End of record

