#	Name: ASD10410153
#	Creating user name:	WinNT
#	Creation time:	15. 06. 2019 21:27

#	Modifying user name:	WinNT
#	Modification time:	15. 06. 2019 21:27

#	Program:	/corina/corina34_cracker 3.40 0067  02.08.2006

@<TRIPOS>MOLECULE
ASD10410153
  56   60    0    0    0
SMALL
NO_CHARGES


@<TRIPOS>ATOM
   1 C1             0.7525     0.5811     0.1197 C.ar    
   2 C2             0.4710    -0.7766     0.1573 C.ar    
   3 C3             1.5059    -1.6999     0.1828 C.ar    
   4 C4             2.8175    -1.2681     0.1712 C.ar    
   5 C5             3.1003     0.0911     0.1336 C.ar    
   6 C6             2.0636     1.0148     0.1077 C.ar    
   7 O7            -0.8204    -1.2028     0.1696 O.3     
   8 N8             4.4296     0.5298     0.1224 N.pl3   
   9 C9             4.7661     1.7184    -0.5246 C.2     
  10 N10            5.9517     2.2785    -0.5170 N.2     
  11 N11            3.9318     2.4660    -1.2567 N.2     
  12 C12            4.5710     3.5171    -1.7231 C.2     
  13 N13            5.8572     3.4503    -1.2850 N.pl3   
  14 C14            6.8739     4.3594    -1.5454 C.2     
  15 N15            4.0329     4.5099    -2.5188 N.pl3   
  16 N16            8.0810     4.2571    -1.1092 N.2     
  17 C17           -1.0373    -2.6147     0.2086 C.3     
  18 C18           -2.5405    -2.8997     0.2171 C.3     
  19 N19           -3.1277    -2.4689    -1.0586 N.3     
  20 C20           -3.0575    -0.9988    -1.2048 C.3     
  21 C21           -4.3185    -0.5604    -1.9724 C.3     
  22 C22           -5.1137    -1.8628    -2.2199 C.3     
  23 C23           -4.5710    -2.8138    -1.1236 C.3     
  24 C24           -4.7590    -4.2753    -1.5352 C.3     
  25 S25            6.6972     5.8096    -2.5235 S.3     
  26 C26            8.3902     6.2152    -2.2517 C.ar    
  27 C27            8.9582     5.2217    -1.4475 C.ar    
  28 C28            9.1589     7.2890    -2.6939 C.ar    
  29 C29           10.4861     7.3834    -2.3387 C.ar    
  30 C30           11.0607     6.4075    -1.5378 C.ar    
  31 C31           10.3202     5.3396    -1.0977 C.ar    
  32 H32           -0.0538     1.2991     0.0953 H       
  33 H33            1.2858    -2.7569     0.2120 H       
  34 H34            3.6231    -1.9871     0.1918 H       
  35 H35            2.2826     2.0719     0.0781 H       
  36 H36            5.1166     0.0070     0.5646 H       
  37 H37            3.1002     4.4682    -2.7820 H       
  38 H38            4.5877     5.2487    -2.8142 H       
  39 H39           -0.5849    -3.0762    -0.6692 H       
  40 H40           -0.5842    -3.0271     1.1101 H       
  41 H41           -2.7068    -3.9686     0.3511 H       
  42 H42           -3.0092    -2.3536     1.0357 H       
  43 H43           -3.0388    -0.5283    -0.2218 H       
  44 H44           -2.1657    -0.7239    -1.7680 H       
  45 H45           -4.9059     0.1329    -1.3703 H       
  46 H46           -4.0429    -0.0994    -2.9208 H       
  47 H47           -6.1824    -1.6931    -2.0887 H       
  48 H48           -4.9042    -2.2598    -3.2131 H       
  49 H49           -5.0571    -2.6165    -0.1681 H       
  50 H50           -4.2412    -4.4570    -2.4770 H       
  51 H51           -4.3480    -4.9259    -0.7632 H       
  52 H52           -5.8216    -4.4843    -1.6586 H       
  53 H53            8.7130     8.0496    -3.3176 H       
  54 H54           11.0796     8.2171    -2.6839 H       
  55 H55           12.1020     6.4862    -1.2624 H       
  56 H56           10.7811     4.5875    -0.4746 H       
@<TRIPOS>BOND
   1    1    2 ar
   2    1    6 ar
   3    1   32 1
   4    2    3 ar
   5    2    7 1
   6    3    4 ar
   7    3   33 1
   8    4    5 ar
   9    4   34 1
  10    5    6 ar
  11    5    8 1
  12    6   35 1
  13    7   17 1
  14    8    9 1
  15    8   36 1
  16    9   10 2
  17    9   11 1
  18   10   13 1
  19   11   12 2
  20   12   13 1
  21   12   15 1
  22   13   14 1
  23   14   16 2
  24   14   25 1
  25   15   37 1
  26   15   38 1
  27   16   27 1
  28   17   18 1
  29   17   39 1
  30   17   40 1
  31   18   19 1
  32   18   41 1
  33   18   42 1
  34   19   20 1
  35   19   23 1
  36   20   21 1
  37   20   43 1
  38   20   44 1
  39   21   22 1
  40   21   45 1
  41   21   46 1
  42   22   23 1
  43   22   47 1
  44   22   48 1
  45   23   24 1
  46   23   49 1
  47   24   50 1
  48   24   51 1
  49   24   52 1
  50   25   26 1
  51   26   27 ar
  52   26   28 ar
  53   27   31 ar
  54   28   29 ar
  55   28   53 1
  56   29   30 ar
  57   29   54 1
  58   30   31 ar
  59   30   55 1
  60   31   56 1

#	End of record

