#	Name: ASD10160008
#	Creating user name:	WinNT
#	Creation time:	15. 06. 2019 21:25

#	Modifying user name:	WinNT
#	Modification time:	15. 06. 2019 21:25

#	Program:	/corina/corina34_cracker 3.40 0067  02.08.2006

@<TRIPOS>MOLECULE
ASD10160008
  36   40    0    0    0
SMALL
NO_CHARGES


@<TRIPOS>ATOM
   1 C1            -0.0168     1.3874     0.0097 C.ar    
   2 C2             0.0021    -0.0041     0.0020 C.ar    
   3 C3            -1.1749    -0.7232    -0.0098 C.ar    
   4 C4            -2.3930    -0.0647    -0.0033 C.ar    
   5 C5            -2.4246     1.3278     0.0145 C.ar    
   6 C6            -1.2425     2.0463     0.0196 C.ar    
   7 O7             1.2475     1.8989     0.0003 O.3     
   8 C8             2.1760     0.8802     0.4188 C.3     
   9 C9             1.4503    -0.4137     0.0254 C.3     
  10 O10           -3.6764    -0.5311    -0.0103 O.3     
  11 C11           -4.4890     0.5769     0.4205 C.3     
  12 O12           -3.7287     1.7332     0.0232 O.3     
  13 C13            1.7137    -1.5222     1.0011 C.ar    
  14 C14            2.2757    -2.5555     0.2550 C.ar    
  15 N15            2.3806    -2.1808    -1.0865 N.am    
  16 C16            1.9164    -0.9341    -1.3037 C.2     
  17 C17            1.5127    -1.6650     2.3554 C.ar    
  18 C18            1.8695    -2.8426     2.9888 C.ar    
  19 C19            2.4279    -3.8750     2.2581 C.ar    
  20 C20            2.6313    -3.7367     0.9005 C.ar    
  21 O21            1.8814    -0.3478    -2.3649 O.2     
  22 C22            2.9319    -3.0424    -2.1354 C.3     
  23 O23            1.8674    -3.5543    -2.9397 O.3     
  24 H24           -1.1463    -1.8027    -0.0246 H       
  25 H25           -1.2710     3.1259     0.0328 H       
  26 H26            3.1201     0.9730    -0.1180 H       
  27 H27            2.3364     0.9218     1.4962 H       
  28 H28           -5.4553     0.5621    -0.0837 H       
  29 H29           -4.6201     0.5580     1.5024 H       
  30 H30            1.0766    -0.8571     2.9242 H       
  31 H31            1.7124    -2.9547     4.0514 H       
  32 H32            2.7065    -4.7939     2.7525 H       
  33 H33            3.0679    -4.5477     0.3365 H       
  34 H34            3.6133    -2.4643    -2.7596 H       
  35 H35            3.4726    -3.8710    -1.6781 H       
  36 H36            2.1596    -4.1343    -3.6561 H       
@<TRIPOS>BOND
   1    1    2 ar
   2    1    7 1
   3    1    6 ar
   4    2    3 ar
   5    2    9 1
   6    3    4 ar
   7    3   24 1
   8    4    5 ar
   9    4   10 1
  10    5    6 ar
  11    5   12 1
  12    6   25 1
  13    7    8 1
  14    8    9 1
  15    8   26 1
  16    8   27 1
  17    9   13 1
  18    9   16 1
  19   10   11 1
  20   11   12 1
  21   11   28 1
  22   11   29 1
  23   13   14 ar
  24   13   17 ar
  25   14   15 1
  26   14   20 ar
  27   15   16 am
  28   15   22 1
  29   16   21 2
  30   17   18 ar
  31   17   30 1
  32   18   19 ar
  33   18   31 1
  34   19   20 ar
  35   19   32 1
  36   20   33 1
  37   22   23 1
  38   22   34 1
  39   22   35 1
  40   23   36 1

#	End of record

