#	Name: ASD10800043
#	Creating user name:	WinNT
#	Creation time:	15. 06. 2019 21:28

#	Modifying user name:	WinNT
#	Modification time:	15. 06. 2019 21:28

#	Program:	/corina/corina34_cracker 3.40 0067  02.08.2006

@<TRIPOS>MOLECULE
ASD10800043
  47   50    0    0    0
SMALL
NO_CHARGES


@<TRIPOS>ATOM
   1 C1             0.0224     1.2402     0.2087 C.ar    
   2 C2             0.1061    -0.1324     0.4359 C.ar    
   3 C3             1.3423    -0.7355     0.5117 C.ar    
   4 C4             2.4980     0.0172     0.3630 C.ar    
   5 C5             2.4289     1.3757     0.1384 C.ar    
   6 C6             1.1926     2.0033     0.0580 C.ar    
   7 C7             3.6941     2.1790    -0.0199 C.3     
   8 C8             4.0935     2.7732     1.3322 C.3     
   9 N9             4.7672     1.3089    -0.5072 N.pl3   
  10 C10            5.2871     3.6752     1.1517 C.ar    
  11 C11            5.1037     5.0175     0.8767 C.ar    
  12 C12            6.5653     3.1616     1.2666 C.ar    
  13 C13            7.6602     3.9890     1.1010 C.ar    
  14 C14            7.4769     5.3300     0.8200 C.ar    
  15 C15            6.1986     5.8449     0.7110 C.ar    
  16 C16            9.0536     3.4293     1.2272 C.3     
  17 C17            5.9987     7.3069     0.4048 C.3     
  18 C18            4.9221     1.0980    -1.8577 C.2     
  19 N19            5.8782     0.4289    -2.3944 N.2     
  20 S20            3.8305     1.7015    -3.1102 S.3     
  21 C21            4.7529     0.9900    -4.5111 C.3     
  22 C22            5.9323     0.2770    -3.8313 C.3     
  23 O23            0.8134     3.2808    -0.1475 O.3     
  24 C24           -0.5266     3.3904    -0.1400 C.2     
  25 C25           -1.0869     2.1909     0.0664 C.2     
  26 H26           -0.7929    -0.7196     0.5522 H       
  27 H27            1.4120    -1.7987     0.6880 H       
  28 H28            3.4619    -0.4659     0.4243 H       
  29 H29            3.5261     2.9841    -0.7352 H       
  30 H30            3.2608     3.3489     1.7363 H       
  31 H31            4.3474     1.9683     2.0220 H       
  32 H32            5.3686     0.8815     0.1225 H       
  33 H33            4.1050     5.4196     0.7910 H       
  34 H34            6.7085     2.1139     1.4861 H       
  35 H35            8.3323     5.9766     0.6910 H       
  36 H36            9.3963     3.0841     0.2518 H       
  37 H37            9.7251     4.2054     1.5945 H       
  38 H38            9.0474     2.5934     1.9268 H       
  39 H39            5.9514     7.4488    -0.6749 H       
  40 H40            5.0680     7.6490     0.8573 H       
  41 H41            6.8322     7.8804     0.8104 H       
  42 H42            4.1358     0.2742    -5.0541 H       
  43 H43            5.1076     1.7766    -5.1772 H       
  44 H44            6.8665     0.7012    -4.1993 H       
  45 H45            5.9007    -0.7835    -4.0811 H       
  46 H46           -1.0723     4.3114    -0.2826 H       
  47 H47           -2.1424     1.9692     0.1227 H       
@<TRIPOS>BOND
   1    1    2 ar
   2    1    6 ar
   3    1   25 1
   4    2    3 ar
   5    2   26 1
   6    3    4 ar
   7    3   27 1
   8    4    5 ar
   9    4   28 1
  10    5    6 ar
  11    5    7 1
  12    6   23 1
  13    7    8 1
  14    7    9 1
  15    7   29 1
  16    8   10 1
  17    8   30 1
  18    8   31 1
  19    9   18 1
  20    9   32 1
  21   10   11 ar
  22   10   12 ar
  23   11   15 ar
  24   11   33 1
  25   12   13 ar
  26   12   34 1
  27   13   14 ar
  28   13   16 1
  29   14   15 ar
  30   14   35 1
  31   15   17 1
  32   16   36 1
  33   16   37 1
  34   16   38 1
  35   17   39 1
  36   17   40 1
  37   17   41 1
  38   18   19 2
  39   18   20 1
  40   19   22 1
  41   20   21 1
  42   21   22 1
  43   21   42 1
  44   21   43 1
  45   22   44 1
  46   22   45 1
  47   23   24 1
  48   24   25 2
  49   24   46 1
  50   25   47 1

#	End of record

