#	Name: ASD13990002
#	Creating user name:	WinNT
#	Creation time:	15. 06. 2019 21:30

#	Modifying user name:	WinNT
#	Modification time:	15. 06. 2019 21:30

#	Program:	/corina/corina34_cracker 3.40 0067  02.08.2006

@<TRIPOS>MOLECULE
ASD13990002
  64   69    0    0    0
SMALL
NO_CHARGES


@<TRIPOS>ATOM
   1 C1             0.3969     2.0255    -0.3403 C.ar    
   2 C2             0.7033     0.6782    -0.5384 C.ar    
   3 C3             2.0022     0.2599    -0.5578 C.ar    
   4 C4             3.0456     1.1644    -0.3977 C.ar    
   5 C5             2.7919     2.4952    -0.2535 C.ar    
   6 C6             1.4666     2.9581    -0.2777 C.ar    
   7 C7             1.1917     4.3398    -0.2796 C.ar    
   8 C8            -0.0889     4.7924    -0.2673 C.ar    
   9 C9            -1.1681     3.9139    -0.2082 C.ar    
  10 C10           -0.9660     2.5189    -0.1790 C.ar    
  11 C11           -3.3379     2.1408    -0.2598 C.2     
  12 C12           -2.0881     1.6948     0.0624 C.2     
  13 N13           -2.4720     4.3948    -0.1941 N.pl3   
  14 C14           -3.5116     3.5446    -0.7947 C.3     
  15 C15           -1.9465     0.3596     0.7421 C.3     
  16 C16           -2.9703    -0.6283     0.1787 C.3     
  17 C17           -4.3680    -0.0660     0.4539 C.3     
  18 C18           -4.4656     1.3235    -0.1158 C.2     
  19 C19           -3.3644     3.5456    -2.2945 C.ar    
  20 C20           -4.4682     3.3063    -3.1006 C.ar    
  21 C21           -4.3295     3.3079    -4.4808 C.ar    
  22 C22           -3.0932     3.5475    -5.0494 C.ar    
  23 C23           -1.9950     3.7852    -4.2441 C.ar    
  24 C24           -2.1319     3.7903    -2.8680 C.ar    
  25 O25           -5.5563     1.7456    -0.4557 O.2     
  26 C26           -2.7661    -0.8101    -1.3249 C.3     
  27 C27           -2.8166    -1.9808     0.8815 C.3     
  28 O28           -5.6829     3.0705    -2.5389 O.3     
  29 C29           -6.7829     2.8752    -3.4300 C.3     
  30 C30           -8.0522     2.7147    -2.6337 C.ar    
  31 C31           -8.0275     2.8537    -1.2585 C.ar    
  32 C32           -9.1912     2.7071    -0.5276 C.ar    
  33 C33          -10.3819     2.4210    -1.1720 C.ar    
  34 C34          -10.4072     2.2818    -2.5478 C.ar    
  35 C35           -9.2429     2.4339    -3.2795 C.ar    
  36 Cl36          -9.2749     2.2659    -5.0071 Cl      
  37 Cl37         -11.8435     2.2363    -0.2536 Cl      
  38 H38           -0.0767    -0.0434    -0.7348 H       
  39 H39            2.2232    -0.7891    -0.6978 H       
  40 H40            4.0661     0.8115    -0.3870 H       
  41 H41            3.6067     3.1929    -0.1224 H       
  42 H42            2.0076     5.0461    -0.2922 H       
  43 H43           -0.2732     5.8556    -0.3074 H       
  44 H44           -2.6867     5.2518     0.1963 H       
  45 H45           -4.4923     3.9249    -0.5172 H       
  46 H46           -0.9481    -0.0385     0.6617 H       
  47 H47           -2.1673     0.4973     1.8130 H       
  48 H48           -5.1169    -0.7049    -0.0174 H       
  49 H49           -4.5431    -0.0341     1.5296 H       
  50 H50           -5.1870     3.1215    -5.1104 H       
  51 H51           -2.9847     3.5488    -6.1240 H       
  52 H52           -1.0294     3.9716    -4.6905 H       
  53 H53           -1.2734     3.9810    -2.2411 H       
  54 H54           -1.7633    -1.1941    -1.5116 H       
  55 H55           -3.5027    -1.5159    -1.7089 H       
  56 H56           -2.8868     0.1500    -1.8267 H       
  57 H57           -2.9837    -1.8554     1.9513 H       
  58 H58           -3.5461    -2.6840     0.4798 H       
  59 H59           -1.8106    -2.3653     0.7135 H       
  60 H60           -6.8742     3.7386    -4.0891 H       
  61 H61           -6.6125     1.9791    -4.0267 H       
  62 H62           -7.0983     3.0766    -0.7551 H       
  63 H63           -9.1712     2.8154     0.5468 H       
  64 H64          -11.3362     2.0581    -3.0512 H       
@<TRIPOS>BOND
   1    1    2 ar
   2    1    6 ar
   3    1   10 ar
   4    2    3 ar
   5    2   38 1
   6    3    4 ar
   7    3   39 1
   8    4    5 ar
   9    4   40 1
  10    5    6 ar
  11    5   41 1
  12    6    7 ar
  13    7    8 ar
  14    7   42 1
  15    8    9 ar
  16    8   43 1
  17    9   10 ar
  18    9   13 1
  19   10   12 1
  20   11   14 1
  21   11   18 1
  22   11   12 2
  23   12   15 1
  24   13   14 1
  25   13   44 1
  26   14   19 1
  27   14   45 1
  28   15   16 1
  29   15   46 1
  30   15   47 1
  31   16   17 1
  32   16   26 1
  33   16   27 1
  34   17   18 1
  35   17   48 1
  36   17   49 1
  37   18   25 2
  38   19   20 ar
  39   19   24 ar
  40   20   21 ar
  41   20   28 1
  42   21   22 ar
  43   21   50 1
  44   22   23 ar
  45   22   51 1
  46   23   24 ar
  47   23   52 1
  48   24   53 1
  49   26   54 1
  50   26   55 1
  51   26   56 1
  52   27   57 1
  53   27   58 1
  54   27   59 1
  55   28   29 1
  56   29   30 1
  57   29   60 1
  58   29   61 1
  59   30   31 ar
  60   30   35 ar
  61   31   32 ar
  62   31   62 1
  63   32   33 ar
  64   32   63 1
  65   33   34 ar
  66   33   37 1
  67   34   35 ar
  68   34   64 1
  69   35   36 1

#	End of record

