#	Name: ASD13490016
#	Creating user name:	WinNT
#	Creation time:	15. 06. 2019 21:30

#	Modifying user name:	WinNT
#	Modification time:	15. 06. 2019 21:30

#	Program:	/corina/corina34_cracker 3.40 0067  02.08.2006

@<TRIPOS>MOLECULE
ASD13490016
  60   64    0    0    0
SMALL
NO_CHARGES


@<TRIPOS>ATOM
   1 C1             1.1337     0.9818    -1.5634 C.2     
   2 C2             1.2064    -0.3506    -1.3815 C.2     
   3 N3             2.1037    -0.5929    -0.4145 N.2     
   4 C4             2.5938     0.5384     0.0141 C.2     
   5 N5             2.0130     1.5517    -0.6794 N.pl3   
   6 C6             2.2653     2.9212    -0.5214 C.ar    
   7 C7             2.5447     3.7066    -1.6319 C.ar    
   8 C8             2.7936     5.0539    -1.4821 C.ar    
   9 C9             2.7647     5.6330    -0.2098 C.ar    
  10 C10            2.4829     4.8420     0.9086 C.ar    
  11 C11            2.2296     3.4930     0.7504 C.ar    
  12 C12            3.0307     7.0718    -0.0478 C.2     
  13 O13            1.9503     2.7221     1.8348 O.3     
  14 C14            1.9303     3.3738     3.1064 C.3     
  15 C15            0.4162    -1.3897    -2.1345 C.3     
  16 C16            2.6119     7.9432    -0.9840 C.2     
  17 C17            1.7084     7.5375    -2.1410 C.3     
  18 C18            0.5688     8.5487    -2.2819 C.3     
  19 C19            1.1132     9.9799    -2.4168 C.3     
  20 N20            1.9406    10.2522    -1.2502 N.pl3   
  21 C21            2.9848     9.3672    -0.9695 C.2     
  22 N22            4.1911     9.7909    -0.8497 N.2     
  23 O23            4.5930    11.0752    -1.1197 O.3     
  24 C24            2.8282    12.1036     0.1307 C.3     
  25 C25            1.5919    11.2551    -0.2436 C.3     
  26 C26            3.7715    12.2230    -1.0486 C.3     
  27 C27            1.0735    10.5616     0.9898 C.ar    
  28 C28            1.8513     9.6127     1.6265 C.ar    
  29 C29            1.3769     8.9745     2.7596 C.ar    
  30 C30            0.1212     9.2876     3.2557 C.ar    
  31 C31           -0.6571    10.2393     2.6159 C.ar    
  32 C32           -0.1768    10.8793     1.4862 C.ar    
  33 F33           -1.8817    10.5459     3.0972 F       
  34 F34           -0.3437     8.6656     4.3612 F       
  35 F35            2.1373     8.0469     3.3813 F       
  36 H36            0.5066     1.5013    -2.2727 H       
  37 H37            3.3364     0.6501     0.7903 H       
  38 H38            2.5673     3.2607    -2.6152 H       
  39 H39            3.0112     5.6623    -2.3475 H       
  40 H40            2.4596     5.2854     1.8932 H       
  41 H41            3.5620     7.4281     0.8224 H       
  42 H42            1.6956     2.6467     3.8837 H       
  43 H43            2.9075     3.8144     3.3042 H       
  44 H44            1.1728     4.1575     3.1012 H       
  45 H45            0.9710    -1.6958    -3.0214 H       
  46 H46            0.2502    -2.2552    -1.4930 H       
  47 H47           -0.5441    -0.9696    -2.4336 H       
  48 H48            2.2886     7.5137    -3.0635 H       
  49 H49            1.2938     6.5481    -1.9480 H       
  50 H50           -0.0187     8.3046    -3.1670 H       
  51 H51           -0.0715     8.4910    -1.4017 H       
  52 H52            1.7135    10.0627    -3.3227 H       
  53 H53            0.2852    10.6877    -2.4556 H       
  54 H54            2.5028    13.1007     0.4274 H       
  55 H55            3.3474    11.6329     0.9655 H       
  56 H56            0.8150    11.9081    -0.6412 H       
  57 H57            4.3955    13.1075    -0.9206 H       
  58 H58            3.1985    12.3159    -1.9711 H       
  59 H59            2.8296     9.3688     1.2394 H       
  60 H60           -0.7812    11.6242     0.9899 H       
@<TRIPOS>BOND
   1    1    2 2
   2    1    5 1
   3    1   36 1
   4    2    3 1
   5    2   15 1
   6    3    4 2
   7    4    5 1
   8    4   37 1
   9    5    6 1
  10    6    7 ar
  11    6   11 ar
  12    7    8 ar
  13    7   38 1
  14    8    9 ar
  15    8   39 1
  16    9   10 ar
  17    9   12 1
  18   10   11 ar
  19   10   40 1
  20   11   13 1
  21   12   16 2
  22   12   41 1
  23   13   14 1
  24   14   42 1
  25   14   43 1
  26   14   44 1
  27   15   45 1
  28   15   46 1
  29   15   47 1
  30   16   17 1
  31   16   21 1
  32   17   18 1
  33   17   48 1
  34   17   49 1
  35   18   19 1
  36   18   50 1
  37   18   51 1
  38   19   20 1
  39   19   52 1
  40   19   53 1
  41   20   25 1
  42   20   21 1
  43   21   22 2
  44   22   23 1
  45   23   26 1
  46   24   25 1
  47   24   26 1
  48   24   54 1
  49   24   55 1
  50   25   27 1
  51   25   56 1
  52   26   57 1
  53   26   58 1
  54   27   28 ar
  55   27   32 ar
  56   28   29 ar
  57   28   59 1
  58   29   30 ar
  59   29   35 1
  60   30   31 ar
  61   30   34 1
  62   31   32 ar
  63   31   33 1
  64   32   60 1

#	End of record

