#	Name: ASD10410121
#	Creating user name:	WinNT
#	Creation time:	15. 06. 2019 21:26

#	Modifying user name:	WinNT
#	Modification time:	15. 06. 2019 21:26

#	Program:	/corina/corina34_cracker 3.40 0067  02.08.2006

@<TRIPOS>MOLECULE
ASD10410121
  61   65    0    0    0
SMALL
NO_CHARGES


@<TRIPOS>ATOM
   1 C1             0.0476     1.2896     0.5362 C.ar    
   2 C2             0.0014    -0.0025     0.0294 C.ar    
   3 C3             1.1486    -0.5846    -0.4937 C.ar    
   4 C4             2.3350     0.1215    -0.5104 C.ar    
   5 C5             2.3812     1.4138    -0.0040 C.ar    
   6 C6             1.2340     1.9958     0.5196 C.ar    
   7 N7             3.5845     2.1298    -0.0204 N.pl3   
   8 C8             3.5671     3.5207    -0.1185 C.2     
   9 N9             4.6179     4.3013    -0.0422 N.2     
  10 N10            2.4758     4.2711    -0.3112 N.2     
  11 C11            2.8132     5.5420    -0.3552 C.2     
  12 N12            4.1608     5.6208    -0.1898 N.pl3   
  13 C13            4.9332     6.7791    -0.1707 C.ar    
  14 N14            1.9524     6.6064    -0.5404 N.pl3   
  15 N15           -1.2013    -0.7182     0.0463 N.3     
  16 C16           -1.0259    -2.0565    -0.5351 C.3     
  17 C17           -2.3400    -2.8335    -0.4257 C.3     
  18 N18           -3.4023    -2.0948    -1.1225 N.3     
  19 C19           -3.5777    -0.7566    -0.5412 C.3     
  20 C20           -2.2636     0.0204    -0.6505 C.3     
  21 N21            4.3274     7.9529    -0.3272 N.ar    
  22 C22            5.0024     9.0843    -0.3186 C.ar    
  23 C23            6.3954     9.0326    -0.1387 C.ar    
  24 C24            7.0072     7.7618     0.0253 C.ar    
  25 N25            6.2342     6.6684     0.0071 N.ar    
  26 C26           -4.6645    -2.8460    -1.1048 C.3     
  27 C27            7.1851    10.1928    -0.1180 C.ar    
  28 C28            8.5338    10.0853     0.0597 C.ar    
  29 C29            9.1394     8.8296     0.2214 C.ar    
  30 C30            8.3948     7.6840     0.2059 C.ar    
  31 O31           10.4842     8.7520     0.3962 O.3     
  32 C32           11.0434     7.4466     0.5554 C.3     
  33 O33            9.3002    11.2082     0.0800 O.3     
  34 C34            8.6263    12.4568    -0.0903 C.3     
  35 H35           -0.8455     1.7438     0.9393 H       
  36 H36            1.1128    -1.5897    -0.8872 H       
  37 H37            3.2273    -0.3314    -0.9169 H       
  38 H38            1.2699     3.0008     0.9135 H       
  39 H39            4.4303     1.6582     0.0364 H       
  40 H40            1.0020     6.4478    -0.6525 H       
  41 H41            2.2983     7.5125    -0.5584 H       
  42 H42           -0.7448    -1.9633    -1.5840 H       
  43 H43           -0.2430    -2.5882     0.0058 H       
  44 H44           -2.2206    -3.8160    -0.8823 H       
  45 H45           -2.6071    -2.9503     0.6246 H       
  46 H46           -4.3606    -0.2249    -1.0820 H       
  47 H47           -3.8588    -0.8498     0.5078 H       
  48 H48           -2.3830     1.0029    -0.1939 H       
  49 H49           -1.9965     0.1372    -1.7008 H       
  50 H50            4.4969    10.0300    -0.4472 H       
  51 H51           -4.9738    -3.0126    -0.0730 H       
  52 H52           -5.4335    -2.2768    -1.6272 H       
  53 H53           -4.5230    -3.8061    -1.6012 H       
  54 H54            6.7287    11.1636    -0.2422 H       
  55 H55            8.8731     6.7239     0.3314 H       
  56 H56           12.1226     7.5272     0.6859 H       
  57 H57           10.6061     6.9684     1.4318 H       
  58 H58           10.8282     6.8487    -0.3301 H       
  59 H59            8.1178    12.4666    -1.0544 H       
  60 H60            7.8952    12.5868     0.7075 H       
  61 H61            9.3521    13.2693    -0.0540 H       
@<TRIPOS>BOND
   1    1    2 ar
   2    1    6 ar
   3    1   35 1
   4    2    3 ar
   5    2   15 1
   6    3    4 ar
   7    3   36 1
   8    4    5 ar
   9    4   37 1
  10    5    6 ar
  11    5    7 1
  12    6   38 1
  13    7    8 1
  14    7   39 1
  15    8    9 2
  16    8   10 1
  17    9   12 1
  18   10   11 2
  19   11   12 1
  20   11   14 1
  21   12   13 1
  22   13   21 ar
  23   13   25 ar
  24   14   40 1
  25   14   41 1
  26   15   16 1
  27   15   20 1
  28   16   17 1
  29   16   42 1
  30   16   43 1
  31   17   18 1
  32   17   44 1
  33   17   45 1
  34   18   19 1
  35   18   26 1
  36   19   20 1
  37   19   46 1
  38   19   47 1
  39   20   48 1
  40   20   49 1
  41   21   22 ar
  42   22   23 ar
  43   22   50 1
  44   23   24 ar
  45   23   27 ar
  46   24   25 ar
  47   24   30 ar
  48   26   51 1
  49   26   52 1
  50   26   53 1
  51   27   28 ar
  52   27   54 1
  53   28   29 ar
  54   28   33 1
  55   29   30 ar
  56   29   31 1
  57   30   55 1
  58   31   32 1
  59   32   56 1
  60   32   57 1
  61   32   58 1
  62   33   34 1
  63   34   59 1
  64   34   60 1
  65   34   61 1

#	End of record

