#	Name: ASD10160082
#	Creating user name:	WinNT
#	Creation time:	15. 06. 2019 21:25

#	Modifying user name:	WinNT
#	Modification time:	15. 06. 2019 21:25

#	Program:	/corina/corina34_cracker 3.40 0067  02.08.2006

@<TRIPOS>MOLECULE
ASD10160082
  46   47    0    0    0
SMALL
NO_CHARGES


@<TRIPOS>ATOM
   1 C1            -0.3981     1.1102    -1.9413 C.2     
   2 C2            -0.2784    -0.2685    -1.4369 C.ar    
   3 C3             0.9074    -0.9909    -1.6371 C.ar    
   4 C4             1.0129    -2.2858    -1.1599 C.ar    
   5 C5            -0.0514    -2.8668    -0.4862 C.ar    
   6 C6            -1.2304    -2.1517    -0.2865 C.ar    
   7 C7            -1.3445    -0.8604    -0.7514 C.ar    
   8 O8             0.5320     1.6244    -2.5326 O.2     
   9 N9            -1.5405     1.8000    -1.7525 N.am    
  10 S10           -1.6752     3.3500    -2.3196 S.o2    
  11 O11           -2.9775     3.7566    -1.9223 O.2     
  12 O12           -0.5184     4.0074    -1.8208 O.2     
  13 C13           -1.5836     3.1816    -4.1235 C.3     
  14 O14            1.9477    -0.4220    -2.2970 O.3     
  15 C15            3.1232    -1.2173    -2.4635 C.3     
  16 F16           -2.2627    -2.7247     0.3702 F       
  17 O17            0.0560    -4.1372    -0.0202 O.3     
  18 C18            1.5422    -5.5275    -1.2588 C.ar    
  19 C19            1.2579    -4.7615    -0.1396 C.ar    
  20 C20            2.2183    -4.6386     0.8607 C.ar    
  21 C21            3.4284    -5.2915     0.6966 C.ar    
  22 C22            3.6420    -6.0422    -0.4532 C.ar    
  23 N23            2.7064    -6.1362    -1.3825 N.ar    
  24 O24            4.8252    -6.6860    -0.6243 O.3     
  25 C25            4.9847    -7.4414    -1.8268 C.3     
  26 C26            6.4613    -7.4572    -2.2271 C.3     
  27 C27            4.5036    -8.8753    -1.5957 C.3     
  28 Cl28           4.6629    -5.1733     1.9113 Cl      
  29 H29            1.9245    -2.8445    -1.3124 H       
  30 H30           -2.2579    -0.3069    -0.5912 H       
  31 H31           -2.2838     1.3885    -1.2844 H       
  32 H32           -2.4000     2.5487    -4.4712 H       
  33 H33           -1.6649     4.1658    -4.5849 H       
  34 H34           -0.6307     2.7291    -4.3982 H       
  35 H35            3.5145    -1.4966    -1.4853 H       
  36 H36            2.8762    -2.1173    -3.0266 H       
  37 H37            3.8756    -0.6445    -3.0057 H       
  38 H38            0.8006    -5.6312    -2.0370 H       
  39 H39            2.0243    -4.0479     1.7438 H       
  40 H40            4.3971    -6.9850    -2.6233 H       
  41 H41            7.0488    -7.9137    -1.4305 H       
  42 H42            6.5830    -8.0335    -3.1442 H       
  43 H43            6.8041    -6.4357    -2.3916 H       
  44 H44            5.0911    -9.3318    -0.7992 H       
  45 H45            3.4516    -8.8641    -1.3106 H       
  46 H46            4.6252    -9.4516    -2.5129 H       
@<TRIPOS>BOND
   1    1    2 1
   2    1    8 2
   3    1    9 am
   4    2    3 ar
   5    2    7 ar
   6    3    4 ar
   7    3   14 1
   8    4    5 ar
   9    4   29 1
  10    5    6 ar
  11    5   17 1
  12    6    7 ar
  13    6   16 1
  14    7   30 1
  15    9   10 am
  16    9   31 1
  17   10   11 2
  18   10   12 2
  19   10   13 1
  20   13   32 1
  21   13   33 1
  22   13   34 1
  23   14   15 1
  24   15   35 1
  25   15   36 1
  26   15   37 1
  27   17   19 1
  28   18   19 ar
  29   18   23 ar
  30   18   38 1
  31   19   20 ar
  32   20   21 ar
  33   20   39 1
  34   21   22 ar
  35   21   28 1
  36   22   23 ar
  37   22   24 1
  38   24   25 1
  39   25   26 1
  40   25   27 1
  41   25   40 1
  42   26   41 1
  43   26   42 1
  44   26   43 1
  45   27   44 1
  46   27   45 1
  47   27   46 1

#	End of record

