#	Name: ASD10420034
#	Creating user name:	WinNT
#	Creation time:	15. 06. 2019 21:27

#	Modifying user name:	WinNT
#	Modification time:	15. 06. 2019 21:27

#	Program:	/corina/corina34_cracker 3.40 0067  02.08.2006

@<TRIPOS>MOLECULE
ASD10420034
  20   20    0    0    0
SMALL
NO_CHARGES


@<TRIPOS>ATOM
   1 C1            -0.0184     1.5028     0.0103 C.3     
   2 C2             0.0021    -0.0041     0.0020 C.2     
   3 C3            -1.2926    -0.7753     0.0102 C.3     
   4 O4             1.0559    -0.5936    -0.0112 O.2     
   5 C5            -0.9972    -2.2530    -0.0005 C.ar    
   6 C6            -0.8501    -2.9380     1.1923 C.ar    
   7 C7            -0.5788    -4.2946     1.1819 C.ar    
   8 C8            -0.4542    -4.9662    -0.0200 C.ar    
   9 C9            -0.6008    -4.2834    -1.2124 C.ar    
  10 C10           -0.8785    -2.9267    -1.2038 C.ar    
  11 F11           -1.0278    -2.2600    -2.3693 F       
  12 Cl12          -1.0053    -2.0954     2.7021 Cl      
  13 Br13           1.8261     2.1833    -0.0037 Br      
  14 H14           -0.5455     1.8639    -0.8728 H       
  15 H15           -0.5286     1.8543     0.9071 H       
  16 H16           -1.8592    -0.5245     0.9070 H       
  17 H17           -1.8762    -0.5150    -0.8728 H       
  18 H18           -0.4641    -4.8291     2.1133 H       
  19 H19           -0.2417    -6.0251    -0.0270 H       
  20 H20           -0.5033    -4.8088    -2.1510 H       
@<TRIPOS>BOND
   1    1    2 1
   2    1   13 1
   3    1   14 1
   4    1   15 1
   5    2    3 1
   6    2    4 2
   7    3    5 1
   8    3   16 1
   9    3   17 1
  10    5    6 ar
  11    5   10 ar
  12    6    7 ar
  13    6   12 1
  14    7    8 ar
  15    7   18 1
  16    8    9 ar
  17    8   19 1
  18    9   10 ar
  19    9   20 1
  20   10   11 1

#	End of record

