#	Name: ASD10160220
#	Creating user name:	WinNT
#	Creation time:	15. 06. 2019 21:25

#	Modifying user name:	WinNT
#	Modification time:	15. 06. 2019 21:25

#	Program:	/corina/corina34_cracker 3.40 0067  02.08.2006

@<TRIPOS>MOLECULE
ASD10160220
  41   43    0    0    0
SMALL
NO_CHARGES


@<TRIPOS>ATOM
   1 C1            -0.1358     1.4672     0.0332 C.2     
   2 C2            -0.0848    -0.0063     0.0191 C.ar    
   3 C3             1.1404    -0.6649    -0.1385 C.ar    
   4 C4             1.1829    -2.0446    -0.1511 C.ar    
   5 C5             0.0130    -2.7784    -0.0079 C.ar    
   6 C6            -1.2079    -2.1270     0.1487 C.ar    
   7 C7            -1.2593    -0.7501     0.1687 C.ar    
   8 O8             0.8874     2.1122    -0.0921 O.2     
   9 N9            -1.3172     2.0992     0.1795 N.am    
  10 S10           -1.3745     3.7542     0.1954 S.o2    
  11 O11           -2.7496     4.0553     0.3892 O.2     
  12 O12           -0.3995     4.1293     1.1586 O.2     
  13 C13           -0.8447     4.2414    -1.4697 C.3     
  14 O14            0.0593    -4.1349    -0.0209 O.3     
  15 N15            0.2745    -6.9038    -0.2137 N.ar    
  16 C16            0.3803    -8.2084    -0.2850 C.ar    
  17 C17            0.1725    -8.8963    -1.4787 C.ar    
  18 C18           -0.1510    -8.2091    -2.6137 C.ar    
  19 C19           -0.2641    -6.8079    -2.5327 C.ar    
  20 C20           -0.5929    -6.0363    -3.6586 C.ar    
  21 C21           -0.6942    -4.6828    -3.5474 C.ar    
  22 C22           -0.4769    -4.0463    -2.3286 C.ar    
  23 C23           -0.1518    -4.7688    -1.2033 C.ar    
  24 C24           -0.0390    -6.1726    -1.2869 C.ar    
  25 C25           -0.8328    -6.7045    -4.9878 C.3     
  26 F26           -2.3431    -2.8462     0.2872 F       
  27 F27            2.2791     0.0486    -0.2784 F       
  28 H28            2.1275    -2.5539    -0.2730 H       
  29 H29           -2.2061    -0.2461     0.2950 H       
  30 H30           -2.1339     1.5847     0.2755 H       
  31 H31           -1.5270     3.8177    -2.2066 H       
  32 H32           -0.8526     5.3284    -1.5500 H       
  33 H33            0.1639     3.8709    -1.6531 H       
  34 H34            0.6356    -8.7647     0.6049 H       
  35 H35            0.2675    -9.9717    -1.5065 H       
  36 H36           -0.3152    -8.7261    -3.5476 H       
  37 H37           -0.9475    -4.0948    -4.4172 H       
  38 H38           -0.5627    -2.9716    -2.2658 H       
  39 H39           -1.8885    -6.9594    -5.0811 H       
  40 H40           -0.5506    -6.0253    -5.7922 H       
  41 H41           -0.2329    -7.6124    -5.0517 H       
@<TRIPOS>BOND
   1    1    2 1
   2    1    8 2
   3    1    9 am
   4    2    3 ar
   5    2    7 ar
   6    3    4 ar
   7    3   27 1
   8    4    5 ar
   9    4   28 1
  10    5    6 ar
  11    5   14 1
  12    6    7 ar
  13    6   26 1
  14    7   29 1
  15    9   10 am
  16    9   30 1
  17   10   11 2
  18   10   12 2
  19   10   13 1
  20   13   31 1
  21   13   32 1
  22   13   33 1
  23   14   23 1
  24   15   16 ar
  25   15   24 ar
  26   16   17 ar
  27   16   34 1
  28   17   18 ar
  29   17   35 1
  30   18   19 ar
  31   18   36 1
  32   19   20 ar
  33   19   24 ar
  34   20   21 ar
  35   20   25 1
  36   21   22 ar
  37   21   37 1
  38   22   23 ar
  39   22   38 1
  40   23   24 ar
  41   25   39 1
  42   25   40 1
  43   25   41 1

#	End of record

