#	Name: ASD14740002
#	Creating user name:	WinNT
#	Creation time:	15. 06. 2019 21:31

#	Modifying user name:	WinNT
#	Modification time:	15. 06. 2019 21:31

#	Program:	/corina/corina34_cracker 3.40 0067  02.08.2006

@<TRIPOS>MOLECULE
ASD14740002
  59   63    0    0    0
SMALL
NO_CHARGES


@<TRIPOS>ATOM
   1 C1             0.0106     1.4728     0.2199 C.ar    
   2 C2             0.1564     0.0968     0.0600 C.ar    
   3 C3             1.3941    -0.4937     0.2530 C.ar    
   4 C4             2.4869     0.2868     0.6055 C.ar    
   5 C5             2.3390     1.6585     0.7647 C.ar    
   6 C6             1.1047     2.2491     0.5720 C.ar    
   7 N7             3.7380    -0.3090     0.8007 N.3     
   8 C8             4.7479     0.6943     1.1658 C.3     
   9 C9             6.0796    -0.0055     1.4475 C.3     
  10 N10            6.4960    -0.7584     0.2561 N.3     
  11 C11            5.4861    -1.7616    -0.1090 C.3     
  12 C12            4.1544    -1.0619    -0.3907 C.3     
  13 C13            7.8093    -1.3838     0.4611 C.3     
  14 N14           -1.2414     2.0741     0.0192 N.pl3   
  15 C15           -1.3183     3.3610    -0.4854 C.ar    
  16 C16           -0.2372     5.2026    -1.3613 C.ar    
  17 N17           -0.2099     3.9664    -0.8865 N.ar    
  18 N18           -2.5010     3.9581    -0.5613 N.ar    
  19 C19           -2.5979     5.1863    -1.0393 C.ar    
  20 C20           -1.4477     5.8671    -1.4381 C.ar    
  21 C21           -1.5037     7.2926    -1.9093 C.3     
  22 C22           -3.9551     6.9718    -1.9080 C.2     
  23 C23           -2.8022     7.5798    -2.6667 C.3     
  24 N24           -3.8283     5.8318    -1.1684 N.pl3   
  25 C25           -5.0299     5.5031    -0.6213 C.2     
  26 C26           -5.9435     6.4193    -0.9930 C.2     
  27 C27           -5.2422     7.3904    -1.8448 C.2     
  28 C28           -5.8218     8.5715    -2.5066 C.2     
  29 O29           -5.1211     9.2868    -3.1970 O.2     
  30 N30           -7.1287     8.8597    -2.3473 N.am    
  31 O31           -0.9154    -0.6659    -0.2847 O.3     
  32 C32           -0.6925    -2.0697    -0.4314 C.3     
  33 H33            1.5091    -1.5604     0.1299 H       
  34 H34            3.1898     2.2643     1.0396 H       
  35 H35            0.9918     3.3160     0.6960 H       
  36 H36            4.8741     1.3990     0.3439 H       
  37 H37            4.4226     1.2298     2.0577 H       
  38 H38            6.8375     0.7393     1.6903 H       
  39 H39            5.9601    -0.6902     2.2871 H       
  40 H40            5.8113    -2.2971    -1.0009 H       
  41 H41            5.3599    -2.4663     0.7129 H       
  42 H42            3.3965    -1.8067    -0.6335 H       
  43 H43            4.2739    -0.3771    -1.2303 H       
  44 H44            7.7573    -2.0691     1.3071 H       
  45 H45            8.0934    -1.9346    -0.4357 H       
  46 H46            8.5517    -0.6119     0.6638 H       
  47 H47           -2.0529     1.5881     0.2340 H       
  48 H48            0.6735     5.6852    -1.6840 H       
  49 H49           -1.4397     7.9560    -1.0469 H       
  50 H50           -0.6568     7.4838    -2.5684 H       
  51 H51           -2.9466     8.6571    -2.7483 H       
  52 H52           -2.7486     7.1405    -3.6628 H       
  53 H53           -5.2198     4.6464     0.0084 H       
  54 H54           -6.9879     6.4373    -0.7187 H       
  55 H55           -7.6876     8.2892    -1.7967 H       
  56 H56           -7.5105     9.6376    -2.7832 H       
  57 H57           -1.6265    -2.5591    -0.7073 H       
  58 H58            0.0509    -2.2402    -1.2101 H       
  59 H59           -0.3317    -2.4808     0.5115 H       
@<TRIPOS>BOND
   1    1    2 ar
   2    1    6 ar
   3    1   14 1
   4    2    3 ar
   5    2   31 1
   6    3    4 ar
   7    3   33 1
   8    4    5 ar
   9    4    7 1
  10    5    6 ar
  11    5   34 1
  12    6   35 1
  13    7    8 1
  14    7   12 1
  15    8    9 1
  16    8   36 1
  17    8   37 1
  18    9   10 1
  19    9   38 1
  20    9   39 1
  21   10   11 1
  22   10   13 1
  23   11   12 1
  24   11   40 1
  25   11   41 1
  26   12   42 1
  27   12   43 1
  28   13   44 1
  29   13   45 1
  30   13   46 1
  31   14   15 1
  32   14   47 1
  33   15   18 ar
  34   15   17 ar
  35   16   17 ar
  36   16   20 ar
  37   16   48 1
  38   18   19 ar
  39   19   20 ar
  40   19   24 1
  41   20   21 1
  42   21   23 1
  43   21   49 1
  44   21   50 1
  45   22   23 1
  46   22   27 2
  47   22   24 1
  48   23   51 1
  49   23   52 1
  50   24   25 1
  51   25   26 2
  52   25   53 1
  53   26   27 1
  54   26   54 1
  55   27   28 1
  56   28   29 2
  57   28   30 am
  58   30   55 1
  59   30   56 1
  60   31   32 1
  61   32   57 1
  62   32   58 1
  63   32   59 1

#	End of record

