#	Name: ASD11820014
#	Creating user name:	WinNT
#	Creation time:	15. 06. 2019 21:29

#	Modifying user name:	WinNT
#	Modification time:	15. 06. 2019 21:29

#	Program:	/corina/corina34_cracker 3.40 0067  02.08.2006

@<TRIPOS>MOLECULE
ASD11820014
  33   36    0    0    0
SMALL
NO_CHARGES


@<TRIPOS>ATOM
   1 C1            -0.0165     1.3620     0.0095 C.ar    
   2 C2             0.0021    -0.0041     0.0020 C.ar    
   3 C3             1.2070    -0.6932    -0.0127 C.ar    
   4 C4             2.4065    -0.0119    -0.0201 C.ar    
   5 C5             1.1860     2.0728     0.0019 C.ar    
   6 C6             1.5261     3.4975     0.0053 C.2     
   7 C7             2.4100     1.3811    -0.0131 C.ar    
   8 N8             3.4116     2.3272    -0.0168 N.pl3   
   9 C9             2.8659     3.5815    -0.0076 C.2     
  10 C10            0.5559     4.6506     0.0203 C.3     
  11 C11            0.1518     4.9485     1.4412 C.2     
  12 C12            0.8706     5.8012     2.3909 C.ar    
  13 C13           -0.9383     4.4873     2.0747 C.2     
  14 N14           -0.9733     4.9702     3.3541 N.pl3   
  15 C15            0.1200     5.7777     3.5795 C.ar    
  16 C16            2.0467     6.5519     2.3237 C.ar    
  17 C17            0.5620     6.5081     4.6802 C.ar    
  18 C18            1.7263     7.2428     4.5912 C.ar    
  19 C19            2.4630     7.2609     3.4148 C.ar    
  20 F20            3.5733    -0.6929    -0.0335 F       
  21 F21           -0.1469     6.4974     5.8303 F       
  22 H22           -0.9581     1.8908     0.0169 H       
  23 H23           -0.9284    -0.5523     0.0080 H       
  24 H24            1.2053    -1.7732    -0.0182 H       
  25 H25            4.3619     2.1328    -0.0258 H       
  26 H26            3.4294     4.5029    -0.0097 H       
  27 H27            1.0303     5.5303    -0.4145 H       
  28 H28           -0.3279     4.3893    -0.5616 H       
  29 H29           -1.6782     3.8323     1.6387 H       
  30 H30           -1.6659     4.7752     4.0047 H       
  31 H31            2.6253     6.5714     1.4120 H       
  32 H32            2.0680     7.8090     5.4450 H       
  33 H33            3.3725     7.8409     3.3614 H       
@<TRIPOS>BOND
   1    1    2 ar
   2    1    5 ar
   3    1   22 1
   4    2    3 ar
   5    2   23 1
   6    3    4 ar
   7    3   24 1
   8    4    7 ar
   9    4   20 1
  10    5    7 ar
  11    5    6 1
  12    6    9 2
  13    6   10 1
  14    7    8 1
  15    8    9 1
  16    8   25 1
  17    9   26 1
  18   10   11 1
  19   10   27 1
  20   10   28 1
  21   11   13 2
  22   11   12 1
  23   12   15 ar
  24   12   16 ar
  25   13   14 1
  26   13   29 1
  27   14   15 1
  28   14   30 1
  29   15   17 ar
  30   16   19 ar
  31   16   31 1
  32   17   18 ar
  33   17   21 1
  34   18   19 ar
  35   18   32 1
  36   19   33 1

#	End of record

