#	Name: ASD10160174
#	Creating user name:	WinNT
#	Creation time:	15. 06. 2019 21:25

#	Modifying user name:	WinNT
#	Modification time:	15. 06. 2019 21:25

#	Program:	/corina/corina34_cracker 3.40 0067  02.08.2006

@<TRIPOS>MOLECULE
ASD10160174
  37   38    0    0    0
SMALL
NO_CHARGES


@<TRIPOS>ATOM
   1 C1            -0.0332     1.4701     0.0134 C.2     
   2 C2            -0.0091    -0.0043     0.0044 C.ar    
   3 C3             1.2058    -0.6858    -0.1325 C.ar    
   4 C4             1.2230    -2.0662    -0.1403 C.ar    
   5 C5             0.0379    -2.7777    -0.0127 C.ar    
   6 C6            -1.1728    -2.1036     0.1233 C.ar    
   7 C7            -1.1992    -0.7257     0.1385 C.ar    
   8 O8             1.0036     2.0958    -0.0983 O.2     
   9 N9            -1.2047     2.1243     0.1398 N.am    
  10 S10           -1.2317     3.7800     0.1498 S.o2    
  11 O11           -2.6038     4.1071     0.3218 O.2     
  12 O12           -0.2646     4.1404     1.1266 O.2     
  13 C13           -0.6679     4.2520    -1.5085 C.3     
  14 F14           -2.3231    -2.8014     0.2463 F       
  15 F15            2.3595     0.0061    -0.2572 F       
  16 O16            0.0593    -4.1352    -0.0209 O.3     
  17 C17           -0.1512    -4.7675    -1.2004 C.ar    
  18 C18           -0.0370    -6.1640    -1.2725 C.ar    
  19 C19           -0.2603    -6.7968    -2.5080 C.ar    
  20 C20           -0.5854    -6.0032    -3.6043 C.ar    
  21 C21           -0.6774    -4.6360    -3.4468 C.ar    
  22 N22           -0.4683    -4.0651    -2.2744 N.ar    
  23 O23           -0.1613    -8.1434    -2.6283 O.3     
  24 C24           -0.4053    -8.6988    -3.9221 C.3     
  25 C25            0.3010    -6.9297    -0.1106 C.1     
  26 N26            0.5691    -7.5372     0.8112 N.1     
  27 H27            2.1597    -2.5932    -0.2463 H       
  28 H28           -2.1384    -0.2040     0.2488 H       
  29 H29           -2.0321     1.6252     0.2248 H       
  30 H30           -1.3466     3.8385    -2.2544 H       
  31 H31           -0.6545     5.3387    -1.5922 H       
  32 H32            0.3364     3.8624    -1.6754 H       
  33 H33           -0.7636    -6.4538    -4.5695 H       
  34 H34           -0.9293    -4.0208    -4.2980 H       
  35 H35           -0.2937    -9.7822    -3.8794 H       
  36 H36           -1.4181    -8.4501    -4.2392 H       
  37 H37            0.3098    -8.2877    -4.6347 H       
@<TRIPOS>BOND
   1    1    2 1
   2    1    8 2
   3    1    9 am
   4    2    3 ar
   5    2    7 ar
   6    3    4 ar
   7    3   15 1
   8    4    5 ar
   9    4   27 1
  10    5    6 ar
  11    5   16 1
  12    6    7 ar
  13    6   14 1
  14    7   28 1
  15    9   10 am
  16    9   29 1
  17   10   11 2
  18   10   12 2
  19   10   13 1
  20   13   30 1
  21   13   31 1
  22   13   32 1
  23   16   17 1
  24   17   18 ar
  25   17   22 ar
  26   18   19 ar
  27   18   25 1
  28   19   20 ar
  29   19   23 1
  30   20   21 ar
  31   20   33 1
  32   21   22 ar
  33   21   34 1
  34   23   24 1
  35   24   35 1
  36   24   36 1
  37   24   37 1
  38   25   26 3

#	End of record

