#	Name: ASD10420103
#	Creating user name:	WinNT
#	Creation time:	15. 06. 2019 21:27

#	Modifying user name:	WinNT
#	Modification time:	15. 06. 2019 21:27

#	Program:	/corina/corina34_cracker 3.40 0067  02.08.2006

@<TRIPOS>MOLECULE
ASD10420103
  88   93    0    0    0
SMALL
NO_CHARGES


@<TRIPOS>ATOM
   1 N1             0.0005     0.2473     0.3401 N.pl3   
   2 C2            -0.3116    -1.0766     0.1622 C.2     
   3 C3            -1.7093    -1.1830     0.0421 C.2     
   4 C4            -2.2289     0.1058     0.1518 C.2     
   5 C5            -1.1630     0.9730     0.3396 C.2     
   6 N6             1.3380     0.6371     0.4892 N.2     
   7 C7             2.3026    -0.2395     0.4623 C.2     
   8 C8             2.0268    -1.6125     0.2810 C.2     
   9 C9             0.7112    -2.0317     0.1304 C.2     
  10 C10           -1.2630     2.4247     0.5031 C.2     
  11 O11           -1.3650     3.1418    -0.4753 O.2     
  12 C12           -3.6853     0.4871     0.0840 C.3     
  13 C13           -4.3120     0.3207     1.4443 C.ar    
  14 C14           -4.5562     1.4294     2.2328 C.ar    
  15 C15           -4.6477    -0.9401     1.9008 C.ar    
  16 C16           -5.2228    -1.0943     3.1487 C.ar    
  17 C17           -5.4630     0.0121     3.9408 C.ar    
  18 C18           -2.4827    -2.4292    -0.1628 C.ar    
  19 C19           -2.4992    -3.4137     0.8254 C.ar    
  20 C20           -3.2216    -4.5726     0.6285 C.ar    
  21 C21           -3.9283    -4.7596    -0.5461 C.ar    
  22 C22           -3.9158    -3.7869    -1.5300 C.ar    
  23 C23           -3.2023    -2.6210    -1.3424 C.ar    
  24 C24           -4.1962     2.8044     1.7321 C.3     
  25 C25           -5.1319     1.2762     3.4824 C.ar    
  26 F26           -5.3660     2.3587     4.2561 F       
  27 C27            3.1286    -2.5950     0.2519 C.2     
  28 O28            3.6815    -2.9192     1.2850 O.2     
  29 N29            3.5214    -3.1324    -0.9200 N.am    
  30 C30            2.9409    -2.6694    -2.1878 C.3     
  31 C31            4.0776    -2.2655    -3.1321 C.3     
  32 C32            5.0541    -3.4348    -3.2779 C.3     
  33 C33            5.6573    -3.7712    -1.9121 C.3     
  34 C34            4.5426    -4.1882    -0.9545 C.3     
  35 N35           -1.2421     2.9670     1.7368 N.am    
  36 C36           -1.4423     4.4112     1.9300 C.3     
  37 C37           -0.3058     4.9472     2.8071 C.3     
  38 N38           -0.2332     4.1590     4.0447 N.3     
  39 C39            0.0956     2.7551     3.7638 C.3     
  40 C40           -1.0245     2.1293     2.9260 C.3     
  41 C41           -0.5742     6.4137     3.1508 C.3     
  42 C42            0.6009     6.9752     3.9090 C.2     
  43 N43            0.5874     8.2591     4.3185 N.am    
  44 O44            1.5588     6.2716     4.1507 O.2     
  45 C45            1.7298     8.8049     5.0556 C.3     
  46 C46            1.4614    10.2715     5.3993 C.3     
  47 O47            0.3554    10.3548     6.3003 O.3     
  48 H48            3.3249     0.0883     0.5797 H       
  49 H49            0.4811    -3.0776    -0.0089 H       
  50 H50           -3.7744     1.5263    -0.2325 H       
  51 H51           -4.1962    -0.1561    -0.6326 H       
  52 H52           -4.4609    -1.8054     1.2821 H       
  53 H53           -5.4846    -2.0799     3.5043 H       
  54 H54           -5.9129    -0.1085     4.9152 H       
  55 H55           -1.9473    -3.2692     1.7424 H       
  56 H56           -3.2352    -5.3355     1.3928 H       
  57 H57           -4.4917    -5.6687    -0.6959 H       
  58 H58           -4.4694    -3.9386    -2.4448 H       
  59 H59           -3.1933    -1.8624    -2.1111 H       
  60 H60           -5.0320     3.2152     1.1657 H       
  61 H61           -3.9774     3.4540     2.5796 H       
  62 H62           -3.3188     2.7387     1.0887 H       
  63 H63            2.3596    -3.4736    -2.6388 H       
  64 H64            2.2970    -1.8097    -2.0025 H       
  65 H65            3.6661    -2.0113    -4.1089 H       
  66 H66            4.6020    -1.4025    -2.7220 H       
  67 H67            4.5237    -4.3049    -3.6648 H       
  68 H68            5.8508    -3.1586    -3.9686 H       
  69 H69            6.3701    -4.5886    -2.0206 H       
  70 H70            6.1668    -2.8940    -1.5134 H       
  71 H71            4.9551    -4.3303     0.0444 H       
  72 H72            4.0945    -5.1188    -1.3028 H       
  73 H73           -1.4281     4.9154     0.9638 H       
  74 H74           -2.3987     4.5855     2.4231 H       
  75 H75            0.6384     4.8663     2.2685 H       
  76 H76            0.4271     4.5625     4.6921 H       
  77 H77            1.0342     2.7048     3.2119 H       
  78 H78            0.1955     2.2102     4.7025 H       
  79 H79           -1.9407     2.0843     3.5148 H       
  80 H80           -0.7340     1.1249     2.6181 H       
  81 H81           -0.7185     6.9817     2.2318 H       
  82 H82           -1.4710     6.4844     3.7663 H       
  83 H83           -0.1787     8.8218     4.1252 H       
  84 H84            1.8742     8.2369     5.9747 H       
  85 H85            2.6266     8.7342     4.4401 H       
  86 H86            2.3458    10.7024     5.8687 H       
  87 H87            1.2295    10.8218     4.4874 H       
  88 H88            0.1284    11.2577     6.5619 H       
@<TRIPOS>BOND
   1    1    2 1
   2    1    6 1
   3    1    5 1
   4    2    3 2
   5    2    9 1
   6    3    4 1
   7    3   18 1
   8    4    5 2
   9    4   12 1
  10    5   10 1
  11    6    7 2
  12    7    8 1
  13    7   48 1
  14    8    9 2
  15    8   27 1
  16    9   49 1
  17   10   11 2
  18   10   35 am
  19   12   13 1
  20   12   50 1
  21   12   51 1
  22   13   14 ar
  23   13   15 ar
  24   14   24 1
  25   14   25 ar
  26   15   16 ar
  27   15   52 1
  28   16   17 ar
  29   16   53 1
  30   17   25 ar
  31   17   54 1
  32   18   19 ar
  33   18   23 ar
  34   19   20 ar
  35   19   55 1
  36   20   21 ar
  37   20   56 1
  38   21   22 ar
  39   21   57 1
  40   22   23 ar
  41   22   58 1
  42   23   59 1
  43   24   60 1
  44   24   61 1
  45   24   62 1
  46   25   26 1
  47   27   28 2
  48   27   29 am
  49   29   30 1
  50   29   34 1
  51   30   31 1
  52   30   63 1
  53   30   64 1
  54   31   32 1
  55   31   65 1
  56   31   66 1
  57   32   33 1
  58   32   67 1
  59   32   68 1
  60   33   34 1
  61   33   69 1
  62   33   70 1
  63   34   71 1
  64   34   72 1
  65   35   36 1
  66   35   40 1
  67   36   37 1
  68   36   73 1
  69   36   74 1
  70   37   38 1
  71   37   41 1
  72   37   75 1
  73   38   39 1
  74   38   76 1
  75   39   40 1
  76   39   77 1
  77   39   78 1
  78   40   79 1
  79   40   80 1
  80   41   42 1
  81   41   81 1
  82   41   82 1
  83   42   43 am
  84   42   44 2
  85   43   45 1
  86   43   83 1
  87   45   46 1
  88   45   84 1
  89   45   85 1
  90   46   47 1
  91   46   86 1
  92   46   87 1
  93   47   88 1

#	End of record

