#	Name: ASD10410063
#	Creating user name:	WinNT
#	Creation time:	15. 06. 2019 21:26

#	Modifying user name:	WinNT
#	Modification time:	15. 06. 2019 21:26

#	Program:	/corina/corina34_cracker 3.40 0067  02.08.2006

@<TRIPOS>MOLECULE
ASD10410063
  54   57    0    0    0
SMALL
NO_CHARGES


@<TRIPOS>ATOM
   1 C1            -0.0135     1.8243     0.0510 C.ar    
   2 C2             0.0185     0.4378     0.0256 C.ar    
   3 C3             1.2347    -0.2291     0.0375 C.ar    
   4 C4             2.4149     0.4869     0.0741 C.ar    
   5 C5             2.3839     1.8751     0.0990 C.ar    
   6 C6             1.1658     2.5420     0.0876 C.ar    
   7 O7            -1.1433    -0.2682    -0.0104 O.3     
   8 N8             3.5798     2.6017     0.1366 N.pl3   
   9 C9             3.6515     3.8586    -0.4649 C.2     
  10 N10            4.6830     4.6674    -0.4184 N.2     
  11 N11            2.6813     4.4310    -1.1870 N.2     
  12 C12            3.0795     5.6134    -1.6056 C.2     
  13 N13            4.3369     5.8153    -1.1494 N.pl3   
  14 C14            5.1356     6.9460    -1.3635 C.ar    
  15 N15            2.3437     6.4928    -2.3778 N.pl3   
  16 C16            6.0012     7.3847    -0.3702 C.ar    
  17 C17            5.0675     7.6274    -2.5717 C.ar    
  18 C18            6.7873     8.4999    -0.5844 C.ar    
  19 C19            6.7127     9.1798    -1.7863 C.ar    
  20 C20            5.8561     8.7419    -2.7797 C.ar    
  21 C21           -1.0362    -1.6929    -0.0349 C.3     
  22 C22           -2.4362    -2.3090    -0.0740 C.3     
  23 N23           -3.1137    -1.9070    -1.3139 N.3     
  24 C24           -4.4263    -2.5550    -1.4302 C.3     
  25 C25           -5.1619    -2.0042    -2.6539 C.3     
  26 C26           -4.3266    -2.2722    -3.9089 C.3     
  27 C27           -2.9476    -1.6278    -3.7418 C.3     
  28 C28           -2.2762    -2.1896    -2.4866 C.3     
  29 H29           -0.9608     2.3428     0.0375 H       
  30 H30            1.2586    -1.3087     0.0185 H       
  31 H31            3.3618    -0.0325     0.0837 H       
  32 H32            1.1407     3.6215     0.1066 H       
  33 H33            4.3585     2.2314     0.5808 H       
  34 H34            1.4460     6.2569    -2.6593 H       
  35 H35            2.7252     7.3458    -2.6382 H       
  36 H36            6.0595     6.8545     0.5689 H       
  37 H37            4.3987     7.2858    -3.3479 H       
  38 H38            7.4608     8.8415     0.1877 H       
  39 H39            7.3279    10.0520    -1.9511 H       
  40 H40            5.8003     9.2748    -3.7174 H       
  41 H41           -0.4792    -2.0002    -0.9200 H       
  42 H42           -0.5142    -2.0335     0.8593 H       
  43 H43           -2.3561    -3.3955    -0.0395 H       
  44 H44           -3.0109    -1.9597     0.7838 H       
  45 H45           -4.2916    -3.6309    -1.5413 H       
  46 H46           -5.0118    -2.3532    -0.5332 H       
  47 H47           -6.1297    -2.4966    -2.7490 H       
  48 H48           -5.3092    -0.9305    -2.5372 H       
  49 H49           -4.2119    -3.3472    -4.0475 H       
  50 H50           -4.8262    -1.8432    -4.7775 H       
  51 H51           -2.3334    -1.8514    -4.6141 H       
  52 H52           -3.0601    -0.5482    -3.6422 H       
  53 H53           -1.3000    -1.7223    -2.3568 H       
  54 H54           -2.1516    -3.2672    -2.5927 H       
@<TRIPOS>BOND
   1    1    2 ar
   2    1    6 ar
   3    1   29 1
   4    2    3 ar
   5    2    7 1
   6    3    4 ar
   7    3   30 1
   8    4    5 ar
   9    4   31 1
  10    5    6 ar
  11    5    8 1
  12    6   32 1
  13    7   21 1
  14    8    9 1
  15    8   33 1
  16    9   10 2
  17    9   11 1
  18   10   13 1
  19   11   12 2
  20   12   13 1
  21   12   15 1
  22   13   14 1
  23   14   16 ar
  24   14   17 ar
  25   15   34 1
  26   15   35 1
  27   16   18 ar
  28   16   36 1
  29   17   20 ar
  30   17   37 1
  31   18   19 ar
  32   18   38 1
  33   19   20 ar
  34   19   39 1
  35   20   40 1
  36   21   22 1
  37   21   41 1
  38   21   42 1
  39   22   23 1
  40   22   43 1
  41   22   44 1
  42   23   24 1
  43   23   28 1
  44   24   25 1
  45   24   45 1
  46   24   46 1
  47   25   26 1
  48   25   47 1
  49   25   48 1
  50   26   27 1
  51   26   49 1
  52   26   50 1
  53   27   28 1
  54   27   51 1
  55   27   52 1
  56   28   53 1
  57   28   54 1

#	End of record

