#	Name: ASD10410253
#	Creating user name:	WinNT
#	Creation time:	15. 06. 2019 21:27

#	Modifying user name:	WinNT
#	Modification time:	15. 06. 2019 21:27

#	Program:	/corina/corina34_cracker 3.40 0067  02.08.2006

@<TRIPOS>MOLECULE
ASD10410253
  75   80    0    0    0
SMALL
NO_CHARGES


@<TRIPOS>ATOM
   1 C1            -0.0557     1.3784    -0.2397 C.ar    
   2 C2            -0.0214     0.0053    -0.0349 C.ar    
   3 C3             1.1872    -0.6284     0.2226 C.ar    
   4 C4             2.3548     0.1068     0.2750 C.ar    
   5 C5             2.3206     1.4799     0.0702 C.ar    
   6 C6             1.1119     2.1136    -0.1873 C.ar    
   7 N7             3.5046     2.2256     0.1237 N.pl3   
   8 C8             3.6341     3.3844    -0.6412 C.2     
   9 N9             4.6489     4.2140    -0.5985 N.2     
  10 N10            2.7453     3.8240    -1.5398 N.2     
  11 C11            3.1770     4.9433    -2.0803 C.2     
  12 N12            4.3806     5.2387    -1.5205 N.pl3   
  13 C13            5.1864     6.3381    -1.8049 C.ar    
  14 N14            2.5253     5.6844    -3.0472 N.pl3   
  15 C15            6.5656     6.1622    -2.0418 C.ar    
  16 N16            4.6616     7.5469    -1.8590 N.ar    
  17 C17            5.3814     8.6283    -2.1253 C.ar    
  18 C18            6.7202     8.5624    -2.3625 C.ar    
  19 C19            7.3549     7.3055    -2.3284 C.ar    
  20 C20            8.7290     7.1592    -2.5623 C.ar    
  21 C21            9.2909     5.9147    -2.5165 C.ar    
  22 C22            8.5097     4.7832    -2.2388 C.ar    
  23 C23            7.1699     4.8975    -2.0020 C.ar    
  24 N24           -1.2050    -0.7399    -0.0876 N.3     
  25 C25           -0.9414    -2.1650     0.1561 C.3     
  26 C26           -2.2663    -2.9312     0.1691 C.3     
  27 N27           -2.9537    -2.7378    -1.1153 N.3     
  28 C28           -3.2173    -1.3127    -1.3589 C.3     
  29 C29           -1.8924    -0.5465    -1.3720 C.3     
  30 C30           -4.1960    -3.5199    -1.1705 C.3     
  31 C31           -4.9441    -3.1980    -2.4658 C.3     
  32 C32           -3.8611    -5.0123    -1.1324 C.3     
  33 C33           -5.1550    -5.8269    -1.1900 C.3     
  34 C34           -5.9031    -5.5050    -2.4852 C.3     
  35 C35           -6.2379    -4.0126    -2.5233 C.3     
  36 O36           10.6230     5.7712    -2.7431 O.3     
  37 C37           11.3656     6.9600    -3.0210 C.3     
  38 O38            9.0954     3.5569    -2.1999 O.3     
  39 C39            8.2486     2.4423    -1.9123 C.3     
  40 H40           -0.9950     1.8705    -0.4445 H       
  41 H41            1.2138    -1.6962     0.3822 H       
  42 H42            3.2947    -0.3860     0.4756 H       
  43 H43            1.0853     3.1814    -0.3470 H       
  44 H44            4.2348     1.9361     0.6929 H       
  45 H45            1.6665     5.3889    -3.3878 H       
  46 H46            2.9266     6.5002    -3.3853 H       
  47 H47            4.8907     9.5900    -2.1553 H       
  48 H48            7.2850     9.4575    -2.5773 H       
  49 H49            9.3392     8.0239    -2.7777 H       
  50 H50            6.5788     4.0192    -1.7890 H       
  51 H51           -0.3024    -2.5571    -0.6351 H       
  52 H52           -0.4434    -2.2834     1.1184 H       
  53 H53           -2.0710    -3.9927     0.3208 H       
  54 H54           -2.8945    -2.5575     0.9777 H       
  55 H55           -3.7153    -1.1943    -2.3212 H       
  56 H56           -3.8563    -0.9206    -0.5677 H       
  57 H57           -2.0877     0.5150    -1.5237 H       
  58 H58           -1.2642    -0.9202    -2.1805 H       
  59 H59           -4.8233    -3.2663    -0.3160 H       
  60 H60           -5.1826    -2.1347    -2.4929 H       
  61 H61           -4.3168    -3.4516    -3.3203 H       
  62 H62           -3.2338    -5.2659    -1.9870 H       
  63 H63           -3.3282    -5.2416    -0.2097 H       
  64 H64           -4.9164    -6.8901    -1.1628 H       
  65 H65           -5.7823    -5.5733    -0.3354 H       
  66 H66           -5.2758    -5.7586    -3.3397 H       
  67 H67           -6.8249    -6.0853    -2.5262 H       
  68 H68           -6.8653    -3.7590    -1.6688 H       
  69 H69           -6.7709    -3.7832    -3.4460 H       
  70 H70           12.4130     6.7049    -3.1822 H       
  71 H71           10.9660     7.4371    -3.9159 H       
  72 H72           11.2842     7.6449    -2.1770 H       
  73 H73            7.4706     2.3714    -2.6724 H       
  74 H74            8.8405     1.5270    -1.9116 H       
  75 H75            7.7888     2.5784    -0.9334 H       
@<TRIPOS>BOND
   1    1    2 ar
   2    1    6 ar
   3    1   40 1
   4    2    3 ar
   5    2   24 1
   6    3    4 ar
   7    3   41 1
   8    4    5 ar
   9    4   42 1
  10    5    6 ar
  11    5    7 1
  12    6   43 1
  13    7    8 1
  14    7   44 1
  15    8    9 2
  16    8   10 1
  17    9   12 1
  18   10   11 2
  19   11   12 1
  20   11   14 1
  21   12   13 1
  22   13   15 ar
  23   13   16 ar
  24   14   45 1
  25   14   46 1
  26   15   19 ar
  27   15   23 ar
  28   16   17 ar
  29   17   18 ar
  30   17   47 1
  31   18   19 ar
  32   18   48 1
  33   19   20 ar
  34   20   21 ar
  35   20   49 1
  36   21   22 ar
  37   21   36 1
  38   22   23 ar
  39   22   38 1
  40   23   50 1
  41   24   25 1
  42   24   29 1
  43   25   26 1
  44   25   51 1
  45   25   52 1
  46   26   27 1
  47   26   53 1
  48   26   54 1
  49   27   28 1
  50   27   30 1
  51   28   29 1
  52   28   55 1
  53   28   56 1
  54   29   57 1
  55   29   58 1
  56   30   31 1
  57   30   32 1
  58   30   59 1
  59   31   35 1
  60   31   60 1
  61   31   61 1
  62   32   33 1
  63   32   62 1
  64   32   63 1
  65   33   34 1
  66   33   64 1
  67   33   65 1
  68   34   35 1
  69   34   66 1
  70   34   67 1
  71   35   68 1
  72   35   69 1
  73   36   37 1
  74   37   70 1
  75   37   71 1
  76   37   72 1
  77   38   39 1
  78   39   73 1
  79   39   74 1
  80   39   75 1

#	End of record

