#	Name: ASD10160528
#	Creating user name:	WinNT
#	Creation time:	15. 06. 2019 21:26

#	Modifying user name:	WinNT
#	Modification time:	15. 06. 2019 21:26

#	Program:	/corina/corina34_cracker 3.40 0067  02.08.2006

@<TRIPOS>MOLECULE
ASD10160528
  26   27    0    0    0
SMALL
NO_CHARGES


@<TRIPOS>ATOM
   1 C1            -0.0167     1.3837     0.0096 C.ar    
   2 C2             0.0021    -0.0041     0.0020 C.ar    
   3 C3             1.2254    -0.6637    -0.0133 C.ar    
   4 C4             2.3870     0.1004    -0.0203 C.ar    
   5 C5             2.2849     1.4840    -0.0119 C.ar    
   6 N6             1.1061     2.0740     0.0026 N.ar    
   7 O7            -1.1601    -0.7086     0.0098 O.3     
   8 O8             3.6062    -0.5001    -0.0348 O.3     
   9 C9             3.6256    -1.9290    -0.0422 C.3     
  10 C10            5.0748    -2.4193    -0.0582 C.3     
  11 F11            2.9832    -2.4100     1.1038 F       
  12 F12            2.9618    -2.3984    -1.1806 F       
  13 C13            3.5369     2.3228    -0.0189 C.3     
  14 C14            3.7354     3.2861    -1.1909 C.3     
  15 C15            3.3790     3.8296     0.1942 C.3     
  16 H16           -0.9630     1.9043     0.0169 H       
  17 H17            1.2725    -1.7427    -0.0191 H       
  18 H18           -1.5053    -0.9077    -0.8713 H       
  19 H19            5.5920    -2.0535     0.8288 H       
  20 H20            5.0896    -3.5092    -0.0639 H       
  21 H21            5.5753    -2.0445    -0.9511 H       
  22 H22            4.4247     1.8458     0.3964 H       
  23 H23            4.7537     3.4431    -1.5464 H       
  24 H24            2.9604     3.3131    -1.9569 H       
  25 H25            2.3695     4.2143     0.3394 H       
  26 H26            4.1628     4.3442     0.7499 H       
@<TRIPOS>BOND
   1    1    2 ar
   2    1    6 ar
   3    1   16 1
   4    2    3 ar
   5    2    7 1
   6    3    4 ar
   7    3   17 1
   8    4    5 ar
   9    4    8 1
  10    5    6 ar
  11    5   13 1
  12    7   18 1
  13    8    9 1
  14    9   10 1
  15    9   11 1
  16    9   12 1
  17   10   19 1
  18   10   20 1
  19   10   21 1
  20   13   14 1
  21   13   15 1
  22   13   22 1
  23   14   15 1
  24   14   23 1
  25   14   24 1
  26   15   25 1
  27   15   26 1

#	End of record

