#	Name: ASD10160128
#	Creating user name:	WinNT
#	Creation time:	15. 06. 2019 21:25

#	Modifying user name:	WinNT
#	Modification time:	15. 06. 2019 21:25

#	Program:	/corina/corina34_cracker 3.40 0067  02.08.2006

@<TRIPOS>MOLECULE
ASD10160128
  43   44    0    0    0
SMALL
NO_CHARGES


@<TRIPOS>ATOM
   1 C1            -0.4345     1.0947    -1.8976 C.2     
   2 C2            -0.3025    -0.2813    -1.3846 C.ar    
   3 C3             0.8832    -0.9964    -1.5900 C.ar    
   4 C4             1.0019    -2.2844    -1.1078 C.ar    
   5 C5            -0.0527    -2.8703    -0.4207 C.ar    
   6 C6            -1.2340    -2.1622    -0.2143 C.ar    
   7 C7            -1.3593    -0.8738    -0.6865 C.ar    
   8 O8             0.4875     1.6100    -2.5002 O.2     
   9 N9            -1.5791     1.7793    -1.7036 N.am    
  10 S10           -1.7273     3.3248    -2.2797 S.o2    
  11 O11           -3.0285     3.7268    -1.8740 O.2     
  12 O12           -0.5700     3.9919    -1.7952 O.2     
  13 C13           -1.6502     3.1449    -4.0831 C.3     
  14 F14           -2.2569    -2.7375     0.4551 F       
  15 F15            1.9095    -0.4272    -2.2594 F       
  16 O16            0.0678    -4.1373     0.0510 O.3     
  17 C17            1.5340    -5.5319    -1.2058 C.ar    
  18 C18            1.2696    -4.7584    -0.0874 C.ar    
  19 C19            2.2491    -4.6240     0.8933 C.ar    
  20 C20            3.4578    -5.2732     0.7113 C.ar    
  21 C21            3.6523    -6.0334    -0.4381 C.ar    
  22 N22            2.6978    -6.1376    -1.3488 N.ar    
  23 N23            4.8647    -6.6913    -0.6322 N.3     
  24 C24            4.6775    -8.1483    -0.6410 C.3     
  25 C25            5.5184    -6.2371    -1.8668 C.3     
  26 C26            6.9451    -6.7870    -1.9205 C.3     
  27 Cl27           4.7151    -5.1405     1.9009 Cl      
  28 H28            1.9162    -2.8372    -1.2656 H       
  29 H29           -2.2741    -0.3240    -0.5216 H       
  30 H30           -2.3160     1.3669    -1.2264 H       
  31 H31           -2.4660     2.5051    -4.4197 H       
  32 H32           -1.7410     4.1255    -4.5503 H       
  33 H33           -0.6972     2.6959    -4.3630 H       
  34 H34            0.7771    -5.6440    -1.9680 H       
  35 H35            2.0699    -4.0269     1.7752 H       
  36 H36            4.0822    -8.4329    -1.5086 H       
  37 H37            5.6494    -8.6392    -0.6904 H       
  38 H38            4.1619    -8.4539     0.2694 H       
  39 H39            4.9573    -6.5977    -2.7289 H       
  40 H40            5.5482    -5.1476    -1.8825 H       
  41 H41            7.5062    -6.4264    -1.0584 H       
  42 H42            6.9154    -7.8765    -1.9048 H       
  43 H43            7.4302    -6.4500    -2.8366 H       
@<TRIPOS>BOND
   1    1    2 1
   2    1    8 2
   3    1    9 am
   4    2    3 ar
   5    2    7 ar
   6    3    4 ar
   7    3   15 1
   8    4    5 ar
   9    4   28 1
  10    5    6 ar
  11    5   16 1
  12    6    7 ar
  13    6   14 1
  14    7   29 1
  15    9   10 am
  16    9   30 1
  17   10   11 2
  18   10   12 2
  19   10   13 1
  20   13   31 1
  21   13   32 1
  22   13   33 1
  23   16   18 1
  24   17   18 ar
  25   17   22 ar
  26   17   34 1
  27   18   19 ar
  28   19   20 ar
  29   19   35 1
  30   20   21 ar
  31   20   27 1
  32   21   22 ar
  33   21   23 1
  34   23   24 1
  35   23   25 1
  36   24   36 1
  37   24   37 1
  38   24   38 1
  39   25   26 1
  40   25   39 1
  41   25   40 1
  42   26   41 1
  43   26   42 1
  44   26   43 1

#	End of record

