#	Name: ASD11000277
#	Creating user name:	WinNT
#	Creation time:	15. 06. 2019 21:29

#	Modifying user name:	WinNT
#	Modification time:	15. 06. 2019 21:29

#	Program:	/corina/corina34_cracker 3.40 0067  02.08.2006

@<TRIPOS>MOLECULE
ASD11000277
  47   50    0    0    0
SMALL
NO_CHARGES


@<TRIPOS>ATOM
   1 C1             0.0107     1.4467    -0.0103 C.ar    
   2 C2             0.0211     0.0522    -0.0257 C.ar    
   3 C3             1.2291    -0.6270    -0.0383 C.ar    
   4 C4             2.4195     0.0819    -0.0355 C.ar    
   5 C5             2.4055     1.4703    -0.0197 C.ar    
   6 C6             1.2042     2.1513    -0.0080 C.ar    
   7 O7             3.6050    -0.5839    -0.0479 O.3     
   8 C8             4.7942     0.2085    -0.0442 C.3     
   9 C9             8.1427    -2.2999    -0.0860 C.ar    
  10 N10            7.6200    -1.8997    -1.2359 N.ar    
  11 C11            6.5616    -1.1067    -1.2579 C.ar    
  12 C12            6.0000    -0.6952    -0.0593 C.ar    
  13 C13            6.5720    -1.1326     1.1252 C.ar    
  14 N14            7.6301    -1.9248     1.0768 N.ar    
  15 N15            9.2477    -3.1348    -0.0999 N.pl3   
  16 C16            9.8850    -3.4728     1.1004 C.ar    
  17 C17           10.4437    -4.7341     1.2591 C.ar    
  18 C18           11.0725    -5.0664     2.4428 C.ar    
  19 C19           11.1461    -4.1406     3.4732 C.ar    
  20 C20           10.5878    -2.8806     3.3156 C.ar    
  21 C21            9.9637    -2.5448     2.1304 C.ar    
  22 O22           -1.2703    -0.3603    -0.0244 O.3     
  23 C23           -2.0768     0.7125    -0.0088 C.2     
  24 N24           -1.3309     1.8349     0.0058 N.am    
  25 C25           -1.8349     3.2103     0.0255 C.3     
  26 O26           -2.3250     3.5193     1.3318 O.3     
  27 O27           -3.2923     0.6771    -0.0040 O.2     
  28 O28           11.7654    -4.4686     4.6385 O.3     
  29 C29           11.8043    -3.4669     5.6569 C.3     
  30 F30           12.4796    -2.3397     5.1766 F       
  31 F31           10.4985    -3.1121     6.0121 F       
  32 H32            1.2426    -1.7068    -0.0499 H       
  33 H33            3.3359     2.0187    -0.0169 H       
  34 H34            1.1947     3.2312     0.0041 H       
  35 H35            4.8078     0.8474    -0.9272 H       
  36 H36            4.8154     0.8277     0.8526 H       
  37 H37            6.1402    -0.7835    -2.1983 H       
  38 H38            6.1588    -0.8300     2.0761 H       
  39 H39            9.5801    -3.4854    -0.9410 H       
  40 H40           10.3862    -5.4551     0.4571 H       
  41 H41           11.5068    -6.0475     2.5665 H       
  42 H42           10.6452    -2.1605     4.1185 H       
  43 H43            9.5333    -1.5621     2.0061 H       
  44 H44           -1.0281     3.8967    -0.2316 H       
  45 H45           -2.6429     3.3116    -0.6990 H       
  46 H46           -2.6751     4.4165     1.4185 H       
  47 H47           12.3252    -3.8574     6.5311 H       
@<TRIPOS>BOND
   1    1    2 ar
   2    1    6 ar
   3    1   24 1
   4    2    3 ar
   5    2   22 1
   6    3    4 ar
   7    3   32 1
   8    4    5 ar
   9    4    7 1
  10    5    6 ar
  11    5   33 1
  12    6   34 1
  13    7    8 1
  14    8   12 1
  15    8   35 1
  16    8   36 1
  17    9   10 ar
  18    9   14 ar
  19    9   15 1
  20   10   11 ar
  21   11   12 ar
  22   11   37 1
  23   12   13 ar
  24   13   14 ar
  25   13   38 1
  26   15   16 1
  27   15   39 1
  28   16   17 ar
  29   16   21 ar
  30   17   18 ar
  31   17   40 1
  32   18   19 ar
  33   18   41 1
  34   19   20 ar
  35   19   28 1
  36   20   21 ar
  37   20   42 1
  38   21   43 1
  39   22   23 1
  40   23   24 am
  41   23   27 2
  42   24   25 1
  43   25   26 1
  44   25   44 1
  45   25   45 1
  46   26   46 1
  47   28   29 1
  48   29   30 1
  49   29   31 1
  50   29   47 1

#	End of record

