#	Name: ASD10160164
#	Creating user name:	WinNT
#	Creation time:	15. 06. 2019 21:25

#	Modifying user name:	WinNT
#	Modification time:	15. 06. 2019 21:25

#	Program:	/corina/corina34_cracker 3.40 0067  02.08.2006

@<TRIPOS>MOLECULE
ASD10160164
  35   36    0    0    0
SMALL
NO_CHARGES


@<TRIPOS>ATOM
   1 C1            -0.0326     1.4702     0.0132 C.2     
   2 C2            -0.0088    -0.0042     0.0044 C.ar    
   3 C3             1.2061    -0.6859    -0.1327 C.ar    
   4 C4             1.2232    -2.0663    -0.1399 C.ar    
   5 C5             0.0381    -2.7777    -0.0121 C.ar    
   6 C6            -1.1725    -2.1035     0.1244 C.ar    
   7 C7            -1.1988    -0.7256     0.1386 C.ar    
   8 O8             1.0041     2.0957    -0.0986 O.2     
   9 N9            -1.2041     2.1244     0.1397 N.am    
  10 S10           -1.2310     3.7802     0.1497 S.o2    
  11 O11           -2.6030     4.1074     0.3219 O.2     
  12 O12           -0.2638     4.1404     1.1265 O.2     
  13 C13           -0.6672     4.2520    -1.5086 C.3     
  14 O14            0.0593    -4.1353    -0.0206 O.3     
  15 C15           -0.1515    -4.7672    -1.2002 C.ar    
  16 N16           -0.0405    -6.0847    -1.2548 N.ar    
  17 C17           -0.2407    -6.7342    -2.3951 C.ar    
  18 C18           -0.5706    -6.0081    -3.5388 C.ar    
  19 C19           -0.6766    -4.6339    -3.4390 C.ar    
  20 N20           -0.4684    -4.0521    -2.2672 N.ar    
  21 O21           -0.1257    -8.0834    -2.4468 O.3     
  22 C22            0.2158    -8.7525    -1.2312 C.3     
  23 F23           -2.3227    -2.8012     0.2480 F       
  24 F24            2.3598     0.0058    -0.2580 F       
  25 H25            2.1599    -2.5935    -0.2456 H       
  26 H26           -2.1379    -0.2038     0.2490 H       
  27 H27           -2.0316     1.6254     0.2249 H       
  28 H28           -1.3461     3.8386    -2.2545 H       
  29 H29           -0.6538     5.3387    -1.5923 H       
  30 H30            0.3370     3.8623    -1.6756 H       
  31 H31           -0.7391    -6.5082    -4.4811 H       
  32 H32           -0.9301    -4.0413    -4.3056 H       
  33 H33            0.2754    -9.8259    -1.4116 H       
  34 H34            1.1801    -8.3898    -0.8753 H       
  35 H35           -0.5477    -8.5523    -0.4794 H       
@<TRIPOS>BOND
   1    1    2 1
   2    1    8 2
   3    1    9 am
   4    2    3 ar
   5    2    7 ar
   6    3    4 ar
   7    3   24 1
   8    4    5 ar
   9    4   25 1
  10    5    6 ar
  11    5   14 1
  12    6    7 ar
  13    6   23 1
  14    7   26 1
  15    9   10 am
  16    9   27 1
  17   10   11 2
  18   10   12 2
  19   10   13 1
  20   13   28 1
  21   13   29 1
  22   13   30 1
  23   14   15 1
  24   15   16 ar
  25   15   20 ar
  26   16   17 ar
  27   17   18 ar
  28   17   21 1
  29   18   19 ar
  30   18   31 1
  31   19   20 ar
  32   19   32 1
  33   21   22 1
  34   22   33 1
  35   22   34 1
  36   22   35 1

#	End of record

