#	Name: ASD10410237
#	Creating user name:	WinNT
#	Creation time:	15. 06. 2019 21:27

#	Modifying user name:	WinNT
#	Modification time:	15. 06. 2019 21:27

#	Program:	/corina/corina34_cracker 3.40 0067  02.08.2006

@<TRIPOS>MOLECULE
ASD10410237
  62   67    0    0    0
SMALL
NO_CHARGES


@<TRIPOS>ATOM
   1 C1            -0.1013     1.3823     0.2586 C.ar    
   2 C2            -0.0581     0.0387    -0.0804 C.ar    
   3 C3             1.1646    -0.5914    -0.2690 C.ar    
   4 C4             2.3391     0.1206    -0.1189 C.ar    
   5 C5             2.2958     1.4667     0.2208 C.ar    
   6 C6             1.0722     2.0955     0.4092 C.ar    
   7 O7            -1.2142    -0.6627    -0.2279 O.3     
   8 Cl8            1.2177    -2.2740    -0.6930 Cl      
   9 N9             3.4851     2.1889     0.3737 N.pl3   
  10 C10            3.5203     3.5480     0.0634 C.2     
  11 N11            4.5422     4.3460     0.2592 N.2     
  12 N12            2.5186     4.2441    -0.4869 N.2     
  13 C13            2.8841     5.4981    -0.6453 C.2     
  14 N14            4.1594     5.6207    -0.1887 N.pl3   
  15 C15            4.9310     6.7783    -0.1694 C.ar    
  16 N16            2.1114     6.5092    -1.1828 N.pl3   
  17 C17            6.1983     6.8108    -0.8039 C.ar    
  18 C18           -2.4357     0.0486    -0.0184 C.3     
  19 C19           -3.6194    -0.8982    -0.2270 C.3     
  20 N20           -3.5971    -1.9443     0.8040 N.3     
  21 C21           -4.8435    -2.7319     0.7846 C.3     
  22 C22           -4.4472    -4.2099     0.5849 C.3     
  23 C23           -2.9744    -4.2457     1.0710 C.3     
  24 C24           -2.4565    -2.8630     0.6021 C.3     
  25 N25            4.4918     7.8701     0.4373 N.ar    
  26 C26            5.2140     8.9753     0.4640 C.ar    
  27 N27            6.3958     9.0530    -0.1034 N.ar    
  28 C28            6.9214     8.0019    -0.7454 C.ar    
  29 S29            8.4500     7.8042    -1.5849 S.3     
  30 C30            8.0903     6.1381    -2.0065 C.2     
  31 C31            6.8991     5.7634    -1.5369 C.2     
  32 C32            9.0191     5.2373    -2.8022 C.3     
  33 C33            8.5758     3.7841    -2.6177 C.3     
  34 C34            7.0710     3.6852    -2.8861 C.3     
  35 C35            6.3162     4.3715    -1.7444 C.3     
  36 H36           -1.0530     1.8728     0.4008 H       
  37 H37            3.2903    -0.3694    -0.2652 H       
  38 H38            1.0380     3.1421     0.6733 H       
  39 H39            4.2847     1.7440     0.6954 H       
  40 H40            1.2087     6.3218    -1.4842 H       
  41 H41            2.4716     7.4067    -1.2587 H       
  42 H42           -2.4584     0.4401     0.9986 H       
  43 H43           -2.5016     0.8742    -0.7271 H       
  44 H44           -4.5509    -0.3367    -0.1548 H       
  45 H45           -3.5477    -1.3579    -1.2127 H       
  46 H46           -5.3713    -2.6141     1.7309 H       
  47 H47           -5.4770    -2.4033    -0.0393 H       
  48 H48           -5.0708    -4.8621     1.1964 H       
  49 H49           -4.5127    -4.4877    -0.4671 H       
  50 H50           -2.9234    -4.3342     2.1562 H       
  51 H51           -2.4234    -5.0530     0.5885 H       
  52 H52           -2.1800    -2.8988    -0.4516 H       
  53 H53           -1.6060    -2.5509     1.2081 H       
  54 H54            4.8194     9.8446     0.9690 H       
  55 H55            8.9695     5.5030    -3.8581 H       
  56 H56           10.0407     5.3561    -2.4413 H       
  57 H57            9.1142     3.1466    -3.3190 H       
  58 H58            8.7861     3.4652    -1.5969 H       
  59 H59            6.8361     4.1769    -3.8301 H       
  60 H60            6.7780     2.6366    -2.9372 H       
  61 H61            6.4257     3.7870    -0.8310 H       
  62 H62            5.2605     4.4546    -2.0027 H       
@<TRIPOS>BOND
   1    1    2 ar
   2    1    6 ar
   3    1   36 1
   4    2    3 ar
   5    2    7 1
   6    3    4 ar
   7    3    8 1
   8    4    5 ar
   9    4   37 1
  10    5    6 ar
  11    5    9 1
  12    6   38 1
  13    7   18 1
  14    9   10 1
  15    9   39 1
  16   10   11 2
  17   10   12 1
  18   11   14 1
  19   12   13 2
  20   13   14 1
  21   13   16 1
  22   14   15 1
  23   15   17 ar
  24   15   25 ar
  25   16   40 1
  26   16   41 1
  27   17   28 ar
  28   17   31 1
  29   18   19 1
  30   18   42 1
  31   18   43 1
  32   19   20 1
  33   19   44 1
  34   19   45 1
  35   20   21 1
  36   20   24 1
  37   21   22 1
  38   21   46 1
  39   21   47 1
  40   22   23 1
  41   22   48 1
  42   22   49 1
  43   23   24 1
  44   23   50 1
  45   23   51 1
  46   24   52 1
  47   24   53 1
  48   25   26 ar
  49   26   27 ar
  50   26   54 1
  51   27   28 ar
  52   28   29 1
  53   29   30 1
  54   30   31 2
  55   30   32 1
  56   31   35 1
  57   32   33 1
  58   32   55 1
  59   32   56 1
  60   33   34 1
  61   33   57 1
  62   33   58 1
  63   34   35 1
  64   34   59 1
  65   34   60 1
  66   35   61 1
  67   35   62 1

#	End of record

