#	Name: ASD11820008
#	Creating user name:	WinNT
#	Creation time:	15. 06. 2019 21:29

#	Modifying user name:	WinNT
#	Modification time:	15. 06. 2019 21:29

#	Program:	/corina/corina34_cracker 3.40 0067  02.08.2006

@<TRIPOS>MOLECULE
ASD11820008
  33   36    0    0    0
SMALL
NO_CHARGES


@<TRIPOS>ATOM
   1 C1            -0.0166     1.3732     0.0096 C.ar    
   2 C2             0.0021    -0.0041     0.0020 C.ar    
   3 C3             1.2091    -0.6895    -0.0132 C.ar    
   4 C4             2.4052    -0.0065    -0.0205 C.ar    
   5 C5             1.1884     2.0804     0.0019 C.ar    
   6 C6             1.5326     3.5043     0.0058 C.2     
   7 C7             2.4105     1.3846    -0.0131 C.ar    
   8 N8             3.4143     2.3273    -0.0168 N.pl3   
   9 C9             2.8725     3.5840    -0.0068 C.2     
  10 C10            0.5659     4.6603     0.0210 C.3     
  11 C11            0.1624     4.9590     1.4420 C.2     
  12 C12            0.8836     5.8093     2.3922 C.ar    
  13 C13           -0.9289     4.5011     2.0752 C.2     
  14 N14           -0.9627     4.9844     3.3551 N.pl3   
  15 C15            0.1324     5.7883     3.5810 C.ar    
  16 C16            2.0621     6.5568     2.3252 C.ar    
  17 C17            0.5741     6.5151     4.6819 C.ar    
  18 C18            1.7383     7.2467     4.6004 C.ar    
  19 C19            2.4801     7.2693     3.4273 C.ar    
  20 Cl20          -1.5289     2.2256     0.0214 Cl      
  21 Cl21           2.9946     6.5868     0.8612 Cl      
  22 H22           -0.9276    -0.5538     0.0083 H       
  23 H23            1.2104    -1.7695    -0.0190 H       
  24 H24            3.3382    -0.5505    -0.0316 H       
  25 H25            4.3640     2.1301    -0.0264 H       
  26 H26            3.4389     4.5035    -0.0080 H       
  27 H27            1.0431     5.5387    -0.4135 H       
  28 H28           -0.3186     4.4019    -0.5612 H       
  29 H29           -1.6707     3.8484     1.6391 H       
  30 H30           -1.6562     4.7917     4.0053 H       
  31 H31            0.0046     6.5060     5.5994 H       
  32 H32            2.0768     7.8096     5.4577 H       
  33 H33            3.3906     7.8482     3.3788 H       
@<TRIPOS>BOND
   1    1    2 ar
   2    1    5 ar
   3    1   20 1
   4    2    3 ar
   5    2   22 1
   6    3    4 ar
   7    3   23 1
   8    4    7 ar
   9    4   24 1
  10    5    7 ar
  11    5    6 1
  12    6    9 2
  13    6   10 1
  14    7    8 1
  15    8    9 1
  16    8   25 1
  17    9   26 1
  18   10   11 1
  19   10   27 1
  20   10   28 1
  21   11   13 2
  22   11   12 1
  23   12   15 ar
  24   12   16 ar
  25   13   14 1
  26   13   29 1
  27   14   15 1
  28   14   30 1
  29   15   17 ar
  30   16   19 ar
  31   16   21 1
  32   17   18 ar
  33   17   31 1
  34   18   19 ar
  35   18   32 1
  36   19   33 1

#	End of record

