#	Name: ASD10610159
#	Creating user name:	WinNT
#	Creation time:	15. 06. 2019 21:28

#	Modifying user name:	WinNT
#	Modification time:	15. 06. 2019 21:28

#	Program:	/corina/corina34_cracker 3.40 0067  02.08.2006

@<TRIPOS>MOLECULE
ASD10610159
  41   42    0    0    0
SMALL
NO_CHARGES


@<TRIPOS>ATOM
   1 C1             0.4218     2.2361    -0.0754 C.2     
   2 C2             0.5952     0.7394    -0.1058 C.3     
   3 O3             1.3952     2.9595    -0.0796 O.2     
   4 N4            -0.8151     2.7708    -0.0492 N.am    
   5 C5            -0.9837     4.2258    -0.0197 C.3     
   6 C6            -0.8987     4.7198     1.4258 C.3     
   7 C7            -2.3283     4.5875    -0.5960 C.ar    
   8 C8            -2.4244     5.6331    -1.4999 C.ar    
   9 C9            -3.6639     5.9608    -2.0268 C.ar    
  10 C10           -4.7743     5.2159    -1.6204 C.ar    
  11 C11           -4.5934     4.1793    -0.7071 C.ar    
  12 N12           -3.3950     3.9004    -0.2364 N.ar    
  13 F13           -1.3227     6.3257    -1.8631 F       
  14 C14           -6.1241     5.5242    -2.1526 C.ar    
  15 C15           -6.3499     5.5312    -3.5320 C.ar    
  16 C16           -7.6144     5.8204    -4.0213 C.ar    
  17 C17           -8.6483     6.1008    -3.1465 C.ar    
  18 C18           -8.4272     6.0949    -1.7798 C.ar    
  19 C19           -7.1733     5.8022    -1.2796 C.ar    
  20 O20           -5.3332     5.2560    -4.3906 O.3     
  21 C21           -5.1557     3.8895    -4.7692 C.3     
  22 C22           -4.0418     3.7901    -5.8133 C.3     
  23 F23           -4.3892     4.5446    -6.9391 F       
  24 F24           -2.8496     4.2826    -5.2717 F       
  25 Cl25          -9.7320     6.4489    -0.6908 Cl      
  26 Cl26          -7.9002     5.8311    -5.7336 Cl      
  27 H27            0.6553     0.3598     0.9142 H       
  28 H28           -0.2561     0.2852    -0.6129 H       
  29 H29            1.5118     0.4906    -0.6407 H       
  30 H30           -1.5937     2.1923    -0.0499 H       
  31 H31           -0.1970     4.6947    -0.6108 H       
  32 H32           -1.6853     4.2508     2.0169 H       
  33 H33            0.0739     4.4582     1.8426 H       
  34 H34           -1.0241     5.8023     1.4478 H       
  35 H35           -3.7689     6.7712    -2.7330 H       
  36 H36           -5.4434     3.5960    -0.3850 H       
  37 H37           -9.6321     6.3257    -3.5311 H       
  38 H38           -7.0054     5.7938    -0.2128 H       
  39 H39           -4.8851     3.3017    -3.8921 H       
  40 H40           -6.0846     3.5058    -5.1912 H       
  41 H41           -3.9064     2.7478    -6.1021 H       
@<TRIPOS>BOND
   1    1    2 1
   2    1    3 2
   3    1    4 am
   4    2   27 1
   5    2   28 1
   6    2   29 1
   7    4    5 1
   8    4   30 1
   9    5    6 1
  10    5    7 1
  11    5   31 1
  12    6   32 1
  13    6   33 1
  14    6   34 1
  15    7    8 ar
  16    7   12 ar
  17    8    9 ar
  18    8   13 1
  19    9   10 ar
  20    9   35 1
  21   10   11 ar
  22   10   14 1
  23   11   12 ar
  24   11   36 1
  25   14   15 ar
  26   14   19 ar
  27   15   16 ar
  28   15   20 1
  29   16   17 ar
  30   16   26 1
  31   17   18 ar
  32   17   37 1
  33   18   19 ar
  34   18   25 1
  35   19   38 1
  36   20   21 1
  37   21   22 1
  38   21   39 1
  39   21   40 1
  40   22   23 1
  41   22   24 1
  42   22   41 1

#	End of record

