#	Name: ASD13680012
#	Creating user name:	WinNT
#	Creation time:	15. 06. 2019 21:30

#	Modifying user name:	WinNT
#	Modification time:	15. 06. 2019 21:30

#	Program:	/corina/corina34_cracker 3.40 0067  02.08.2006

@<TRIPOS>MOLECULE
ASD13680012
  55   58    0    0    0
SMALL
NO_CHARGES


@<TRIPOS>ATOM
   1 C1            -0.0190     1.5123     0.0242 C.3     
   2 C2             0.0025    -0.0020     0.0099 C.2     
   3 C3             0.7557    -0.7678     0.8048 C.2     
   4 C4             1.7297    -0.2381     1.8431 C.3     
   5 C5             1.8877     2.2211     1.4594 C.3     
   6 C6             1.4089     2.0561     0.0198 C.3     
   7 C7             1.2759     1.1320     2.3377 C.3     
   8 C8             0.5453    -2.1871     0.5659 C.2     
   9 C9            -0.3624    -2.4431    -0.4217 C.2     
  10 S10           -0.9725    -0.9922    -1.0681 S.3     
  11 N11           -0.7352    -3.7112    -0.8406 N.am    
  12 C12            1.2402    -3.2401     1.3122 C.2     
  13 O13            0.7535    -3.6825     2.3363 O.2     
  14 N14            2.4180    -3.7183     0.8644 N.am    
  15 C15            3.1308    -4.6404     1.6276 C.ar    
  16 N16            2.6956    -4.9695     2.8338 N.ar    
  17 C17            3.3404    -5.8380     3.5889 C.ar    
  18 C18            4.5015    -6.4386     3.1436 C.ar    
  19 C19            4.9914    -6.1208     1.8844 C.ar    
  20 C20            4.2896    -5.2108     1.1133 C.ar    
  21 C21           -1.6426    -3.8555    -1.8266 C.2     
  22 O22           -2.1330    -2.8762    -2.3475 O.2     
  23 C23           -2.0478    -5.2337    -2.2819 C.3     
  24 C24           -3.0824    -5.1169    -3.4030 C.3     
  25 C25           -3.4877    -6.4951    -3.8582 C.ar    
  26 C26           -4.5538    -7.1364    -3.2557 C.ar    
  27 C27           -4.9255    -8.4007    -3.6733 C.ar    
  28 C28           -4.2314    -9.0234    -4.6937 C.ar    
  29 C29           -3.1658    -8.3818    -5.2968 C.ar    
  30 C30           -2.7969    -7.1157    -4.8822 C.ar    
  31 H31           -0.5467     1.8749    -0.8579 H       
  32 H32           -0.5349     1.8582     0.9199 H       
  33 H33            1.7728    -0.9299     2.6843 H       
  34 H34            2.7208    -0.1515     1.3979 H       
  35 H35            2.9745     2.1437     1.4907 H       
  36 H36            1.5846     3.1995     1.8320 H       
  37 H37            2.0626     1.3584    -0.5036 H       
  38 H38            1.4289     3.0227    -0.4836 H       
  39 H39            0.1888     1.1940     2.2885 H       
  40 H40            1.6010     1.2718     3.3687 H       
  41 H41           -0.3430    -4.4944    -0.4239 H       
  42 H42            2.7693    -3.4205     0.0107 H       
  43 H43            2.9554    -6.0822     4.5679 H       
  44 H44            5.0232    -7.1481     3.7689 H       
  45 H45            5.8975    -6.5764     1.5132 H       
  46 H46            4.6400    -4.9438     0.1272 H       
  47 H47           -1.1715    -5.7670    -2.6503 H       
  48 H48           -2.4803    -5.7806    -1.4440 H       
  49 H49           -3.9588    -4.5836    -3.0345 H       
  50 H50           -2.6500    -4.5700    -4.2408 H       
  51 H51           -5.0961    -6.6499    -2.4585 H       
  52 H52           -5.7580    -8.9020    -3.2020 H       
  53 H53           -4.5213   -10.0115    -5.0195 H       
  54 H54           -2.6233    -8.8685    -6.0939 H       
  55 H55           -1.9667    -6.6129    -5.3559 H       
@<TRIPOS>BOND
   1    1    2 1
   2    1    6 1
   3    1   31 1
   4    1   32 1
   5    2   10 1
   6    2    3 2
   7    3    4 1
   8    3    8 1
   9    4    7 1
  10    4   33 1
  11    4   34 1
  12    5    6 1
  13    5    7 1
  14    5   35 1
  15    5   36 1
  16    6   37 1
  17    6   38 1
  18    7   39 1
  19    7   40 1
  20    8    9 2
  21    8   12 1
  22    9   10 1
  23    9   11 1
  24   11   21 am
  25   11   41 1
  26   12   13 2
  27   12   14 am
  28   14   15 1
  29   14   42 1
  30   15   16 ar
  31   15   20 ar
  32   16   17 ar
  33   17   18 ar
  34   17   43 1
  35   18   19 ar
  36   18   44 1
  37   19   20 ar
  38   19   45 1
  39   20   46 1
  40   21   22 2
  41   21   23 1
  42   23   24 1
  43   23   47 1
  44   23   48 1
  45   24   25 1
  46   24   49 1
  47   24   50 1
  48   25   26 ar
  49   25   30 ar
  50   26   27 ar
  51   26   51 1
  52   27   28 ar
  53   27   52 1
  54   28   29 ar
  55   28   53 1
  56   29   30 ar
  57   29   54 1
  58   30   55 1

#	End of record

