#	Name: ASD11000107
#	Creating user name:	WinNT
#	Creation time:	15. 06. 2019 21:28

#	Modifying user name:	WinNT
#	Modification time:	15. 06. 2019 21:28

#	Program:	/corina/corina34_cracker 3.40 0067  02.08.2006

@<TRIPOS>MOLECULE
ASD11000107
  41   43    0    0    0
SMALL
NO_CHARGES


@<TRIPOS>ATOM
   1 C1            -0.0027     1.4627    -0.0056 C.3     
   2 N2             0.0023    -0.0040     0.0017 N.am    
   3 C3             1.4158     1.9757    -0.0095 C.ar    
   4 C4             2.4964     1.1552     0.2272 C.ar    
   5 C5             1.6129     3.3268    -0.2615 C.ar    
   6 C6             3.7791     1.6904     0.2259 C.ar    
   7 C7             3.9805     3.0357    -0.0209 C.ar    
   8 C8             2.8883     3.8614    -0.2698 C.ar    
   9 C9             0.9395    -0.6719     0.9201 C.3     
  10 C10            2.3596    -0.3239     0.4771 C.3     
  11 C11           -0.8182    -0.7119    -0.7997 C.2     
  12 O12           -0.7194    -1.9222    -0.8539 O.2     
  13 C13           -1.8384    -0.0162    -1.6128 C.ar    
  14 C14           -2.1683    -0.4942    -2.8820 C.ar    
  15 C15           -2.4797     1.1176    -1.1121 C.ar    
  16 C16           -3.4310     1.7626    -1.8757 C.ar    
  17 C17           -3.7499     1.2879    -3.1352 C.ar    
  18 C18           -3.1217     0.1601    -3.6359 C.ar    
  19 Br19          -3.5651    -0.4805    -5.3590 Br      
  20 C20            6.3109     2.6412     0.2431 C.3     
  21 O21            5.2396     3.5495    -0.0204 O.3     
  22 O22            3.0739     5.1853    -0.5192 O.3     
  23 C23            1.9048     5.9692    -0.7657 C.3     
  24 H24           -0.5197     1.8191    -0.8965 H       
  25 H25           -0.5181     1.8280     0.8826 H       
  26 H26            0.7632     3.9654    -0.4530 H       
  27 H27            4.6264     1.0494     0.4198 H       
  28 H28            0.7735    -0.3184     1.9377 H       
  29 H29            0.7933    -1.7512     0.8755 H       
  30 H30            2.5917    -0.8653    -0.4400 H       
  31 H31            3.0613    -0.6223     1.2559 H       
  32 H32           -1.6786    -1.3735    -3.2735 H       
  33 H33           -2.2322     1.4894    -0.1288 H       
  34 H34           -3.9281     2.6400    -1.4889 H       
  35 H35           -4.4954     1.7962    -3.7286 H       
  36 H36            6.1758     2.1962     1.2288 H       
  37 H37            6.3154     1.8558    -0.5127 H       
  38 H38            7.2586     3.1789     0.2140 H       
  39 H39            1.3820     5.5774    -1.6382 H       
  40 H40            1.2474     5.9241     0.1025 H       
  41 H41            2.1934     7.0041    -0.9495 H       
@<TRIPOS>BOND
   1    1    2 1
   2    1    3 1
   3    1   24 1
   4    1   25 1
   5    2    9 1
   6    2   11 am
   7    3    4 ar
   8    3    5 ar
   9    4    6 ar
  10    4   10 1
  11    5    8 ar
  12    5   26 1
  13    6    7 ar
  14    6   27 1
  15    7    8 ar
  16    7   21 1
  17    8   22 1
  18    9   10 1
  19    9   28 1
  20    9   29 1
  21   10   30 1
  22   10   31 1
  23   11   12 2
  24   11   13 1
  25   13   14 ar
  26   13   15 ar
  27   14   18 ar
  28   14   32 1
  29   15   16 ar
  30   15   33 1
  31   16   17 ar
  32   16   34 1
  33   17   18 ar
  34   17   35 1
  35   18   19 1
  36   20   21 1
  37   20   36 1
  38   20   37 1
  39   20   38 1
  40   22   23 1
  41   23   39 1
  42   23   40 1
  43   23   41 1

#	End of record

