#	Name: ASD10420053
#	Creating user name:	WinNT
#	Creation time:	15. 06. 2019 21:27

#	Modifying user name:	WinNT
#	Modification time:	15. 06. 2019 21:27

#	Program:	/corina/corina34_cracker 3.40 0067  02.08.2006

@<TRIPOS>MOLECULE
ASD10420053
  97  102    0    0    0
SMALL
NO_CHARGES


@<TRIPOS>ATOM
   1 N1             0.4235    -1.4765     1.5673 N.am    
   2 C2             1.2777    -2.6719     1.5310 C.3     
   3 C3             1.8058    -2.8537     0.1026 C.3     
   4 N4             2.3593    -1.5733    -0.3600 N.am    
   5 C5             1.5052    -0.3780    -0.3237 C.3     
   6 C6             0.9771    -0.1961     1.1047 C.3     
   7 C7            -0.8465    -1.5542     2.0116 C.2     
   8 O8            -1.3311    -2.6357     2.2802 O.2     
   9 O9            -1.5783    -0.4336     2.1578 O.3     
  10 C10            0.4600    -3.8999     1.9364 C.3     
  11 C11            0.1375    -3.8257     3.4066 C.2     
  12 N12           -0.5800    -4.8065     3.9894 N.am    
  13 O13            0.5238    -2.8835     4.0654 O.2     
  14 C14           -0.8934    -4.7344     5.4187 C.3     
  15 C15           -2.8180    -7.1409     7.7255 C.3     
  16 C16           -1.9334    -5.9526     7.3396 C.3     
  17 C17           -1.7112    -5.9624     5.8241 C.3     
  18 C18           -3.0709    -5.9279     5.1195 C.3     
  19 C19           -3.9116    -7.1172     5.5912 C.3     
  20 O20           -4.0539    -7.0646     7.0121 O.3     
  21 C21            3.6278    -1.4966    -0.8090 C.2     
  22 O22            4.3556    -2.4714    -0.7476 O.2     
  23 C23            5.1418     1.7011    -1.5645 C.2     
  24 C24            4.8699     0.6620    -0.6753 C.2     
  25 C25            4.1147    -0.2822    -1.3525 C.2     
  26 N26            3.9168     0.1588    -2.6453 N.pl3   
  27 C27            3.2477    -0.3985    -3.6962 C.2     
  28 C28            3.1883     0.2319    -4.8897 C.2     
  29 C29            3.8163     1.4736    -5.0659 C.2     
  30 C30            4.4878     2.0403    -4.0231 C.2     
  31 C31            4.5382     1.3696    -2.7910 C.2     
  32 C32            5.9165     2.9284    -1.2703 C.ar    
  33 C33            7.1156     3.1768    -1.9385 C.ar    
  34 C34            7.8328     4.3220    -1.6600 C.ar    
  35 C35            7.3651     5.2232    -0.7202 C.ar    
  36 C36            6.1768     4.9824    -0.0538 C.ar    
  37 C37            5.4473     3.8438    -0.3280 C.ar    
  38 C38            5.3171     0.5802     0.7615 C.3     
  39 C39            6.5952    -0.2139     0.8453 C.ar    
  40 C40            7.8112     0.4396     0.9144 C.ar    
  41 C41            8.9851    -0.2901     0.9918 C.ar    
  42 C42            8.9396    -1.6741     1.0000 C.ar    
  43 C43            7.7228    -2.3252     0.9309 C.ar    
  44 C44            6.5506    -1.5953     0.8589 C.ar    
  45 C45            7.8591     1.9458     0.9048 C.3     
  46 F46           10.1743     0.3476     1.0589 F       
  47 C47           -2.9384    -0.5928     2.6407 C.3     
  48 C48           -2.9155    -1.2519     4.0212 C.3     
  49 C49           -3.6076     0.7794     2.7416 C.3     
  50 C50           -3.7251    -1.4736     1.6680 C.3     
  51 H51            2.1150    -2.5442     2.2171 H       
  52 H52            2.5869    -3.6140     0.0953 H       
  53 H53            0.9898    -3.1577    -0.5531 H       
  54 H54            2.0877     0.4969    -0.6124 H       
  55 H55            0.6678    -0.5057    -1.0097 H       
  56 H56            0.1960     0.5641     1.1120 H       
  57 H57            1.7930     0.1079     1.7605 H       
  58 H58           -0.4662    -3.9254     1.3621 H       
  59 H59            1.0367    -4.8028     1.7359 H       
  60 H60           -0.8889    -5.5601     3.4626 H       
  61 H61            0.0327    -4.7089     5.9929 H       
  62 H62           -1.4702    -3.8315     5.6191 H       
  63 H63           -2.3088    -8.0707     7.4719 H       
  64 H64           -3.0148    -7.1147     8.7973 H       
  65 H65           -2.4243    -5.0236     7.6297 H       
  66 H66           -0.9731    -6.0327     7.8491 H       
  67 H67           -1.1747    -6.8677     5.5400 H       
  68 H68           -3.5848    -4.9985     5.3648 H       
  69 H69           -2.9241    -5.9904     4.0412 H       
  70 H70           -4.8961    -7.0740     5.1254 H       
  71 H71           -3.4166    -8.0467     5.3096 H       
  72 H72            2.7605    -1.3544    -3.5726 H       
  73 H73            2.6552    -0.2224    -5.7117 H       
  74 H74            3.7688     1.9768    -6.0203 H       
  75 H75            4.9765     2.9957    -4.1441 H       
  76 H76            7.4819     2.4738    -2.6721 H       
  77 H77            8.7614     4.5153    -2.1764 H       
  78 H78            7.9301     6.1183    -0.5057 H       
  79 H79            5.8172     5.6893     0.6793 H       
  80 H80            4.5172     3.6594     0.1891 H       
  81 H81            5.4880     1.5854     1.1466 H       
  82 H82            4.5453     0.0900     1.3549 H       
  83 H83            9.8547    -2.2444     1.0601 H       
  84 H84            7.6870    -3.4046     0.9373 H       
  85 H85            5.5998    -2.1050     0.8094 H       
  86 H86            7.9250     2.3137     1.9287 H       
  87 H87            8.7318     2.2780     0.3425 H       
  88 H88            6.9552     2.3352     0.4364 H       
  89 H89           -2.3550    -0.6244     4.7142 H       
  90 H90           -3.9365    -1.3714     4.3838 H       
  91 H91           -2.4388    -2.2294     3.9493 H       
  92 H92           -3.6239     1.2489     1.7581 H       
  93 H93           -4.6286     0.6599     3.1041 H       
  94 H94           -3.0471     1.4069     3.4346 H       
  95 H95           -3.2484    -2.4512     1.5961 H       
  96 H96           -4.7461    -1.5931     2.0305 H       
  97 H97           -3.7414    -1.0041     0.6844 H       
@<TRIPOS>BOND
   1    1    2 1
   2    1    6 1
   3    1    7 am
   4    2    3 1
   5    2   10 1
   6    2   51 1
   7    3    4 1
   8    3   52 1
   9    3   53 1
  10    4    5 1
  11    4   21 am
  12    5    6 1
  13    5   54 1
  14    5   55 1
  15    6   56 1
  16    6   57 1
  17    7    8 2
  18    7    9 1
  19    9   47 1
  20   10   11 1
  21   10   58 1
  22   10   59 1
  23   11   12 am
  24   11   13 2
  25   12   14 1
  26   12   60 1
  27   14   17 1
  28   14   61 1
  29   14   62 1
  30   15   16 1
  31   15   20 1
  32   15   63 1
  33   15   64 1
  34   16   17 1
  35   16   65 1
  36   16   66 1
  37   17   18 1
  38   17   67 1
  39   18   19 1
  40   18   68 1
  41   18   69 1
  42   19   20 1
  43   19   70 1
  44   19   71 1
  45   21   22 2
  46   21   25 1
  47   23   24 1
  48   23   31 2
  49   23   32 1
  50   24   25 2
  51   24   38 1
  52   25   26 1
  53   26   27 1
  54   26   31 1
  55   27   28 2
  56   27   72 1
  57   28   29 1
  58   28   73 1
  59   29   30 2
  60   29   74 1
  61   30   31 1
  62   30   75 1
  63   32   33 ar
  64   32   37 ar
  65   33   34 ar
  66   33   76 1
  67   34   35 ar
  68   34   77 1
  69   35   36 ar
  70   35   78 1
  71   36   37 ar
  72   36   79 1
  73   37   80 1
  74   38   39 1
  75   38   81 1
  76   38   82 1
  77   39   40 ar
  78   39   44 ar
  79   40   41 ar
  80   40   45 1
  81   41   42 ar
  82   41   46 1
  83   42   43 ar
  84   42   83 1
  85   43   44 ar
  86   43   84 1
  87   44   85 1
  88   45   86 1
  89   45   87 1
  90   45   88 1
  91   47   48 1
  92   47   50 1
  93   47   49 1
  94   48   89 1
  95   48   90 1
  96   48   91 1
  97   49   92 1
  98   49   93 1
  99   49   94 1
 100   50   95 1
 101   50   96 1
 102   50   97 1

#	End of record

