#	Name: ASD10420116
#	Creating user name:	WinNT
#	Creation time:	15. 06. 2019 21:27

#	Modifying user name:	WinNT
#	Modification time:	15. 06. 2019 21:27

#	Program:	/corina/corina34_cracker 3.40 0067  02.08.2006

@<TRIPOS>MOLECULE
ASD10420116
  82   86    0    0    0
SMALL
NO_CHARGES


@<TRIPOS>ATOM
   1 N1            -0.2082     0.4764     0.6595 N.pl3   
   2 C2            -0.3596    -0.8490     0.3453 C.2     
   3 C3            -1.6984    -1.0571    -0.0341 C.2     
   4 C4            -2.3485     0.1732     0.0592 C.2     
   5 C5            -1.4205     1.1059     0.4916 C.2     
   6 C6             1.0060     0.9575     1.0652 C.2     
   7 C7             2.0769     0.1471     1.1654 C.2     
   8 C8             1.9602    -1.2283     0.8490 C.2     
   9 C9             0.7314    -1.7231     0.4374 C.2     
  10 C10           -1.6834     2.5266     0.7239 C.2     
  11 O11           -2.0657     2.9042     1.8164 O.2     
  12 C12           -3.7995     0.4387    -0.2496 C.3     
  13 C13           -4.6043     0.3718     1.0227 C.ar    
  14 C14           -5.0896     1.5326     1.5950 C.ar    
  15 C15           -4.8616    -0.8508     1.6139 C.ar    
  16 C16           -5.5998    -0.9137     2.7813 C.ar    
  17 C17           -6.0816     0.2458     3.3581 C.ar    
  18 C18           -2.3036    -2.3417    -0.4542 C.ar    
  19 C19           -2.4019    -3.3988     0.4509 C.ar    
  20 C20           -2.9667    -4.5932     0.0534 C.ar    
  21 C21           -3.4351    -4.7438    -1.2397 C.ar    
  22 C22           -3.3404    -3.6992    -2.1419 C.ar    
  23 C23           -2.7829    -2.4979    -1.7549 C.ar    
  24 C24           -4.8145     2.8648     0.9466 C.3     
  25 C25           -5.8288     1.4708     2.7638 C.ar    
  26 F26           -6.2990     2.6053     3.3270 F       
  27 C27            3.1300    -2.1232     0.9561 C.2     
  28 N28            3.2739    -2.9179     2.0351 N.am    
  29 O29            3.9633    -2.1430     0.0710 O.2     
  30 C30            4.4892    -3.7198     2.1974 C.3     
  31 C31            2.2150    -2.9800     3.0456 C.3     
  32 N32           -1.5023     3.4170    -0.2715 N.am    
  33 C33           -1.6612     4.8595    -0.0322 C.3     
  34 C34           -0.4150     5.5802    -0.5575 C.3     
  35 N35           -0.1904     5.2042    -1.9596 N.3     
  36 C36            0.0850     3.7670    -2.0884 C.3     
  37 C37           -1.1347     2.9724    -1.6244 C.3     
  38 C38           -0.6217     7.0931    -0.4614 C.3     
  39 C39            0.6475     7.8000    -0.8620 C.2     
  40 N40            0.7003     9.1467    -0.8537 N.am    
  41 O41            1.6215     7.1570    -1.1919 O.2     
  42 C42            1.9341     9.8338    -1.2431 C.3     
  43 C43            1.7275    11.3467    -1.1470 C.3     
  44 C44            2.9672    12.0372    -1.5383 C.1     
  45 N45            3.9240    12.5700    -1.8403 N.1     
  46 H46            1.1078     2.0047     1.3090 H       
  47 H47            3.0270     0.5471     1.4874 H       
  48 H48            0.6173    -2.7684     0.1909 H       
  49 H49           -3.9014     1.4295    -0.6923 H       
  50 H50           -4.1650    -0.3118    -0.9506 H       
  51 H51           -4.4860    -1.7577     1.1635 H       
  52 H52           -5.8003    -1.8696     3.2424 H       
  53 H53           -6.6588     0.1964     4.2695 H       
  54 H54           -2.0363    -3.2825     1.4605 H       
  55 H55           -3.0431    -5.4124     0.7531 H       
  56 H56           -3.8761    -5.6808    -1.5462 H       
  57 H57           -3.7075    -3.8230    -3.1501 H       
  58 H58           -2.7098    -1.6831    -2.4600 H       
  59 H59           -5.6243     3.1083     0.2588 H       
  60 H60           -4.7458     3.6354     1.7144 H       
  61 H61           -3.8743     2.8144     0.3974 H       
  62 H62            5.2330    -3.1446     2.7488 H       
  63 H63            4.2528    -4.6304     2.7479 H       
  64 H64            4.8859    -3.9809     1.2163 H       
  65 H65            1.5525    -3.8174     2.8268 H       
  66 H66            2.6606    -3.1170     4.0309 H       
  67 H67            1.6440    -2.0516     3.0310 H       
  68 H68           -2.5436     5.2230    -0.5587 H       
  69 H69           -1.7674     5.0438     1.0369 H       
  70 H70            0.4504     5.2923     0.0394 H       
  71 H71           -0.9725     5.4757    -2.5365 H       
  72 H72            0.3004     3.5299    -3.1303 H       
  73 H73            0.9434     3.5044    -1.4702 H       
  74 H74           -0.8930     1.9097    -1.6076 H       
  75 H75           -1.9655     3.1511    -2.3070 H       
  76 H76           -1.4303     7.3925    -1.1282 H       
  77 H77           -0.8784     7.3604     0.5637 H       
  78 H78           -0.0787     9.6610    -0.5898 H       
  79 H79            2.7427     9.5345    -0.5763 H       
  80 H80            2.1908     9.5666    -2.2682 H       
  81 H81            0.9189    11.6461    -1.8139 H       
  82 H82            1.4708    11.6140    -0.1219 H       
@<TRIPOS>BOND
   1    1    2 1
   2    1    6 1
   3    1    5 1
   4    2    3 2
   5    2    9 1
   6    3    4 1
   7    3   18 1
   8    4    5 2
   9    4   12 1
  10    5   10 1
  11    6    7 2
  12    6   46 1
  13    7    8 1
  14    7   47 1
  15    8    9 2
  16    8   27 1
  17    9   48 1
  18   10   11 2
  19   10   32 am
  20   12   13 1
  21   12   49 1
  22   12   50 1
  23   13   14 ar
  24   13   15 ar
  25   14   24 1
  26   14   25 ar
  27   15   16 ar
  28   15   51 1
  29   16   17 ar
  30   16   52 1
  31   17   25 ar
  32   17   53 1
  33   18   19 ar
  34   18   23 ar
  35   19   20 ar
  36   19   54 1
  37   20   21 ar
  38   20   55 1
  39   21   22 ar
  40   21   56 1
  41   22   23 ar
  42   22   57 1
  43   23   58 1
  44   24   59 1
  45   24   60 1
  46   24   61 1
  47   25   26 1
  48   27   28 am
  49   27   29 2
  50   28   30 1
  51   28   31 1
  52   30   62 1
  53   30   63 1
  54   30   64 1
  55   31   65 1
  56   31   66 1
  57   31   67 1
  58   32   33 1
  59   32   37 1
  60   33   34 1
  61   33   68 1
  62   33   69 1
  63   34   35 1
  64   34   38 1
  65   34   70 1
  66   35   36 1
  67   35   71 1
  68   36   37 1
  69   36   72 1
  70   36   73 1
  71   37   74 1
  72   37   75 1
  73   38   39 1
  74   38   76 1
  75   38   77 1
  76   39   40 am
  77   39   41 2
  78   40   42 1
  79   40   78 1
  80   42   43 1
  81   42   79 1
  82   42   80 1
  83   43   44 1
  84   43   81 1
  85   43   82 1
  86   44   45 3

#	End of record

