#	Name: ASD10420149
#	Creating user name:	WinNT
#	Creation time:	15. 06. 2019 21:27

#	Modifying user name:	WinNT
#	Modification time:	15. 06. 2019 21:27

#	Program:	/corina/corina34_cracker 3.40 0067  02.08.2006

@<TRIPOS>MOLECULE
ASD10420149
  34   35    0    0    0
SMALL
NO_CHARGES


@<TRIPOS>ATOM
   1 C1            -0.3520     1.5012     0.0435 C.3     
   2 C2             0.1030    -2.7854    -2.5220 C.3     
   3 C3            -0.4716    -4.4727     4.7780 C.ar    
   4 C4             1.0172    -6.0267     3.7047 C.ar    
   5 C5            -0.1911    -0.7010     1.2115 C.ar    
   6 C6             0.0292    -2.7674    -0.0253 C.ar    
   7 C7            -0.0370    -2.8482     2.4622 C.2     
   8 C8            -0.2184     0.0002     0.0267 C.ar    
   9 C9             0.0002    -2.0589    -1.2057 C.ar    
  10 C10           -0.3461    -5.1719     5.9632 C.ar    
  11 C11            1.1420    -6.7252     4.8904 C.ar    
  12 C12            0.2099    -4.8985     3.6455 C.ar    
  13 C13           -0.1232    -0.6746    -1.1848 C.ar    
  14 C14            0.4608    -6.2994     6.0219 C.ar    
  15 C15           -0.0671    -2.0928     1.1948 C.ar    
  16 N16            0.0827    -4.1905     2.4440 N.am    
  17 O17           -0.1201    -2.2595     3.5230 O.2     
  18 O18           -0.1514     0.0200    -2.3503 O.3     
  19 O19            0.5843    -6.9870     7.1888 O.3     
  20 Br20          -1.2737    -4.5919     7.5056 Br      
  21 Br21           2.2409    -8.2620     4.9710 Br      
  22 H22            0.6389     1.9538     0.0777 H       
  23 H23           -0.8707     1.8298    -0.8571 H       
  24 H24           -0.9210     1.8054     0.9220 H       
  25 H25           -0.8954    -3.0517    -2.8690 H       
  26 H26            0.5828    -2.1392    -3.2571 H       
  27 H27            0.6960    -3.6907    -2.3921 H       
  28 H28           -1.1031    -3.5979     4.7313 H       
  29 H29            1.5477    -6.3580     2.8243 H       
  30 H30           -0.2610    -0.1756     2.1525 H       
  31 H31            0.1252    -3.8430    -0.0424 H       
  32 H32            0.0807    -4.6662     1.5987 H       
  33 H33            0.7200     0.2997    -2.6627 H       
  34 H34           -0.0692    -7.6907     7.3017 H       
@<TRIPOS>BOND
   1    1    8 1
   2    1   22 1
   3    1   23 1
   4    1   24 1
   5    2    9 1
   6    2   25 1
   7    2   26 1
   8    2   27 1
   9    3   10 ar
  10    3   12 ar
  11    3   28 1
  12    4   11 ar
  13    4   12 ar
  14    4   29 1
  15    5    8 ar
  16    5   15 ar
  17    5   30 1
  18    6    9 ar
  19    6   15 ar
  20    6   31 1
  21    7   15 1
  22    7   16 am
  23    7   17 2
  24    8   13 ar
  25    9   13 ar
  26   10   14 ar
  27   10   20 1
  28   11   14 ar
  29   11   21 1
  30   12   16 1
  31   13   18 1
  32   14   19 1
  33   16   32 1
  34   18   33 1
  35   19   34 1

#	End of record

