#	Name: ASD11710021
#	Creating user name:	WinNT
#	Creation time:	15. 06. 2019 21:29

#	Modifying user name:	WinNT
#	Modification time:	15. 06. 2019 21:29

#	Program:	/corina/corina34_cracker 3.40 0067  02.08.2006

@<TRIPOS>MOLECULE
ASD11710021
  37   38    0    0    0
SMALL
NO_CHARGES


@<TRIPOS>ATOM
   1 N1            -0.2952     0.9672    -0.1746 N.am    
   2 C2            -0.4701    -0.2759     0.3158 C.2     
   3 C3            -1.8049    -0.9096     0.2648 C.ar    
   4 O4             0.4695    -0.8760     0.8001 O.2     
   5 C5            -1.9203    -2.2851     0.0579 C.ar    
   6 C6            -2.9549    -0.1359     0.4292 C.ar    
   7 C7            -4.1973    -0.7336     0.3810 C.ar    
   8 C8            -4.3049    -2.0969     0.1707 C.ar    
   9 C9            -3.1687    -2.8703     0.0118 C.ar    
  10 S10           -5.8956    -2.8524     0.1117 S.o2    
  11 N11           -6.3368    -2.9422    -1.4819 N.am    
  12 C12           -6.4740    -1.7742    -2.2354 C.ar    
  13 C13           -5.9188    -1.6965    -3.5064 C.ar    
  14 C14           -7.1707    -0.6896    -1.7178 C.ar    
  15 C15           -7.3044     0.4638    -2.4655 C.ar    
  16 C16           -6.7460     0.5396    -3.7283 C.ar    
  17 C17           -6.0563    -0.5401    -4.2488 C.ar    
  18 O18           -5.7208    -4.1909     0.5557 O.2     
  19 O19           -6.7958    -1.9409     0.7266 O.2     
  20 C20            0.9948     1.6429    -0.0148 C.3     
  21 C21           -1.3931     1.6404    -0.8730 C.3     
  22 H22           -1.0342    -2.8900    -0.0663 H       
  23 H23           -2.8722     0.9282     0.5941 H       
  24 H24           -5.0880    -0.1361     0.5081 H       
  25 H25           -3.2596    -3.9339    -0.1520 H       
  26 H26           -6.5000    -3.8059    -1.8920 H       
  27 H27           -5.3800    -2.5394    -3.9134 H       
  28 H28           -7.6077    -0.7484    -0.7319 H       
  29 H29           -7.8460     1.3073    -2.0637 H       
  30 H30           -6.8526     1.4425    -4.3113 H       
  31 H31           -5.6214    -0.4776    -5.2353 H       
  32 H32            1.6334     1.4134    -0.8678 H       
  33 H33            0.8364     2.7199     0.0412 H       
  34 H34            1.4745     1.2982     0.9013 H       
  35 H35           -2.0330     2.1412    -0.1464 H       
  36 H36           -0.9858     2.3761    -1.5664 H       
  37 H37           -1.9775     0.9047    -1.4256 H       
@<TRIPOS>BOND
   1    1    2 am
   2    1   20 1
   3    1   21 1
   4    2    3 1
   5    2    4 2
   6    3    5 ar
   7    3    6 ar
   8    5    9 ar
   9    5   22 1
  10    6    7 ar
  11    6   23 1
  12    7    8 ar
  13    7   24 1
  14    8    9 ar
  15    8   10 1
  16    9   25 1
  17   10   11 am
  18   10   18 2
  19   10   19 2
  20   11   12 1
  21   11   26 1
  22   12   13 ar
  23   12   14 ar
  24   13   17 ar
  25   13   27 1
  26   14   15 ar
  27   14   28 1
  28   15   16 ar
  29   15   29 1
  30   16   17 ar
  31   16   30 1
  32   17   31 1
  33   20   32 1
  34   20   33 1
  35   20   34 1
  36   21   35 1
  37   21   36 1
  38   21   37 1

#	End of record

