#	Name: ASD11030047
#	Creating user name:	WinNT
#	Creation time:	15. 06. 2019 21:29

#	Modifying user name:	WinNT
#	Modification time:	15. 06. 2019 21:29

#	Program:	/corina/corina34_cracker 3.40 0067  02.08.2006

@<TRIPOS>MOLECULE
ASD11030047
  83   88    0    0    0
SMALL
NO_CHARGES


@<TRIPOS>ATOM
   1 C1             3.1387     4.5876    -6.5277 C.ar    
   2 C2             2.0948     3.7151    -6.2540 C.ar    
   3 C3             2.0684     3.0462    -5.0434 C.ar    
   4 N4             3.0189     3.2265    -4.1499 N.ar    
   5 C5             4.0355     4.0524    -4.3722 C.ar    
   6 C6             4.1247     4.7590    -5.5718 C.ar    
   7 C7             5.0804     4.2239    -3.3405 C.2     
   8 C8             5.4586     3.2800    -2.4419 C.2     
   9 C9             6.4807     3.8354    -1.6349 C.ar    
  10 C10            6.6931     5.1512    -2.0938 C.ar    
  11 N11            5.8256     5.3631    -3.1447 N.pl3   
  12 C12            7.2368     3.3372    -0.5640 C.ar    
  13 C13            8.1744     4.1236     0.0318 C.ar    
  14 C14            8.3927     5.4340    -0.4180 C.ar    
  15 C15            7.6508     5.9449    -1.4804 C.ar    
  16 C16            5.7101     6.6014    -3.9190 C.3     
  17 C17            4.8917     1.8886    -2.3239 C.3     
  18 C18            9.4128     6.2754     0.2375 C.2     
  19 N19           10.1321     5.7842     1.2660 N.am    
  20 O20            9.6042     7.4118    -0.1503 O.2     
  21 C21           11.2200     6.5772     1.8437 C.3     
  22 C22           10.7347     7.8393     2.5091 C.2     
  23 N23            9.5364     7.8581     3.1257 N.am    
  24 O24           11.4224     8.8380     2.4897 O.2     
  25 C25            9.1164     9.0052     3.7986 C.ar    
  26 C26            9.3869    10.2619     3.2623 C.ar    
  27 C27            8.9807    11.3919     3.9120 C.ar    
  28 C28            8.2876    11.2933     5.1250 C.ar    
  29 C29            8.0126    10.0262     5.6696 C.ar    
  30 C30            8.4249     8.8893     4.9982 C.ar    
  31 C31           12.1871     5.7556     2.7123 C.3     
  32 C32           13.3244     6.5822     2.0894 C.3     
  33 C33           12.3972     6.8023     0.8802 C.3     
  34 C34            7.8509    12.5063     5.8245 C.2     
  35 C35            8.1174    13.7238     5.2981 C.2     
  36 C36            6.0039     0.8466    -2.5356 C.3     
  37 C37            6.0894     0.0227    -1.2342 C.3     
  38 C38            4.6908     0.1856    -0.5890 C.3     
  39 C39            4.3401     1.6616    -0.9013 C.3     
  40 O40            7.3419     9.9195     6.8442 O.3     
  41 C41            6.3371     8.6799     8.6593 C.3     
  42 C42            7.0993     8.5995     7.3351 C.3     
  43 C43            7.6960    14.8945     5.9732 C.2     
  44 O44            7.0940    14.8058     7.0269 O.2     
  45 O45            7.9618    16.1090     5.4481 O.3     
  46 H46            3.1830     5.1176    -7.4676 H       
  47 H47            1.3098     3.5601    -6.9794 H       
  48 H48            1.2569     2.3670    -4.8278 H       
  49 H49            4.9514     5.4302    -5.7519 H       
  50 H50            7.0747     2.3292    -0.2117 H       
  51 H51            8.7539     3.7361     0.8566 H       
  52 H52            7.8204     6.9543    -1.8248 H       
  53 H53            6.3122     6.5214    -4.8241 H       
  54 H54            4.6670     6.7647    -4.1897 H       
  55 H55            6.0653     7.4393    -3.3192 H       
  56 H56            4.1002     1.7446    -3.0594 H       
  57 H57            9.9294     4.9056     1.6236 H       
  58 H58            8.9661     7.0738     3.1015 H       
  59 H59            9.9214    10.3429     2.3273 H       
  60 H60            9.1943    12.3629     3.4902 H       
  61 H61            8.2170     7.9128     5.4102 H       
  62 H62           12.0618     5.9220     3.7823 H       
  63 H63           12.2204     4.6985     2.4484 H       
  64 H64           13.5498     7.4972     2.6372 H       
  65 H65           14.2138     5.9963     1.8578 H       
  66 H66           12.4875     6.0316     0.1147 H       
  67 H67           12.4431     7.8123     0.4729 H       
  68 H68            7.3166    12.4275     6.7597 H       
  69 H69            8.6517    13.8025     4.3628 H       
  70 H70            5.7518     0.1964    -3.3733 H       
  71 H71            6.9537     1.3472    -2.7237 H       
  72 H72            6.2863    -1.0256    -1.4586 H       
  73 H73            6.8614     0.4248    -0.5782 H       
  74 H74            3.9707    -0.4889    -1.0523 H       
  75 H75            4.7402     0.0197     0.4872 H       
  76 H76            4.8296     2.3284    -0.1914 H       
  77 H77            3.2603     1.8093    -0.8827 H       
  78 H78            5.3864     9.1891     8.5010 H       
  79 H79            6.1521     7.6731     9.0337 H       
  80 H80            6.9298     9.2348     9.3865 H       
  81 H81            6.5066     8.0446     6.6078 H       
  82 H82            8.0499     8.0903     7.4934 H       
  83 H83            7.6351    16.8475     5.9800 H       
@<TRIPOS>BOND
   1    1    2 ar
   2    1    6 ar
   3    1   46 1
   4    2    3 ar
   5    2   47 1
   6    3    4 ar
   7    3   48 1
   8    4    5 ar
   9    5    6 ar
  10    5    7 1
  11    6   49 1
  12    7    8 2
  13    7   11 1
  14    8    9 1
  15    8   17 1
  16    9   10 ar
  17    9   12 ar
  18   10   11 1
  19   10   15 ar
  20   11   16 1
  21   12   13 ar
  22   12   50 1
  23   13   14 ar
  24   13   51 1
  25   14   15 ar
  26   14   18 1
  27   15   52 1
  28   16   53 1
  29   16   54 1
  30   16   55 1
  31   17   36 1
  32   17   39 1
  33   17   56 1
  34   18   19 am
  35   18   20 2
  36   19   21 1
  37   19   57 1
  38   21   22 1
  39   21   31 1
  40   21   33 1
  41   22   23 am
  42   22   24 2
  43   23   25 1
  44   23   58 1
  45   25   26 ar
  46   25   30 ar
  47   26   27 ar
  48   26   59 1
  49   27   28 ar
  50   27   60 1
  51   28   29 ar
  52   28   34 1
  53   29   30 ar
  54   29   40 1
  55   30   61 1
  56   31   32 1
  57   31   62 1
  58   31   63 1
  59   32   33 1
  60   32   64 1
  61   32   65 1
  62   33   66 1
  63   33   67 1
  64   34   35 2
  65   34   68 1
  66   35   43 1
  67   35   69 1
  68   36   37 1
  69   36   70 1
  70   36   71 1
  71   37   38 1
  72   37   72 1
  73   37   73 1
  74   38   39 1
  75   38   74 1
  76   38   75 1
  77   39   76 1
  78   39   77 1
  79   40   42 1
  80   41   42 1
  81   41   78 1
  82   41   79 1
  83   41   80 1
  84   42   81 1
  85   42   82 1
  86   43   44 2
  87   43   45 1
  88   45   83 1

#	End of record

