#	Name: ASD11000196
#	Creating user name:	WinNT
#	Creation time:	15. 06. 2019 21:28

#	Modifying user name:	WinNT
#	Modification time:	15. 06. 2019 21:28

#	Program:	/corina/corina34_cracker 3.40 0067  02.08.2006

@<TRIPOS>MOLECULE
ASD11000196
  48   51    0    0    0
SMALL
NO_CHARGES


@<TRIPOS>ATOM
   1 N1            -0.0065     1.7569     0.3908 N.ar    
   2 C2             0.0784     0.4346     0.3987 C.ar    
   3 N3             1.2466    -0.1859     0.3198 N.ar    
   4 C4             2.3727     0.5019     0.2300 C.ar    
   5 C5             2.3201     1.8870     0.2190 C.ar    
   6 C6             1.0816     2.5038     0.3031 C.ar    
   7 C7             3.5820     2.7046     0.1184 C.3     
   8 O8             3.8830     2.9487    -1.2571 O.3     
   9 C9             4.9990     3.6782    -1.5248 C.ar    
  10 C10            5.7893     4.1433    -0.4840 C.ar    
  11 N11           -1.0812    -0.3168     0.4921 N.pl3   
  12 C12           -1.0230    -1.7114     0.3790 C.ar    
  13 C13           -1.8887    -2.5050     1.1195 C.ar    
  14 C14           -0.1031    -2.3010    -0.4782 C.ar    
  15 C15           -0.0465    -3.6763    -0.5903 C.ar    
  16 C16           -0.9076    -4.4693     0.1533 C.ar    
  17 C17           -1.8308    -3.8812     1.0068 C.ar    
  18 O18           -0.8511    -5.8237     0.0422 O.3     
  19 C19            5.3495     3.9519    -2.8387 C.ar    
  20 C20            6.4828     4.6923    -3.1115 C.ar    
  21 C21            7.2715     5.1632    -2.0700 C.ar    
  22 C22            6.9225     4.8846    -0.7549 C.ar    
  23 Cl23          -2.9085    -4.8745     1.9372 Cl      
  24 C24            0.1193    -6.3608    -0.8589 C.3     
  25 F25           -0.1324    -5.8878    -2.1513 F       
  26 F26            1.3990    -5.9628    -0.4576 F       
  27 N27            8.4208     5.9134    -2.3456 N.pl3   
  28 C28            8.8053     6.9330    -1.4882 C.2     
  29 S29           10.1157     7.9974    -1.7578 S.3     
  30 C30            9.7756     8.8189    -0.2369 C.2     
  31 C31            8.7225     8.2264     0.3273 C.2     
  32 N32            8.2197     7.2219    -0.3674 N.2     
  33 H33            3.3219    -0.0095     0.1664 H       
  34 H34            1.0059     3.5811     0.2967 H       
  35 H35            3.4414     3.6547     0.6337 H       
  36 H36            4.4058     2.1596     0.5794 H       
  37 H37            5.5181     3.9260     0.5385 H       
  38 H38           -1.9338     0.1229     0.6359 H       
  39 H39           -2.6069    -2.0471     1.7835 H       
  40 H40            0.5678    -1.6839    -1.0575 H       
  41 H41            0.6686    -4.1345    -1.2575 H       
  42 H42            4.7360     3.5856    -3.6486 H       
  43 H43            6.7560     4.9047    -4.1346 H       
  44 H44            7.5350     5.2507     0.0557 H       
  45 H45            0.0584    -7.4490    -0.8520 H       
  46 H46            8.9481     5.7200    -3.1364 H       
  47 H47           10.3244     9.6563     0.1680 H       
  48 H48            8.3115     8.5447     1.2739 H       
@<TRIPOS>BOND
   1    1    2 ar
   2    1    6 ar
   3    2    3 ar
   4    2   11 1
   5    3    4 ar
   6    4    5 ar
   7    4   33 1
   8    5    6 ar
   9    5    7 1
  10    6   34 1
  11    7    8 1
  12    7   35 1
  13    7   36 1
  14    8    9 1
  15    9   19 ar
  16    9   10 ar
  17   10   22 ar
  18   10   37 1
  19   11   12 1
  20   11   38 1
  21   12   13 ar
  22   12   14 ar
  23   13   17 ar
  24   13   39 1
  25   14   15 ar
  26   14   40 1
  27   15   16 ar
  28   15   41 1
  29   16   17 ar
  30   16   18 1
  31   17   23 1
  32   18   24 1
  33   19   20 ar
  34   19   42 1
  35   20   21 ar
  36   20   43 1
  37   21   22 ar
  38   21   27 1
  39   22   44 1
  40   24   25 1
  41   24   26 1
  42   24   45 1
  43   27   28 1
  44   27   46 1
  45   28   29 1
  46   28   32 2
  47   29   30 1
  48   30   31 2
  49   30   47 1
  50   31   32 1
  51   31   48 1

#	End of record

