#	Name: ASD11920061
#	Creating user name:	WinNT
#	Creation time:	15. 06. 2019 21:29

#	Modifying user name:	WinNT
#	Modification time:	15. 06. 2019 21:29

#	Program:	/corina/corina34_cracker 3.40 0067  02.08.2006

@<TRIPOS>MOLECULE
ASD11920061
  54   57    0    0    0
SMALL
NO_CHARGES


@<TRIPOS>ATOM
   1 C1            -0.0453     0.9366    -0.8310 C.3     
   2 O2            -0.2155    -0.4626    -0.5959 O.3     
   3 C3            -1.2669    -0.8345     0.1822 C.ar    
   4 C4            -1.4901    -2.1771     0.4503 C.ar    
   5 C5            -2.5572    -2.5556     1.2409 C.ar    
   6 C6            -2.1121     0.1293     0.7122 C.ar    
   7 C7            -3.1797    -0.2475     1.5029 C.ar    
   8 C8            -3.4070    -1.5917     1.7675 C.ar    
   9 N9            -4.4893    -1.9746     2.5686 N.pl3   
  10 C10           -5.6573    -1.2287     2.5580 C.ar    
  11 N11           -5.8094    -0.2178     1.7073 N.ar    
  12 C12           -6.9248     0.5010     1.6912 C.ar    
  13 N13           -7.0349     1.5449     0.7846 N.pl3   
  14 C14           -8.1905     2.3314     0.7611 C.ar    
  15 C15           -9.3913     1.7912     0.3188 C.ar    
  16 C16           -9.4505     0.3557    -0.1361 C.3     
  17 C17          -10.5310     2.5709     0.2968 C.ar    
  18 C18          -10.4775     3.8882     0.7140 C.ar    
  19 C19          -11.7230     4.7362     0.6882 C.3     
  20 C20          -12.4543     4.6092     2.0261 C.3     
  21 C21          -13.6709     5.4375     2.0009 C.1     
  22 N22          -14.6098     6.0767     1.9814 N.1     
  23 C23           -9.2837     4.4291     1.1554 C.ar    
  24 C24           -8.1416     3.6532     1.1853 C.ar    
  25 C25           -6.8425     4.2416     1.6723 C.3     
  26 N26           -7.9344     0.2571     2.5079 N.ar    
  27 C27           -7.8642    -0.7414     3.3950 C.ar    
  28 C28           -6.7014    -1.5268     3.4366 C.ar    
  29 N29           -6.9113    -2.4687     4.4240 N.pl3   
  30 C30           -8.1440    -2.2460     4.9318 C.2     
  31 N31           -8.6977    -1.2275     4.3340 N.2     
  32 H32            0.8273     1.0951    -1.4646 H       
  33 H33           -0.9315     1.3321    -1.3274 H       
  34 H34            0.0981     1.4499     0.1199 H       
  35 H35           -0.8293    -2.9266     0.0404 H       
  36 H36           -2.7311    -3.6010     1.4492 H       
  37 H37           -1.9350     1.1746     0.5066 H       
  38 H38           -3.8379     0.5030     1.9151 H       
  39 H39           -4.4217    -2.7619     3.1312 H       
  40 H40           -6.3101     1.7293     0.1668 H       
  41 H41           -9.7342    -0.2799     0.7028 H       
  42 H42          -10.1882     0.2570    -0.9324 H       
  43 H43           -8.4720     0.0516    -0.5076 H       
  44 H44          -11.4650     2.1514    -0.0470 H       
  45 H45          -11.4499     5.7781     0.5209 H       
  46 H46          -12.3761     4.3981    -0.1163 H       
  47 H47          -12.7275     3.5673     2.1934 H       
  48 H48          -11.8012     4.9473     2.8307 H       
  49 H49           -9.2454     5.4582     1.4806 H       
  50 H50           -6.2640     4.5996     0.8207 H       
  51 H51           -7.0501     5.0730     2.3459 H       
  52 H52           -6.2738     3.4777     2.2026 H       
  53 H53           -6.2906    -3.1608     4.7011 H       
  54 H54           -8.6000    -2.8211     5.7241 H       
@<TRIPOS>BOND
   1    1    2 1
   2    1   32 1
   3    1   33 1
   4    1   34 1
   5    2    3 1
   6    3    4 ar
   7    3    6 ar
   8    4    5 ar
   9    4   35 1
  10    5    8 ar
  11    5   36 1
  12    6    7 ar
  13    6   37 1
  14    7    8 ar
  15    7   38 1
  16    8    9 1
  17    9   10 1
  18    9   39 1
  19   10   11 ar
  20   10   28 ar
  21   11   12 ar
  22   12   13 1
  23   12   26 ar
  24   13   14 1
  25   13   40 1
  26   14   15 ar
  27   14   24 ar
  28   15   16 1
  29   15   17 ar
  30   16   41 1
  31   16   42 1
  32   16   43 1
  33   17   18 ar
  34   17   44 1
  35   18   19 1
  36   18   23 ar
  37   19   20 1
  38   19   45 1
  39   19   46 1
  40   20   21 1
  41   20   47 1
  42   20   48 1
  43   21   22 3
  44   23   24 ar
  45   23   49 1
  46   24   25 1
  47   25   50 1
  48   25   51 1
  49   25   52 1
  50   26   27 ar
  51   27   28 ar
  52   27   31 1
  53   28   29 1
  54   29   30 1
  55   29   53 1
  56   30   31 2
  57   30   54 1

#	End of record

