#	Name: ASD10410087
#	Creating user name:	WinNT
#	Creation time:	15. 06. 2019 21:26

#	Modifying user name:	WinNT
#	Modification time:	15. 06. 2019 21:26

#	Program:	/corina/corina34_cracker 3.40 0067  02.08.2006

@<TRIPOS>MOLECULE
ASD10410087
  63   67    0    0    0
SMALL
NO_CHARGES


@<TRIPOS>ATOM
   1 C1             0.0773     1.2930     0.6440 C.ar    
   2 C2            -0.0459     0.0394     0.0752 C.ar    
   3 C3             1.0550    -0.5663    -0.5209 C.ar    
   4 C4             2.2772     0.0895    -0.5443 C.ar    
   5 C5             2.3972     1.3487     0.0275 C.ar    
   6 C6             1.2939     1.9484     0.6219 C.ar    
   7 N7             0.9303    -1.8342    -1.0950 N.3     
   8 N8             3.6273     2.0124     0.0062 N.pl3   
   9 C9             3.6672     3.4050    -0.0505 C.2     
  10 N10            4.7511     4.1382     0.0338 N.2     
  11 N11            2.6060     4.2057    -0.2054 N.2     
  12 C12            2.9957     5.4621    -0.2167 C.2     
  13 N13            4.3484     5.4797    -0.0682 N.pl3   
  14 C14            5.1670     6.6004    -0.0260 C.ar    
  15 N15            2.1782     6.5663    -0.3574 N.pl3   
  16 N16            4.8640     7.6357     0.7444 N.ar    
  17 C17            5.6350     8.7101     0.7943 C.ar    
  18 N18            6.7394     8.8288     0.0960 N.ar    
  19 C19            7.1389     7.8392    -0.7163 C.ar    
  20 C20            6.3481     6.6652    -0.7987 C.ar    
  21 C21            8.3125     7.9331    -1.4752 C.ar    
  22 C22            8.6762     6.8961    -2.2880 C.ar    
  23 C23            7.8898     5.7379    -2.3728 C.ar    
  24 C24            6.7437     5.6169    -1.6400 C.ar    
  25 Cl25          -1.5760    -0.7800     0.1054 Cl      
  26 C26            0.6730    -2.8537    -0.0692 C.3     
  27 C27            0.3637    -4.1915    -0.7495 C.3     
  28 N28            1.4590    -4.5071    -1.6791 N.am    
  29 C29            1.8666    -3.4792    -2.6489 C.3     
  30 C30            2.1167    -2.1694    -1.8937 C.3     
  31 C31            2.0731    -5.7063    -1.6429 C.2     
  32 O32            1.6688    -6.5723    -0.8962 O.2     
  33 C33            3.2620    -5.9711    -2.5302 C.3     
  34 O34            9.8144     6.9887    -3.0238 O.3     
  35 C35           10.5734     8.1927    -2.8958 C.3     
  36 O36            8.2757     4.7217    -3.1897 O.3     
  37 C37            7.4330     3.5685    -3.2330 C.3     
  38 H38           -0.7799     1.7632     1.1027 H       
  39 H39            3.1338    -0.3788    -1.0063 H       
  40 H40            1.3868     2.9282     1.0666 H       
  41 H41            4.4531     1.5042     0.0308 H       
  42 H42            1.2206     6.4508    -0.4600 H       
  43 H43            2.5617     7.4572    -0.3537 H       
  44 H44            5.3418     9.5259     1.4385 H       
  45 H45            8.9262     8.8199    -1.4187 H       
  46 H46            6.1443     4.7214    -1.7117 H       
  47 H47            1.5534    -2.9626     0.5642 H       
  48 H48           -0.1784    -2.5500     0.5399 H       
  49 H49            0.2851    -4.9756     0.0035 H       
  50 H50           -0.5734    -4.1139    -1.3007 H       
  51 H51            2.7816    -3.7925    -3.1516 H       
  52 H52            1.0739    -3.3332    -3.3826 H       
  53 H53            2.3124    -1.3695    -2.6078 H       
  54 H54            2.9770    -2.2879    -1.2350 H       
  55 H55            3.4204    -5.1178    -3.1897 H       
  56 H56            4.1483    -6.1235    -1.9142 H       
  57 H57            3.0774    -6.8634    -3.1283 H       
  58 H58            9.9604     9.0424    -3.1964 H       
  59 H59           10.8842     8.3178    -1.8586 H       
  60 H60           11.4547     8.1363    -3.5349 H       
  61 H61            6.4390     3.8574    -3.5745 H       
  62 H62            7.8548     2.8358    -3.9210 H       
  63 H63            7.3623     3.1325    -2.2365 H       
@<TRIPOS>BOND
   1    1    2 ar
   2    1    6 ar
   3    1   38 1
   4    2    3 ar
   5    2   25 1
   6    3    4 ar
   7    3    7 1
   8    4    5 ar
   9    4   39 1
  10    5    6 ar
  11    5    8 1
  12    6   40 1
  13    7   26 1
  14    7   30 1
  15    8    9 1
  16    8   41 1
  17    9   10 2
  18    9   11 1
  19   10   13 1
  20   11   12 2
  21   12   13 1
  22   12   15 1
  23   13   14 1
  24   14   16 ar
  25   14   20 ar
  26   15   42 1
  27   15   43 1
  28   16   17 ar
  29   17   18 ar
  30   17   44 1
  31   18   19 ar
  32   19   20 ar
  33   19   21 ar
  34   20   24 ar
  35   21   22 ar
  36   21   45 1
  37   22   23 ar
  38   22   34 1
  39   23   24 ar
  40   23   36 1
  41   24   46 1
  42   26   27 1
  43   26   47 1
  44   26   48 1
  45   27   28 1
  46   27   49 1
  47   27   50 1
  48   28   29 1
  49   28   31 am
  50   29   30 1
  51   29   51 1
  52   29   52 1
  53   30   53 1
  54   30   54 1
  55   31   32 2
  56   31   33 1
  57   33   55 1
  58   33   56 1
  59   33   57 1
  60   34   35 1
  61   35   58 1
  62   35   59 1
  63   35   60 1
  64   36   37 1
  65   37   61 1
  66   37   62 1
  67   37   63 1

#	End of record

