#	Name: ASD11750001
#	Creating user name:	WinNT
#	Creation time:	15. 06. 2019 21:29

#	Modifying user name:	WinNT
#	Modification time:	15. 06. 2019 21:29

#	Program:	/corina/corina34_cracker 3.40 0067  02.08.2006

@<TRIPOS>MOLECULE
ASD11750001
  32   32    0    0    0
SMALL
NO_CHARGES


@<TRIPOS>ATOM
   1 C1             0.0058     1.5407     0.0265 C.3     
   2 C2             0.0124     0.0107     0.0110 C.3     
   3 C3             0.7210    -0.4835    -1.2518 C.3     
   4 C4             2.1612     0.0329    -1.2637 C.3     
   5 C5             2.1546     1.5628    -1.2482 C.3     
   6 C6             1.4460     2.0570     0.0146 C.3     
   7 C7            -0.7027     2.0349     1.2892 C.3     
   8 O8             3.4997     2.0450    -1.2593 O.3     
   9 O9             1.4399     3.4859     0.0290 O.3     
  10 C10            2.8697    -0.4613    -2.5264 C.3     
  11 C11            3.0008    -1.9848    -2.4746 C.3     
  12 C12            2.0551    -0.0611    -3.7581 C.3     
  13 H13           -0.5201     1.9107    -0.8537 H       
  14 H14            0.5383    -0.3593     0.8911 H       
  15 H15           -1.0136    -0.3571     0.0194 H       
  16 H16            0.7257    -1.5734    -1.2628 H       
  17 H17            0.1951    -0.1134    -2.1319 H       
  18 H18            2.6871    -0.3371    -0.3836 H       
  19 H19            1.6287     1.9328    -2.1283 H       
  20 H20            1.9719     1.6870     0.8947 H       
  21 H21           -0.1768     1.6649     2.1693 H       
  22 H22           -0.7074     3.1248     1.3003 H       
  23 H23           -1.7288     1.6670     1.2977 H       
  24 H24            3.5719     3.0093    -1.2504 H       
  25 H25            2.3215     3.8831     0.0226 H       
  26 H26            3.8616    -0.0131    -2.5855 H       
  27 H27            3.4303    -2.3446    -3.4096 H       
  28 H28            3.6495    -2.2657    -1.6449 H       
  29 H29            2.0159    -2.4296    -2.3323 H       
  30 H30            1.9617     1.0242    -3.7951 H       
  31 H31            2.5599    -0.4132    -4.6578 H       
  32 H32            1.0632    -0.5093    -3.6991 H       
@<TRIPOS>BOND
   1    1    2 1
   2    1    6 1
   3    1    7 1
   4    1   13 1
   5    2    3 1
   6    2   14 1
   7    2   15 1
   8    3    4 1
   9    3   16 1
  10    3   17 1
  11    4    5 1
  12    4   10 1
  13    4   18 1
  14    5    6 1
  15    5    8 1
  16    5   19 1
  17    6    9 1
  18    6   20 1
  19    7   21 1
  20    7   22 1
  21    7   23 1
  22    8   24 1
  23    9   25 1
  24   10   11 1
  25   10   12 1
  26   10   26 1
  27   11   27 1
  28   11   28 1
  29   11   29 1
  30   12   30 1
  31   12   31 1
  32   12   32 1

#	End of record

