#	Name: ASD10410075
#	Creating user name:	WinNT
#	Creation time:	15. 06. 2019 21:26

#	Modifying user name:	WinNT
#	Modification time:	15. 06. 2019 21:26

#	Program:	/corina/corina34_cracker 3.40 0067  02.08.2006

@<TRIPOS>MOLECULE
ASD10410075
  53   57    0    0    0
SMALL
NO_CHARGES


@<TRIPOS>ATOM
   1 C1            -0.0184     1.3926    -0.0797 C.ar    
   2 C2            -0.0058     0.0095     0.0248 C.ar    
   3 C3             1.2007    -0.6691     0.1141 C.ar    
   4 C4             2.3904     0.0318     0.0995 C.ar    
   5 C5             2.3788     1.4166    -0.0051 C.ar    
   6 C6             1.1704     2.0952    -0.0949 C.ar    
   7 O7            -1.1770    -0.6815     0.0401 O.3     
   8 N8             3.5843     2.1280    -0.0195 N.pl3   
   9 C9             3.6714     3.3383    -0.7065 C.2     
  10 N10            4.7102     4.1387    -0.7072 N.2     
  11 N11            2.7104     3.8652    -1.4745 N.2     
  12 C12            3.1193     5.0121    -1.9729 C.2     
  13 N13            4.3821     5.2365    -1.5191 N.pl3   
  14 C14            5.1862     6.3324    -1.8023 C.2     
  15 N15            2.3965     5.8394    -2.8104 N.pl3   
  16 N16            6.3793     6.5052    -1.3501 N.2     
  17 C17           -1.0898    -2.1036     0.1499 C.3     
  18 C18           -2.4977    -2.7023     0.1509 C.3     
  19 N19           -3.1375    -2.4513    -1.1474 N.3     
  20 C20           -4.3944    -3.2118    -1.2730 C.3     
  21 S21            4.7224     7.6773    -2.8354 S.3     
  22 C22            6.2848     8.4442    -2.5611 C.ar    
  23 C23            7.0367     7.6229    -1.7147 C.ar    
  24 C24            6.8149     9.6417    -3.0347 C.ar    
  25 C25            8.0848    10.0295    -2.6693 C.ar    
  26 C26            8.8395     9.2266    -1.8268 C.ar    
  27 C27            8.3357     8.0408    -1.3553 C.ar    
  28 C28           -5.5178    -2.1939    -1.5618 C.3     
  29 C29           -4.7480    -0.9804    -2.1465 C.3     
  30 C30           -3.4376    -1.0140    -1.3212 C.3     
  31 H31           -0.9580     1.9199    -0.1537 H       
  32 H32            1.2095    -1.7460     0.1954 H       
  33 H33            3.3296    -0.4967     0.1698 H       
  34 H34            1.1605     3.1721    -0.1766 H       
  35 H35            4.3590     1.7790     0.4484 H       
  36 H36            1.4991     5.5905    -3.0816 H       
  37 H37            2.7864     6.6692    -3.1272 H       
  38 H38           -0.5272    -2.4995    -0.6956 H       
  39 H39           -0.5827    -2.3659     1.0784 H       
  40 H40           -2.4355    -3.7768     0.3236 H       
  41 H41           -3.0883    -2.2407     0.9422 H       
  42 H42           -4.3172    -3.9223    -2.0960 H       
  43 H43           -4.6028    -3.7399    -0.3426 H       
  44 H44            6.2285    10.2679    -3.6908 H       
  45 H45            8.4932    10.9585    -3.0390 H       
  46 H46            9.8350     9.5352    -1.5437 H       
  47 H47            8.9350     7.4261    -0.7000 H       
  48 H48           -6.2208    -2.5930    -2.2930 H       
  49 H49           -6.0326    -1.9169    -0.6419 H       
  50 H50           -4.5447    -1.1217    -3.2080 H       
  51 H51           -5.2937    -0.0526    -1.9751 H       
  52 H52           -3.5870    -0.5378    -0.3522 H       
  53 H53           -2.6327    -0.5216    -1.8669 H       
@<TRIPOS>BOND
   1    1    2 ar
   2    1    6 ar
   3    1   31 1
   4    2    3 ar
   5    2    7 1
   6    3    4 ar
   7    3   32 1
   8    4    5 ar
   9    4   33 1
  10    5    6 ar
  11    5    8 1
  12    6   34 1
  13    7   17 1
  14    8    9 1
  15    8   35 1
  16    9   10 2
  17    9   11 1
  18   10   13 1
  19   11   12 2
  20   12   13 1
  21   12   15 1
  22   13   14 1
  23   14   16 2
  24   14   21 1
  25   15   36 1
  26   15   37 1
  27   16   23 1
  28   17   18 1
  29   17   38 1
  30   17   39 1
  31   18   19 1
  32   18   40 1
  33   18   41 1
  34   19   20 1
  35   19   30 1
  36   20   28 1
  37   20   42 1
  38   20   43 1
  39   21   22 1
  40   22   23 ar
  41   22   24 ar
  42   23   27 ar
  43   24   25 ar
  44   24   44 1
  45   25   26 ar
  46   25   45 1
  47   26   27 ar
  48   26   46 1
  49   27   47 1
  50   28   29 1
  51   28   48 1
  52   28   49 1
  53   29   30 1
  54   29   50 1
  55   29   51 1
  56   30   52 1
  57   30   53 1

#	End of record

