#	Name: ASD10410024
#	Creating user name:	WinNT
#	Creation time:	15. 06. 2019 21:26

#	Modifying user name:	WinNT
#	Modification time:	15. 06. 2019 21:26

#	Program:	/corina/corina34_cracker 3.40 0067  02.08.2006

@<TRIPOS>MOLECULE
ASD10410024
  71   75    0    0    0
SMALL
NO_CHARGES


@<TRIPOS>ATOM
   1 C1             1.3103    -0.1236    -0.4288 C.3     
   2 C2             0.5351    -1.4152    -0.3869 C.ar    
   3 C3             2.7297    -0.4031    -0.8513 C.ar    
   4 N4             3.0487    -0.4541    -2.1338 N.ar    
   5 C5             3.7189    -0.6043     0.1003 C.ar    
   6 C6             5.0120    -0.8582    -0.3319 C.ar    
   7 N7             5.2615    -0.9006    -1.6304 N.ar    
   8 C8             4.2944    -0.6989    -2.5129 C.ar    
   9 Cl9            3.3465    -0.5392     1.7946 Cl      
  10 N10            4.5918    -0.7506    -3.8655 N.pl3   
  11 C11            5.9174    -0.8976    -4.2846 C.ar    
  12 C12            6.2066    -1.6091    -5.4420 C.ar    
  13 C13            7.5172    -1.7520    -5.8536 C.ar    
  14 C14            8.5409    -1.1877    -5.1147 C.ar    
  15 C15            8.2565    -0.4788    -3.9620 C.ar    
  16 C16            6.9477    -0.3277    -3.5477 C.ar    
  17 C17            9.9699    -1.3462    -5.5666 C.3     
  18 N18           10.3284    -0.2334    -6.4560 N.3     
  19 C19           11.7727    -0.2204    -6.7274 C.3     
  20 C20           12.0929     0.9017    -7.7177 C.3     
  21 N21           11.6538     2.1869    -7.1566 N.3     
  22 C22           10.2095     2.1739    -6.8853 C.3     
  23 C23            9.8893     1.0519    -5.8949 C.3     
  24 C24           12.0123     3.2997    -8.0460 C.3     
  25 C25           -0.8251    -1.3966    -0.1421 C.ar    
  26 C26            1.1840    -2.6176    -0.5992 C.ar    
  27 C27            0.4741    -3.8024    -0.5620 C.ar    
  28 C28           -0.8878    -3.7854    -0.3115 C.ar    
  29 C29           -1.5373    -2.5806    -0.1039 C.ar    
  30 F30           -1.5830    -4.9432    -0.2748 F       
  31 S31           -1.6514     0.1371     0.1221 S.o2    
  32 N32           -1.0674     0.7714     1.5360 N.am    
  33 O33           -1.2226     1.0079    -0.9157 O.2     
  34 O34           -3.0169    -0.1782     0.3576 O.2     
  35 C35           -1.6077     0.3464     2.8370 C.3     
  36 C36            0.0114     1.7721     1.5286 C.3     
  37 C37           -0.4237     2.9584     2.3965 C.3     
  38 O38           -0.8351     2.4778     3.6786 O.3     
  39 C39           -1.9671     1.5993     3.6439 C.3     
  40 H40            0.8457     0.5560    -1.1432 H       
  41 H41            1.3091     0.3331     0.5609 H       
  42 H42            5.8056    -1.0190     0.3828 H       
  43 H43            3.8802    -0.6849    -4.5214 H       
  44 H44            5.4076    -2.0503    -6.0193 H       
  45 H45            7.7428    -2.3053    -6.7532 H       
  46 H46            9.0583    -0.0394    -3.3873 H       
  47 H47            6.7262     0.2261    -2.6473 H       
  48 H48           10.6281    -1.3435    -4.6978 H       
  49 H49           10.0791    -2.2892    -6.1022 H       
  50 H50           12.3158    -0.0508    -5.7977 H       
  51 H51           12.0712    -1.1780    -7.1538 H       
  52 H52           13.1674     0.9318    -7.8982 H       
  53 H53           11.5711     0.7177    -8.6569 H       
  54 H54            9.9110     3.1316    -6.4588 H       
  55 H55            9.6664     2.0044    -7.8149 H       
  56 H56            8.8148     1.0218    -5.7144 H       
  57 H57           10.4111     1.2359    -4.9557 H       
  58 H58           11.5330     3.1594    -9.0149 H       
  59 H59           11.6758     4.2388    -7.6068 H       
  60 H60           13.0942     3.3266    -8.1763 H       
  61 H61            2.2461    -2.6306    -0.7946 H       
  62 H62            0.9810    -4.7414    -0.7285 H       
  63 H63           -2.5993    -2.5661     0.0919 H       
  64 H64           -2.5003    -0.2600     2.6835 H       
  65 H65           -0.8573    -0.2336     3.3744 H       
  66 H66            0.9220     1.3333     1.9364 H       
  67 H67            0.1914     2.1104     0.5082 H       
  68 H68            0.4124     3.6473     2.5171 H       
  69 H69           -1.2555     3.4746     1.9171 H       
  70 H70           -2.8068     2.1060     3.1681 H       
  71 H71           -2.2401     1.3169     4.6607 H       
@<TRIPOS>BOND
   1    1    2 1
   2    1    3 1
   3    1   40 1
   4    1   41 1
   5    2   25 ar
   6    2   26 ar
   7    3    4 ar
   8    3    5 ar
   9    4    8 ar
  10    5    6 ar
  11    5    9 1
  12    6    7 ar
  13    6   42 1
  14    7    8 ar
  15    8   10 1
  16   10   11 1
  17   10   43 1
  18   11   12 ar
  19   11   16 ar
  20   12   13 ar
  21   12   44 1
  22   13   14 ar
  23   13   45 1
  24   14   15 ar
  25   14   17 1
  26   15   16 ar
  27   15   46 1
  28   16   47 1
  29   17   18 1
  30   17   48 1
  31   17   49 1
  32   18   19 1
  33   18   23 1
  34   19   20 1
  35   19   50 1
  36   19   51 1
  37   20   21 1
  38   20   52 1
  39   20   53 1
  40   21   22 1
  41   21   24 1
  42   22   23 1
  43   22   54 1
  44   22   55 1
  45   23   56 1
  46   23   57 1
  47   24   58 1
  48   24   59 1
  49   24   60 1
  50   25   31 1
  51   25   29 ar
  52   26   27 ar
  53   26   61 1
  54   27   28 ar
  55   27   62 1
  56   28   29 ar
  57   28   30 1
  58   29   63 1
  59   31   32 am
  60   31   33 2
  61   31   34 2
  62   32   36 1
  63   32   35 1
  64   35   39 1
  65   35   64 1
  66   35   65 1
  67   36   37 1
  68   36   66 1
  69   36   67 1
  70   37   38 1
  71   37   68 1
  72   37   69 1
  73   38   39 1
  74   39   70 1
  75   39   71 1

#	End of record

