#	Name: ASD11330001
#	Creating user name:	WinNT
#	Creation time:	15. 06. 2019 21:29

#	Modifying user name:	WinNT
#	Modification time:	15. 06. 2019 21:29

#	Program:	/corina/corina34_cracker 3.40 0067  02.08.2006

@<TRIPOS>MOLECULE
ASD11330001
  23   25    0    0    0
SMALL
NO_CHARGES


@<TRIPOS>ATOM
   1 C1            -0.0167     1.3776     0.0096 C.ar    
   2 C2             0.0021    -0.0041     0.0020 C.ar    
   3 C3             1.2062    -0.6823    -0.0134 C.ar    
   4 C4             2.4074     0.0188    -0.0216 C.ar    
   5 C5             2.3855     1.4102    -0.0125 C.ar    
   6 C6             1.1718     2.0843     0.0021 C.ar    
   7 S7             3.8848     2.3328    -0.0167 S.3     
   8 C8             5.0912     1.1533     0.4852 C.ar    
   9 C9             4.8211    -0.2105     0.4217 C.ar    
  10 N10            3.6017    -0.6976    -0.0428 N.pl3   
  11 C11            5.7925    -1.1179     0.8308 C.ar    
  12 C12            7.0159    -0.6702     1.2924 C.ar    
  13 C13            7.2828     0.6843     1.3507 C.ar    
  14 C14            6.3234     1.5951     0.9480 C.ar    
  15 H15           -0.9590     1.9051     0.0170 H       
  16 H16           -0.9266    -0.5554     0.0085 H       
  17 H17            1.2144    -1.7623    -0.0188 H       
  18 H18            1.1559     3.1642     0.0079 H       
  19 H19            3.5830    -1.5969    -0.4059 H       
  20 H20            5.5897    -2.1778     0.7878 H       
  21 H21            7.7651    -1.3809     1.6087 H       
  22 H22            8.2400     1.0314     1.7107 H       
  23 H23            6.5329     2.6535     0.9945 H       
@<TRIPOS>BOND
   1    1    2 ar
   2    1    6 ar
   3    1   15 1
   4    2    3 ar
   5    2   16 1
   6    3    4 ar
   7    3   17 1
   8    4    5 ar
   9    4   10 1
  10    5    6 ar
  11    5    7 1
  12    6   18 1
  13    7    8 1
  14    8    9 ar
  15    8   14 ar
  16    9   10 1
  17    9   11 ar
  18   10   19 1
  19   11   12 ar
  20   11   20 1
  21   12   13 ar
  22   12   21 1
  23   13   14 ar
  24   13   22 1
  25   14   23 1

#	End of record

