#	Name: ASD11940026
#	Creating user name:	WinNT
#	Creation time:	15. 06. 2019 21:29

#	Modifying user name:	WinNT
#	Modification time:	15. 06. 2019 21:29

#	Program:	/corina/corina34_cracker 3.40 0067  02.08.2006

@<TRIPOS>MOLECULE
ASD11940026
  22   23    0    0    0
SMALL
NO_CHARGES


@<TRIPOS>ATOM
   1 C1            -0.0184     1.5028     0.0103 C.3     
   2 C2             0.0021    -0.0041     0.0020 C.2     
   3 N3             0.0228    -0.8062     1.0859 N.pl3   
   4 N4             0.0364    -2.1354     0.6461 N.2     
   5 C5             0.0244    -2.1405    -0.6606 C.2     
   6 C6            -0.0030    -0.8038    -1.1032 C.2     
   7 C7            -0.0296    -0.3477    -2.5161 C.ar    
   8 C8             0.8875    -0.8578    -3.4321 C.ar    
   9 C9             0.8594    -0.4312    -4.7442 C.ar    
  10 C10           -0.0792     0.5029    -5.1509 C.ar    
  11 C11           -0.9927     1.0131    -4.2431 C.ar    
  12 C12           -0.9754     0.5872    -2.9305 C.ar    
  13 F13           -0.1033     0.9179    -6.4364 F       
  14 H14            1.0042     1.8801     0.0026 H       
  15 H15           -0.5455     1.8639    -0.8728 H       
  16 H16           -0.5286     1.8543     0.9071 H       
  17 H17            0.0280    -0.5130     2.0105 H       
  18 H18            0.0307    -3.0172    -1.2913 H       
  19 H19            1.6198    -1.5858    -3.1157 H       
  20 H20            1.5704    -0.8260    -5.4549 H       
  21 H21           -1.7224     1.7418    -4.5641 H       
  22 H22           -1.6911     0.9819    -2.2245 H       
@<TRIPOS>BOND
   1    1    2 1
   2    1   14 1
   3    1   15 1
   4    1   16 1
   5    2    3 1
   6    2    6 2
   7    3    4 1
   8    3   17 1
   9    4    5 2
  10    5    6 1
  11    5   18 1
  12    6    7 1
  13    7    8 ar
  14    7   12 ar
  15    8    9 ar
  16    8   19 1
  17    9   10 ar
  18    9   20 1
  19   10   11 ar
  20   10   13 1
  21   11   12 ar
  22   11   21 1
  23   12   22 1

#	End of record

