#	Name: ASD12600003
#	Creating user name:	WinNT
#	Creation time:	15. 06. 2019 21:30

#	Modifying user name:	WinNT
#	Modification time:	15. 06. 2019 21:30

#	Program:	/corina/corina34_cracker 3.40 0067  02.08.2006

@<TRIPOS>MOLECULE
ASD12600003
  26   26    0    0    0
SMALL
NO_CHARGES


@<TRIPOS>ATOM
   1 O1            -0.0164     1.3556     0.0095 O.3     
   2 O2             0.0700    -4.1357    -0.0113 O.3     
   3 O3            -1.3381     0.2595     5.3664 O.3     
   4 O4             0.0159    -2.7510    -2.3900 O.3     
   5 O5            -1.5029     2.2261     4.3720 O.2     
   6 N6            -1.9799     1.3219     1.9208 N.3     
   7 C7             0.0252     0.0443     2.5079 C.3     
   8 C8            -1.4130     0.3870     2.9019 C.3     
   9 C9             0.0229    -0.7036     1.1995 C.ar    
  10 C10            0.0021    -0.0041     0.0020 C.ar    
  11 C11            0.0474    -2.0856     1.1945 C.ar    
  12 C12            0.0455    -2.7751    -0.0071 C.ar    
  13 C13           -0.0005    -0.6905    -1.2028 C.ar    
  14 C14           -1.4213     1.0251     4.2670 C.2     
  15 C15            0.0183    -2.0758    -1.2096 C.ar    
  16 H16            0.6011     0.9634     2.4000 H       
  17 H17            0.4753    -0.5780     3.2813 H       
  18 H18           -2.0108    -0.5242     2.9231 H       
  19 H19            0.0685    -2.6283     2.1280 H       
  20 H20           -0.0170    -0.1457    -2.1352 H       
  21 H21           -2.9498     1.5137     2.1226 H       
  22 H22           -1.4430     2.1752     1.8823 H       
  23 H23            0.8616     1.7609     0.0033 H       
  24 H24           -0.8061    -4.5449    -0.0019 H       
  25 H25           -1.3472     0.7141     6.2198 H       
  26 H26           -0.8680    -2.9620    -2.7206 H       
@<TRIPOS>BOND
   1    1   10 1
   2    1   23 1
   3    2   12 1
   4    2   24 1
   5    3   14 1
   6    3   25 1
   7    4   15 1
   8    4   26 1
   9    5   14 2
  10    6   21 1
  11    6   22 1
  12    6    8 1
  13    7    8 1
  14    7    9 1
  15    7   16 1
  16    7   17 1
  17    8   14 1
  18    8   18 1
  19    9   10 ar
  20    9   11 ar
  21   10   13 ar
  22   11   12 ar
  23   11   19 1
  24   12   15 ar
  25   13   15 ar
  26   13   20 1

#	End of record

