#	Name: ASD11920046
#	Creating user name:	WinNT
#	Creation time:	15. 06. 2019 21:29

#	Modifying user name:	WinNT
#	Modification time:	15. 06. 2019 21:29

#	Program:	/corina/corina34_cracker 3.40 0067  02.08.2006

@<TRIPOS>MOLECULE
ASD11920046
  37   39    0    0    0
SMALL
NO_CHARGES


@<TRIPOS>ATOM
   1 C1             0.0012     1.1642     0.1781 C.ar    
   2 N2            -2.2554     0.8061    -0.0257 N.am    
   3 O3            -1.5428     2.9647    -0.1822 O.2     
   4 S4            -4.6398     0.6302    -4.4792 S.2     
   5 C5            -0.2306    -0.2205     0.3030 C.ar    
   6 N6            -3.8520    -1.8593    -3.9928 N.am    
   7 O7            -2.2824    -1.4601     0.2096 O.2     
   8 C8             0.8345    -1.0809     0.5160 C.ar    
   9 O9            -3.7973    -0.3928    -2.1775 O.3     
  10 C10            2.1212    -0.5729     0.6047 C.ar    
  11 C11            2.3484     0.7851     0.4826 C.ar    
  12 C12            1.2928     1.6577     0.2685 C.ar    
  13 C13           -1.3265     1.7792    -0.0311 C.2     
  14 C14           -1.6906    -0.4007     0.1596 C.2     
  15 C15           -3.6920     1.0305    -0.2043 C.3     
  16 C16           -4.0389     0.9543    -1.6925 C.3     
  17 C17           -4.0549    -0.6300    -3.4789 C.2     
  18 C18           -4.2030    -2.1293    -5.3200 C.ar    
  19 C19           -3.8587    -1.2362    -6.3263 C.ar    
  20 C20           -4.2066    -1.5054    -7.6354 C.ar    
  21 C21           -4.8974    -2.6633    -7.9448 C.ar    
  22 C22           -5.2417    -3.5548    -6.9447 C.ar    
  23 C23           -4.8915    -3.2938    -5.6345 C.ar    
  24 I24           -5.4237    -3.0673    -9.9320 I       
  25 H25           -3.4626    -2.5568    -3.4426 H       
  26 H26            0.6629    -2.1427     0.6128 H       
  27 H27            2.9519    -1.2428     0.7707 H       
  28 H28            3.3554     1.1689     0.5539 H       
  29 H29            1.4763     2.7177     0.1732 H       
  30 H30           -4.2492     0.2667     0.3382 H       
  31 H31           -3.9566     2.0154     0.1805 H       
  32 H32           -3.4170     1.6571    -2.2470 H       
  33 H33           -5.0894     1.2085    -1.8342 H       
  34 H34           -3.3198    -0.3319    -6.0852 H       
  35 H35           -3.9395    -0.8111    -8.4183 H       
  36 H36           -5.7809    -4.4580    -7.1892 H       
  37 H37           -5.1566    -3.9923    -4.8546 H       
@<TRIPOS>BOND
   1    1    5 ar
   2    1   12 ar
   3    1   13 1
   4    2   13 am
   5    2   14 am
   6    2   15 1
   7    3   13 2
   8    4   17 2
   9    5    8 ar
  10    5   14 1
  11    6   17 am
  12    6   18 1
  13    6   25 1
  14    7   14 2
  15    8   10 ar
  16    8   26 1
  17    9   16 1
  18    9   17 1
  19   10   11 ar
  20   10   27 1
  21   11   12 ar
  22   11   28 1
  23   12   29 1
  24   15   16 1
  25   15   30 1
  26   15   31 1
  27   16   32 1
  28   16   33 1
  29   18   19 ar
  30   18   23 ar
  31   19   20 ar
  32   19   34 1
  33   20   21 ar
  34   20   35 1
  35   21   22 ar
  36   21   24 1
  37   22   23 ar
  38   22   36 1
  39   23   37 1

#	End of record

