#	Name: ASD11000298
#	Creating user name:	WinNT
#	Creation time:	15. 06. 2019 21:29

#	Modifying user name:	WinNT
#	Modification time:	15. 06. 2019 21:29

#	Program:	/corina/corina34_cracker 3.40 0067  02.08.2006

@<TRIPOS>MOLECULE
ASD11000298
  31   33    0    0    0
SMALL
NO_CHARGES


@<TRIPOS>ATOM
   1 N1            -0.0162     1.3402     0.0094 N.am    
   2 C2             0.0021    -0.0041     0.0020 C.2     
   3 C3             1.2132    -0.7283    -0.0135 C.2     
   4 C4             2.4005    -0.0733    -0.0213 C.2     
   5 C5             2.3922     1.3908    -0.0134 C.ar    
   6 C6             3.5861     2.1197    -0.0214 C.ar    
   7 C7             3.5421     3.4992    -0.0140 C.ar    
   8 C8             2.3178     4.1638     0.0013 C.ar    
   9 C9             1.1358     3.4572     0.0093 C.ar    
  10 C10            1.1575     2.0663     0.0021 C.ar    
  11 O11           -1.0540    -0.6127     0.0093 O.2     
  12 O12            4.6992     4.2130    -0.0212 O.3     
  13 C13            4.5829     5.6373    -0.0130 C.3     
  14 C14            6.5851     6.5456    -1.2191 C.ar    
  15 C15            5.9581     6.2536    -0.0227 C.ar    
  16 C16            6.6095     6.5350     1.1686 C.ar    
  17 C17            7.8730     7.1022     1.1121 C.ar    
  18 C18            8.4382     7.3669    -0.1227 C.ar    
  19 N19            7.7881     7.0858    -1.2363 N.ar    
  20 Cl20          10.0200     8.0771    -0.2081 Cl      
  21 H21           -0.8666     1.8066     0.0160 H       
  22 H22            1.1945    -1.8081    -0.0187 H       
  23 H23            3.3320    -0.6197    -0.0328 H       
  24 H24            4.5362     1.6063    -0.0329 H       
  25 H25            2.2955     5.2435     0.0073 H       
  26 H26            0.1923     3.9827     0.0215 H       
  27 H27            4.0329     5.9620    -0.8962 H       
  28 H28            4.0496     5.9531     0.8837 H       
  29 H29            6.0858     6.3251    -2.1510 H       
  30 H30            6.1432     6.3177     2.1182 H       
  31 H31            8.4092     7.3349     2.0202 H       
@<TRIPOS>BOND
   1    1    2 am
   2    1   10 1
   3    1   21 1
   4    2    3 1
   5    2   11 2
   6    3    4 2
   7    3   22 1
   8    4    5 1
   9    4   23 1
  10    5    6 ar
  11    5   10 ar
  12    6    7 ar
  13    6   24 1
  14    7    8 ar
  15    7   12 1
  16    8    9 ar
  17    8   25 1
  18    9   10 ar
  19    9   26 1
  20   12   13 1
  21   13   15 1
  22   13   27 1
  23   13   28 1
  24   14   15 ar
  25   14   19 ar
  26   14   29 1
  27   15   16 ar
  28   16   17 ar
  29   16   30 1
  30   17   18 ar
  31   17   31 1
  32   18   19 ar
  33   18   20 1

#	End of record

