#	Name: ASD10220023
#	Creating user name:	WinNT
#	Creation time:	15. 06. 2019 21:26

#	Modifying user name:	WinNT
#	Modification time:	15. 06. 2019 21:26

#	Program:	/corina/corina34_cracker 3.40 0067  02.08.2006

@<TRIPOS>MOLECULE
ASD10220023
  34   36    0    0    0
SMALL
NO_CHARGES


@<TRIPOS>ATOM
   1 C1             0.0031     1.5136     0.4032 C.2     
   2 C2             0.0487     0.2217     0.9782 C.2     
   3 C3            -1.0791    -0.4298     1.3393 C.2     
   4 C4            -2.4059     0.1572     1.1591 C.2     
   5 C5            -2.5348     1.4201     0.6026 C.2     
   6 C6            -1.3331     2.1681     0.2003 C.2     
   7 O7            -3.6425    -0.2966     1.4390 O.3     
   8 C8            -4.5767     0.5937     1.0992 C.2     
   9 C9            -3.9736     1.7020     0.5662 C.2     
  10 O10           -1.4197     3.2749    -0.2885 O.2     
  11 O11            1.0267     2.0850     0.0839 O.2     
  12 C12           -4.6316     2.9203     0.0622 C.2     
  13 O13           -3.9615     3.8745    -0.2846 O.2     
  14 C14           -6.1035     2.9829    -0.0220 C.ar    
  15 C15           -6.7611     4.2107     0.1006 C.ar    
  16 C16           -8.1344     4.2647     0.0211 C.ar    
  17 C17           -8.8673     3.1006    -0.1809 C.ar    
  18 C18           -8.2174     1.8777    -0.3034 C.ar    
  19 C19           -6.8440     1.8154    -0.2303 C.ar    
  20 O20          -10.2209     3.1582    -0.2583 O.3     
  21 C21          -10.9118     1.9249    -0.4670 C.3     
  22 Br22           1.7245    -0.6121     1.2471 Br      
  23 Br23          -0.9364    -2.1549     2.1007 Br      
  24 C24          -12.3952     2.1838    -0.5256 C.2     
  25 O25          -13.2475     1.1643    -0.7157 O.3     
  26 O26          -12.8175     3.3090    -0.4014 O.2     
  27 H27           -5.6412     0.4611     1.2244 H       
  28 H28           -6.1925     5.1154     0.2579 H       
  29 H29           -8.6432     5.2126     0.1160 H       
  30 H30           -8.7904     0.9758    -0.4602 H       
  31 H31           -6.3399     0.8650    -0.3255 H       
  32 H32          -10.5835     1.4788    -1.4057 H       
  33 H33          -10.6942     1.2429     0.3551 H       
  34 H34          -14.1897     1.3796    -0.7461 H       
@<TRIPOS>BOND
   1    1    2 1
   2    1   11 2
   3    1    6 1
   4    2    3 2
   5    2   22 1
   6    3    4 1
   7    3   23 1
   8    4    5 2
   9    4    7 1
  10    5    6 1
  11    5    9 1
  12    6   10 2
  13    7    8 1
  14    8    9 2
  15    8   27 1
  16    9   12 1
  17   12   13 2
  18   12   14 1
  19   14   15 ar
  20   14   19 ar
  21   15   16 ar
  22   15   28 1
  23   16   17 ar
  24   16   29 1
  25   17   18 ar
  26   17   20 1
  27   18   19 ar
  28   18   30 1
  29   19   31 1
  30   20   21 1
  31   21   24 1
  32   21   32 1
  33   21   33 1
  34   24   25 1
  35   24   26 2
  36   25   34 1

#	End of record

