#	Name: ASD10410037
#	Creating user name:	WinNT
#	Creation time:	15. 06. 2019 21:26

#	Modifying user name:	WinNT
#	Modification time:	15. 06. 2019 21:26

#	Program:	/corina/corina34_cracker 3.40 0067  02.08.2006

@<TRIPOS>MOLECULE
ASD10410037
  59   62    0    0    0
SMALL
NO_CHARGES


@<TRIPOS>ATOM
   1 C1            -0.1756     1.3177    -0.5826 C.ar    
   2 N2            -0.1492    -0.0057    -0.5689 N.ar    
   3 C3             0.8514    -0.6696    -1.1424 C.ar    
   4 C4             1.8763     0.0519    -1.7607 C.ar    
   5 C5             1.8081     1.4336    -1.7511 C.ar    
   6 N6             0.7824     2.0272    -1.1613 N.ar    
   7 N7            -1.2348     1.9780     0.0186 N.pl3   
   8 C8             0.8789    -2.1524    -1.1253 C.ar    
   9 C9             0.3912    -2.8475    -0.0207 C.ar    
  10 C10            0.4192    -4.2321    -0.0111 C.ar    
  11 C11            0.9322    -4.9239    -1.1001 C.ar    
  12 C12            1.4166    -4.2349    -2.1959 C.ar    
  13 C13            1.3873    -2.8547    -2.2166 C.ar    
  14 O14           -0.0551    -4.9138     1.0647 O.3     
  15 C15            0.0047    -6.3404     1.0067 C.3     
  16 F16            1.3358    -6.7458     0.8618 F       
  17 F17           -0.5206    -6.8776     2.1868 F       
  18 F18           -0.7426    -6.7945    -0.0854 F       
  19 C19           -1.2231     3.3724     0.1187 C.ar    
  20 C20           -2.4099     4.0874     0.0191 C.ar    
  21 C21           -2.3948     5.4648     0.1183 C.ar    
  22 C22           -1.2001     6.1322     0.3166 C.ar    
  23 C23           -0.0168     5.4235     0.4162 C.ar    
  24 C24           -0.0255     4.0456     0.3236 C.ar    
  25 C25           -1.1874     7.6354     0.4239 C.3     
  26 N26           -1.3570     8.0274     1.8295 N.3     
  27 C27           -1.1143     9.4657     2.0080 C.3     
  28 C28           -1.3779     9.8476     3.4665 C.3     
  29 N29           -0.5035     9.0561     4.3432 N.3     
  30 C30           -0.7462     7.6178     4.1646 C.3     
  31 C31           -0.4826     7.2358     2.7062 C.3     
  32 C32           -0.6730     9.4481     5.7487 C.3     
  33 C33            3.0291    -0.6587    -2.4221 C.3     
  34 H34            2.5835     2.0216    -2.2194 H       
  35 H35           -1.9845     1.4727     0.3701 H       
  36 H36           -0.0072    -2.3081     0.8258 H       
  37 H37            0.9532    -6.0037    -1.0907 H       
  38 H38            1.8149    -4.7777    -3.0404 H       
  39 H39            1.7621    -2.3193    -3.0764 H       
  40 H40           -3.3432     3.5667    -0.1362 H       
  41 H41           -3.3171     6.0213     0.0406 H       
  42 H42            0.9146     5.9478     0.5711 H       
  43 H43            0.8983     3.4923     0.4059 H       
  44 H44           -0.2370     8.0182     0.0521 H       
  45 H45           -2.0029     8.0489    -0.1695 H       
  46 H46           -0.0793     9.6942     1.7536 H       
  47 H47           -1.7821    10.0307     1.3578 H       
  48 H48           -1.1705    10.9084     3.6078 H       
  49 H49           -2.4200     9.6445     3.7129 H       
  50 H50           -0.0783     7.0528     4.8149 H       
  51 H51           -1.7812     7.3893     4.4190 H       
  52 H52           -0.6899     6.1751     2.5648 H       
  53 H53            0.5596     7.4390     2.4597 H       
  54 H54           -1.7082     9.2858     6.0488 H       
  55 H55           -0.0145     8.8469     6.3756 H       
  56 H56           -0.4222    10.5025     5.8646 H       
  57 H57            2.7865    -0.8498    -3.4674 H       
  58 H58            3.9214    -0.0354    -2.3642 H       
  59 H59            3.2130    -1.6047    -1.9129 H       
@<TRIPOS>BOND
   1    1    2 ar
   2    1    6 ar
   3    1    7 1
   4    2    3 ar
   5    3    4 ar
   6    3    8 1
   7    4    5 ar
   8    4   33 1
   9    5    6 ar
  10    5   34 1
  11    7   19 1
  12    7   35 1
  13    8    9 ar
  14    8   13 ar
  15    9   10 ar
  16    9   36 1
  17   10   11 ar
  18   10   14 1
  19   11   12 ar
  20   11   37 1
  21   12   13 ar
  22   12   38 1
  23   13   39 1
  24   14   15 1
  25   15   16 1
  26   15   17 1
  27   15   18 1
  28   19   20 ar
  29   19   24 ar
  30   20   21 ar
  31   20   40 1
  32   21   22 ar
  33   21   41 1
  34   22   23 ar
  35   22   25 1
  36   23   24 ar
  37   23   42 1
  38   24   43 1
  39   25   26 1
  40   25   44 1
  41   25   45 1
  42   26   27 1
  43   26   31 1
  44   27   28 1
  45   27   46 1
  46   27   47 1
  47   28   29 1
  48   28   48 1
  49   28   49 1
  50   29   30 1
  51   29   32 1
  52   30   31 1
  53   30   50 1
  54   30   51 1
  55   31   52 1
  56   31   53 1
  57   32   54 1
  58   32   55 1
  59   32   56 1
  60   33   57 1
  61   33   58 1
  62   33   59 1

#	End of record

