#	Name: ASD15170006
#	Creating user name:	WinNT
#	Creation time:	15. 06. 2019 21:31

#	Modifying user name:	WinNT
#	Modification time:	15. 06. 2019 21:31

#	Program:	/corina/corina34_cracker 3.40 0067  02.08.2006

@<TRIPOS>MOLECULE
ASD15170006
  59   62    0    0    0
SMALL
NO_CHARGES


@<TRIPOS>ATOM
   1 O1            -0.2520     0.2214     0.5884 O.2     
   2 C2            -0.1435     1.3870     0.2620 C.2     
   3 C3            -1.3550     2.2085     0.0356 C.ar    
   4 N4            -1.2302     3.4810    -0.3209 N.ar    
   5 C5            -2.2800     4.2447    -0.5315 C.ar    
   6 C6            -2.0836     5.6834    -0.9347 C.3     
   7 C7            -1.1935     6.3842     0.0937 C.3     
   8 C8            -0.8918     7.8078    -0.3789 C.3     
   9 C9            -0.0017     8.5087     0.6495 C.3     
  10 C10           -0.7237     8.5610     1.9974 C.3     
  11 C11           -1.0254     7.1374     2.4700 C.3     
  12 C12           -1.9154     6.4366     1.4416 C.3     
  13 C13           -3.5642     3.7445    -0.3884 C.ar    
  14 C14           -3.7403     2.4204    -0.0174 C.ar    
  15 C15           -2.6162     1.6376     0.1930 C.ar    
  16 N16            1.0792     1.9336     0.1114 N.am    
  17 C17            2.2190     1.1835     0.4012 C.ar    
  18 C18            2.2010    -0.1967     0.2393 C.ar    
  19 C19            3.3242    -0.9415     0.5238 C.ar    
  20 C20            4.4866    -0.3106     0.9767 C.ar    
  21 C21            5.6892    -1.1082     1.2807 C.2     
  22 O22            6.6990    -0.5589     1.6743 O.2     
  23 O23            5.6681    -2.4462     1.1221 O.3     
  24 C24            4.5075     1.0773     1.1404 C.ar    
  25 C25            3.3790     1.8217     0.8485 C.ar    
  26 N26            3.3972     3.2120     1.0059 N.pl3   
  27 C27            4.4939     3.8324     1.6088 C.ar    
  28 C28            4.9921     5.0218     1.0917 C.ar    
  29 C29            6.0730     5.6354     1.6935 C.ar    
  30 C30            6.6595     5.0672     2.8097 C.ar    
  31 C31            6.1662     3.8834     3.3270 C.ar    
  32 C32            5.0856     3.2644     2.7302 C.ar    
  33 H33           -1.6082     5.7245    -1.9147 H       
  34 H34           -3.0510     6.1837    -0.9789 H       
  35 H35           -0.2601     5.8321     0.2026 H       
  36 H36           -0.3775     7.7705    -1.3392 H       
  37 H37           -1.8252     8.3600    -0.4878 H       
  38 H38            0.9317     7.9565     0.7585 H       
  39 H39            0.2132     9.5228     0.3128 H       
  40 H40           -0.0896     9.0603     2.7301 H       
  41 H41           -1.6571     9.1131     1.8885 H       
  42 H42           -0.0919     6.5852     2.5789 H       
  43 H43           -1.5397     7.1747     3.4303 H       
  44 H44           -2.8489     6.9887     1.3327 H       
  45 H45           -2.1304     5.4224     1.7783 H       
  46 H46           -4.4196     4.3800    -0.5637 H       
  47 H47           -4.7311     2.0061     0.0974 H       
  48 H48           -2.7163     0.6020     0.4825 H       
  49 H49            1.1666     2.8486    -0.1986 H       
  50 H50            1.3041    -0.6864    -0.1102 H       
  51 H51            3.3068    -2.0139     0.3972 H       
  52 H52            6.4803    -2.9262     1.3341 H       
  53 H53            5.4038     1.5677     1.4905 H       
  54 H54            2.6481     3.7450     0.6964 H       
  55 H55            4.5348     5.4659     0.2199 H       
  56 H56            6.4610     6.5598     1.2919 H       
  57 H57            7.5049     5.5490     3.2782 H       
  58 H58            6.6266     3.4424     4.1988 H       
  59 H59            4.6981     2.3422     3.1374 H       
@<TRIPOS>BOND
   1    1    2 2
   2    2   16 am
   3    2    3 1
   4    3    4 ar
   5    3   15 ar
   6    4    5 ar
   7    5    6 1
   8    5   13 ar
   9    6   33 1
  10    6   34 1
  11    6    7 1
  12    7    8 1
  13    7   35 1
  14    7   12 1
  15    8   36 1
  16    8   37 1
  17    8    9 1
  18    9   38 1
  19    9   39 1
  20    9   10 1
  21   10   40 1
  22   10   41 1
  23   10   11 1
  24   11   12 1
  25   11   42 1
  26   11   43 1
  27   12   44 1
  28   12   45 1
  29   13   46 1
  30   13   14 ar
  31   14   15 ar
  32   14   47 1
  33   15   48 1
  34   16   17 1
  35   16   49 1
  36   17   25 ar
  37   17   18 ar
  38   18   19 ar
  39   18   50 1
  40   19   20 ar
  41   19   51 1
  42   20   21 1
  43   20   24 ar
  44   21   23 1
  45   21   22 2
  46   23   52 1
  47   24   53 1
  48   24   25 ar
  49   25   26 1
  50   26   54 1
  51   26   27 1
  52   27   32 ar
  53   27   28 ar
  54   28   55 1
  55   28   29 ar
  56   29   30 ar
  57   29   56 1
  58   30   31 ar
  59   30   57 1
  60   31   32 ar
  61   31   58 1
  62   32   59 1

#	End of record

