#	Name: ASD13350002
#	Creating user name:	WinNT
#	Creation time:	15. 06. 2019 21:30

#	Modifying user name:	WinNT
#	Modification time:	15. 06. 2019 21:30

#	Program:	/corina/corina34_cracker 3.40 0067  02.08.2006

@<TRIPOS>MOLECULE
ASD13350002
  40   42    0    0    0
SMALL
NO_CHARGES


@<TRIPOS>ATOM
   1 N1            -0.0160     1.3258     0.0093 N.ar    
   2 C2             0.0021    -0.0041     0.0020 C.ar    
   3 N3             1.1627    -0.6528    -0.0125 N.ar    
   4 C4             2.3047     0.0282    -0.0198 C.ar    
   5 N5             2.2862     1.3570    -0.0125 N.ar    
   6 C6             1.1262     2.0059     0.0021 C.ar    
   7 C7            -1.2717    -0.7631     0.0106 C.ar    
   8 C8            -1.2556    -2.1571     0.0030 C.ar    
   9 C9            -2.4441    -2.8581     0.0110 C.ar    
  10 C10           -3.6501    -2.1803     0.0265 C.ar    
  11 C11           -3.6721    -0.7974     0.0342 C.ar    
  12 C12           -2.4895    -0.0856     0.0321 C.ar    
  13 C13            0.0572    -2.8969    -0.0145 C.3     
  14 O14           -0.1893    -4.3045    -0.0195 O.3     
  15 N15            1.1076     3.3859     0.0097 N.pl3   
  16 C16            2.3663     4.1355     0.0017 C.3     
  17 C17            2.0710     5.6133     0.0124 C.ar    
  18 C18            1.6477     7.6518    -1.1698 C.ar    
  19 C19            1.9185     6.2963    -1.1797 C.ar    
  20 C20            1.9470     6.2846     1.2144 C.ar    
  21 C21            1.6762     7.6401     1.2243 C.ar    
  22 C22            1.5298     8.3244     0.0322 C.ar    
  23 N23            3.5095    -0.6451    -0.0345 N.pl3   
  24 H24           -2.4329    -3.9381     0.0047 H       
  25 H25           -4.5778    -2.7331     0.0324 H       
  26 H26           -4.6165    -0.2735     0.0463 H       
  27 H27           -2.5079     0.9942     0.0430 H       
  28 H28            0.6168    -2.6228    -0.9088 H       
  29 H29            0.6351    -2.6324     0.8710 H       
  30 H30            0.6130    -4.8442    -0.0306 H       
  31 H31            0.2612     3.8595     0.0203 H       
  32 H32            2.9498     3.8752     0.8847 H       
  33 H33            2.9328     3.8847    -0.8951 H       
  34 H34            1.5289     8.1856    -2.1012 H       
  35 H35            2.0114     5.7710    -2.1187 H       
  36 H36            2.0613     5.7500     2.1458 H       
  37 H37            1.5786     8.1645     2.1634 H       
  38 H38            1.3181     9.3834     0.0399 H       
  39 H39            3.5230    -1.6150    -0.0395 H       
  40 H40            4.3426    -0.1484    -0.0397 H       
@<TRIPOS>BOND
   1    1    2 ar
   2    1    6 ar
   3    2    3 ar
   4    2    7 1
   5    3    4 ar
   6    4    5 ar
   7    4   23 1
   8    5    6 ar
   9    6   15 1
  10    7    8 ar
  11    7   12 ar
  12    8    9 ar
  13    8   13 1
  14    9   10 ar
  15    9   24 1
  16   10   11 ar
  17   10   25 1
  18   11   12 ar
  19   11   26 1
  20   12   27 1
  21   13   14 1
  22   13   28 1
  23   13   29 1
  24   14   30 1
  25   15   16 1
  26   15   31 1
  27   16   17 1
  28   16   32 1
  29   16   33 1
  30   17   20 ar
  31   17   19 ar
  32   18   19 ar
  33   18   22 ar
  34   18   34 1
  35   19   35 1
  36   20   21 ar
  37   20   36 1
  38   21   22 ar
  39   21   37 1
  40   22   38 1
  41   23   39 1
  42   23   40 1

#	End of record

