#	Name: ASD10950031
#	Creating user name:	WinNT
#	Creation time:	15. 06. 2019 21:28

#	Modifying user name:	WinNT
#	Modification time:	15. 06. 2019 21:28

#	Program:	/corina/corina34_cracker 3.40 0067  02.08.2006

@<TRIPOS>MOLECULE
ASD10950031
  54   57    0    0    0
SMALL
NO_CHARGES


@<TRIPOS>ATOM
   1 C1            -0.0176     1.4478     0.0100 C.3     
   2 O2             0.0021    -0.0041     0.0020 O.3     
   3 C3             0.6007    -0.6020    -1.0468 C.2     
   4 O4             1.0927     0.0714    -1.9304 O.2     
   5 C5             0.6586    -2.0730    -1.1220 C.ar    
   6 C6             0.0941    -2.8513    -0.1082 C.ar    
   7 C7             0.1513    -4.2261    -0.1850 C.ar    
   8 C8             0.7665    -4.8410    -1.2629 C.ar    
   9 C9             1.3289    -4.0840    -2.2718 C.ar    
  10 C10            1.2754    -2.6996    -2.2145 C.ar    
  11 O11            1.8274    -1.9548    -3.2047 O.3     
  12 C12            0.8229    -6.3452    -1.3350 C.3     
  13 N13            1.0954    -6.9040    -0.0057 N.am    
  14 C14            2.2874    -6.6508     0.8075 C.3     
  15 C15            2.0462    -5.4319     1.7003 C.3     
  16 C16            3.2724    -5.1714     2.5367 C.2     
  17 C17            3.4904    -5.6012     3.7896 C.2     
  18 N18            4.7140    -5.1698     4.2244 N.pl3   
  19 C19            5.3287    -4.4333     3.2368 C.ar    
  20 C20            4.4552    -4.4066     2.1345 C.ar    
  21 C21            4.8204    -3.7235     0.9727 C.ar    
  22 C22            6.0261    -3.0837     0.9126 C.ar    
  23 C23            6.8919    -3.1075     1.9977 C.ar    
  24 C24            6.5531    -3.7781     3.1522 C.ar    
  25 C25            0.0576    -7.6893     0.3350 C.2     
  26 O26           -0.0376    -8.3058     1.3774 O.2     
  27 C27           -0.9511    -7.6905    -0.7475 C.2     
  28 C28           -0.5192    -6.8955    -1.7575 C.2     
  29 C29           -1.1950    -6.6322    -2.9726 C.2     
  30 O30           -2.2749    -7.1421    -3.1892 O.2     
  31 C31           -0.5738    -5.7187    -3.9976 C.3     
  32 O32           -2.1170    -8.3743    -0.7318 O.3     
  33 H33            1.0050     1.8251     0.0023 H       
  34 H34           -0.5448     1.8089    -0.8731 H       
  35 H35           -0.5278     1.7993     0.9068 H       
  36 H36           -0.3860    -2.3762     0.7345 H       
  37 H37           -0.2853    -4.8268     0.5992 H       
  38 H38            1.8072    -4.5710    -3.1088 H       
  39 H39            1.2196    -1.7505    -3.9285 H       
  40 H40            1.5951    -6.6576    -2.0381 H       
  41 H41            2.4945    -7.5215     1.4295 H       
  42 H42            3.1389    -6.4599     0.1543 H       
  43 H43            1.8390    -4.5611     1.0782 H       
  44 H44            1.1947    -5.6227     2.3534 H       
  45 H45            2.8018    -6.1984     4.3689 H       
  46 H46            5.0918    -5.3550     5.0984 H       
  47 H47            4.1523    -3.7013     0.1244 H       
  48 H48            6.3081    -2.5555     0.0138 H       
  49 H49            7.8417    -2.5973     1.9349 H       
  50 H50            7.2335    -3.7908     3.9909 H       
  51 H51            0.3873    -5.3596    -3.6294 H       
  52 H52           -0.4248    -6.2654    -4.9287 H       
  53 H53           -1.2345    -4.8703    -4.1761 H       
  54 H54           -2.2595    -8.8903     0.0735 H       
@<TRIPOS>BOND
   1    1    2 1
   2    1   33 1
   3    1   34 1
   4    1   35 1
   5    2    3 1
   6    3    4 2
   7    3    5 1
   8    5    6 ar
   9    5   10 ar
  10    6    7 ar
  11    6   36 1
  12    7    8 ar
  13    7   37 1
  14    8    9 ar
  15    8   12 1
  16    9   10 ar
  17    9   38 1
  18   10   11 1
  19   11   39 1
  20   12   13 1
  21   12   28 1
  22   12   40 1
  23   13   14 1
  24   13   25 am
  25   14   15 1
  26   14   41 1
  27   14   42 1
  28   15   16 1
  29   15   43 1
  30   15   44 1
  31   16   17 2
  32   16   20 1
  33   17   18 1
  34   17   45 1
  35   18   19 1
  36   18   46 1
  37   19   20 ar
  38   19   24 ar
  39   20   21 ar
  40   21   22 ar
  41   21   47 1
  42   22   23 ar
  43   22   48 1
  44   23   24 ar
  45   23   49 1
  46   24   50 1
  47   25   26 2
  48   25   27 1
  49   27   28 2
  50   27   32 1
  51   28   29 1
  52   29   30 2
  53   29   31 1
  54   31   51 1
  55   31   52 1
  56   31   53 1
  57   32   54 1

#	End of record

