#	Name: ASD10610131
#	Creating user name:	WinNT
#	Creation time:	15. 06. 2019 21:28

#	Modifying user name:	WinNT
#	Modification time:	15. 06. 2019 21:28

#	Program:	/corina/corina34_cracker 3.40 0067  02.08.2006

@<TRIPOS>MOLECULE
ASD10610131
  20   20    0    0    0
SMALL
NO_CHARGES


@<TRIPOS>ATOM
   1 C1            -0.0184     1.5028     0.0103 C.2     
   2 C2             0.0021    -0.0041     0.0020 C.3     
   3 C3             1.4513    -0.4944    -0.0145 C.3     
   4 O4             1.0236     2.1234     0.0037 O.2     
   5 Cl5            1.4757    -2.2972    -0.0244 Cl      
   6 C6            -1.3006     2.2200     0.0203 C.ar    
   7 C7            -1.3241     3.6217     0.0280 C.ar    
   8 C8            -2.5350     4.2872     0.0369 C.ar    
   9 C9            -3.7204     3.5730     0.0386 C.ar    
  10 C10           -3.7036     2.1871     0.0310 C.ar    
  11 C11           -2.5053     1.5078     0.0163 C.ar    
  12 F12           -0.1671     4.3192     0.0272 F       
  13 Br13          -5.3724     4.4931     0.0520 Br      
  14 H14           -0.4983    -0.3791     0.8948 H       
  15 H15           -0.5153    -0.3696    -0.8850 H       
  16 H16            1.9516    -0.1193    -0.9073 H       
  17 H17            1.9686    -0.1289     0.8726 H       
  18 H18           -2.5565     5.3670     0.0429 H       
  19 H19           -4.6335     1.6377     0.0324 H       
  20 H20           -2.4955     0.4279     0.0062 H       
@<TRIPOS>BOND
   1    1    2 1
   2    1    4 2
   3    1    6 1
   4    2    3 1
   5    2   14 1
   6    2   15 1
   7    3    5 1
   8    3   16 1
   9    3   17 1
  10    6    7 ar
  11    6   11 ar
  12    7    8 ar
  13    7   12 1
  14    8    9 ar
  15    8   18 1
  16    9   10 ar
  17    9   13 1
  18   10   11 ar
  19   10   19 1
  20   11   20 1

#	End of record

