#	Name: ASD13010051
#	Creating user name:	WinNT
#	Creation time:	15. 06. 2019 21:30

#	Modifying user name:	WinNT
#	Modification time:	15. 06. 2019 21:30

#	Program:	/corina/corina34_cracker 3.40 0067  02.08.2006

@<TRIPOS>MOLECULE
ASD13010051
  43   46    0    0    0
SMALL
NO_CHARGES


@<TRIPOS>ATOM
   1 C1            -0.0164     1.3607    -0.0052 C.ar    
   2 C2             0.0026    -0.0053    -0.0122 C.ar    
   3 C3             1.2077    -0.6946    -0.0229 C.ar    
   4 C4             2.4049    -0.0134    -0.0267 C.ar    
   5 C5             2.4074     1.3777    -0.0201 C.ar    
   6 C6             1.1850     2.0712    -0.0093 C.ar    
   7 N7             3.4060     2.3273    -0.0208 N.am    
   8 N8             2.8290     3.6012    -0.0110 N.2     
   9 C9             1.5222     3.5012    -0.0038 C.2     
  10 C10            0.5597     4.6260     0.0082 C.ar    
  11 C11            0.8631     5.7966     0.7062 C.ar    
  12 C12           -0.0309     6.8426     0.7180 C.ar    
  13 C13           -1.2433     6.7330     0.0307 C.ar    
  14 C14           -1.5463     5.5607    -0.6679 C.ar    
  15 C15           -0.6485     4.5179    -0.6832 C.ar    
  16 C16           -2.2029     7.8540     0.0431 C.2     
  17 O17           -1.9394     8.8725     0.6507 O.2     
  18 O18           -3.3714     7.7479    -0.6195 O.3     
  19 C19            4.7288     2.0693    -0.0287 C.2     
  20 C20            5.6964     3.1783    -0.1425 C.ar    
  21 O21            5.1250     0.9238     0.0577 O.2     
  22 C22            6.2059     3.5399    -1.3921 C.ar    
  23 C23            7.1090     4.5770    -1.4911 C.ar    
  24 C24            7.5116     5.2603    -0.3565 C.ar    
  25 C25            7.0126     4.9087     0.8843 C.ar    
  26 C26            6.1028     3.8756     0.9987 C.ar    
  27 Cl27           5.4712     3.4402     2.5559 Cl      
  28 C28            5.7698     2.7976    -2.6289 C.3     
  29 F29            6.4118     3.3385    -3.7481 F       
  30 F30            6.1083     1.4458    -2.5052 F       
  31 F31            4.3846     2.9193    -2.7818 F       
  32 H32           -0.9582     1.8893    -0.0010 H       
  33 H33           -0.9279    -0.5537    -0.0090 H       
  34 H34            1.2065    -1.7745    -0.0279 H       
  35 H35            3.3380    -0.5571    -0.0343 H       
  36 H36            1.7997     5.8809     1.2374 H       
  37 H37            0.2038     7.7478     1.2582 H       
  38 H38           -2.4827     5.4751    -1.1991 H       
  39 H39           -0.8805     3.6138    -1.2266 H       
  40 H40           -3.9677     8.5083    -0.5824 H       
  41 H41            7.5036     4.8569    -2.4567 H       
  42 H42            8.2193     6.0717    -0.4407 H       
  43 H43            7.3315     5.4459     1.7653 H       
@<TRIPOS>BOND
   1    1    2 ar
   2    1    6 ar
   3    1   32 1
   4    2    3 ar
   5    2   33 1
   6    3    4 ar
   7    3   34 1
   8    4    5 ar
   9    4   35 1
  10    5    7 1
  11    5    6 ar
  12    6    9 1
  13    7    8 1
  14    7   19 am
  15    8    9 2
  16    9   10 1
  17   10   11 ar
  18   10   15 ar
  19   11   12 ar
  20   11   36 1
  21   12   13 ar
  22   12   37 1
  23   13   14 ar
  24   13   16 1
  25   14   15 ar
  26   14   38 1
  27   15   39 1
  28   16   17 2
  29   16   18 1
  30   18   40 1
  31   19   20 1
  32   19   21 2
  33   20   22 ar
  34   20   26 ar
  35   22   23 ar
  36   22   28 1
  37   23   24 ar
  38   23   41 1
  39   24   25 ar
  40   24   42 1
  41   25   26 ar
  42   25   43 1
  43   26   27 1
  44   28   29 1
  45   28   30 1
  46   28   31 1

#	End of record

