#	Name: ASD10610077
#	Creating user name:	WinNT
#	Creation time:	15. 06. 2019 21:27

#	Modifying user name:	WinNT
#	Modification time:	15. 06. 2019 21:27

#	Program:	/corina/corina34_cracker 3.40 0067  02.08.2006

@<TRIPOS>MOLECULE
ASD10610077
  48   52    0    0    0
SMALL
NO_CHARGES


@<TRIPOS>ATOM
   1 C1            -0.0187     1.5258     0.0104 C.3     
   2 C2             0.0021    -0.0041     0.0020 C.3     
   3 C3             1.3165     0.7789    -0.0063 C.3     
   4 C4            -0.4420     2.2229    -1.2568 C.2     
   5 O5            -0.3149     1.6661    -2.3267 O.2     
   6 N6            -0.9617     3.4652    -1.2012 N.am    
   7 C7            -2.3315     6.3674    -2.8056 C.ar    
   8 C8            -2.4308     5.1690    -2.1075 C.ar    
   9 C9            -1.3732     4.1429    -2.4331 C.3     
  10 C10           -0.1458     4.8164    -3.0774 C.3     
  11 S11           -0.9215     6.2708    -3.8788 S.3     
  12 C12           -3.4765     5.0283    -1.1921 C.ar    
  13 C13           -4.3853     6.0392    -0.9864 C.ar    
  14 C14           -4.2807     7.2365    -1.6933 C.ar    
  15 C15           -3.2403     7.3942    -2.6050 C.ar    
  16 C16           -5.2611     8.3271    -1.4747 C.ar    
  17 C17           -6.6378     8.0566    -1.5163 C.ar    
  18 C18           -7.5498     9.0901    -1.3093 C.ar    
  19 C19           -7.0957    10.3733    -1.0649 C.ar    
  20 C20           -5.7372    10.6384    -1.0242 C.ar    
  21 C21           -4.8209     9.6228    -1.2218 C.ar    
  22 N22           -8.3753     6.2828    -1.8461 N.2     
  23 N23           -8.3770     5.0177    -2.0916 N.pl3   
  24 N24           -7.1629     4.5996    -2.1825 N.2     
  25 N25           -6.3623     5.5935    -1.9960 N.2     
  26 C26           -7.1193     6.6790    -1.7793 C.2     
  27 C27           -9.5732     4.1855    -2.2427 C.3     
  28 F28           -8.8766     8.8386    -1.3480 F       
  29 Cl29          -5.1819    12.2541    -0.7163 Cl      
  30 N30           -0.4076     2.1920     1.2606 N.3     
  31 H31           -0.2728    -0.5162     0.9241 H       
  32 H32           -0.2904    -0.5063    -0.9201 H       
  33 H33            1.8888     0.7918    -0.9339 H       
  34 H34            1.9064     0.7818     0.9103 H       
  35 H35           -1.0634     3.9105    -0.3455 H       
  36 H36           -1.7850     3.4095    -3.1265 H       
  37 H37            0.5755     5.1239    -2.3202 H       
  38 H38            0.3180     4.1624    -3.8158 H       
  39 H39           -3.5731     4.1077    -0.6356 H       
  40 H40           -5.1852     5.9050    -0.2733 H       
  41 H41           -3.1448     8.3154    -3.1606 H       
  42 H42           -7.8042    11.1726    -0.9052 H       
  43 H43           -3.7627     9.8357    -1.1840 H       
  44 H44           -9.8786     4.1749    -3.2890 H       
  45 H45           -9.3518     3.1687    -1.9185 H       
  46 H46          -10.3793     4.5938    -1.6331 H       
  47 H47           -0.3879     3.1954     1.1569 H       
  48 H48           -1.3151     1.8782     1.5704 H       
@<TRIPOS>BOND
   1    1    2 1
   2    1    3 1
   3    1    4 1
   4    1   30 1
   5    2    3 1
   6    2   31 1
   7    2   32 1
   8    3   33 1
   9    3   34 1
  10    4    5 2
  11    4    6 am
  12    6    9 1
  13    6   35 1
  14    7    8 ar
  15    7   11 1
  16    7   15 ar
  17    8    9 1
  18    8   12 ar
  19    9   10 1
  20    9   36 1
  21   10   11 1
  22   10   37 1
  23   10   38 1
  24   12   13 ar
  25   12   39 1
  26   13   14 ar
  27   13   40 1
  28   14   15 ar
  29   14   16 1
  30   15   41 1
  31   16   17 ar
  32   16   21 ar
  33   17   18 ar
  34   17   26 1
  35   18   19 ar
  36   18   28 1
  37   19   20 ar
  38   19   42 1
  39   20   21 ar
  40   20   29 1
  41   21   43 1
  42   22   23 1
  43   22   26 2
  44   23   24 1
  45   23   27 1
  46   24   25 2
  47   25   26 1
  48   27   44 1
  49   27   45 1
  50   27   46 1
  51   30   47 1
  52   30   48 1

#	End of record

