#	Name: ASD15280013
#	Creating user name:	WinNT
#	Creation time:	15. 06. 2019 21:31

#	Modifying user name:	WinNT
#	Modification time:	15. 06. 2019 21:31

#	Program:	/corina/corina34_cracker 3.40 0067  02.08.2006

@<TRIPOS>MOLECULE
ASD15280013
  55   59    0    0    0
SMALL
NO_CHARGES


@<TRIPOS>ATOM
   1 O1            -0.0163     1.3545     0.0095 O.3     
   2 C2             0.0021    -0.0041     0.0020 C.ar    
   3 C3             0.0057    -0.6902    -1.2049 C.ar    
   4 C4             0.0244    -2.0691    -1.2156 C.ar    
   5 C5             0.0396    -2.7739    -0.0132 C.ar    
   6 C6             0.0359    -2.0823     1.1969 C.ar    
   7 C7             0.0230    -0.7032     1.2013 C.ar    
   8 C8             0.0593    -4.2573    -0.0214 C.ar    
   9 C9             0.0683    -4.9498    -1.2304 C.ar    
  10 C10            0.0871    -6.3301    -1.2321 C.ar    
  11 C11            0.0969    -7.0255    -0.0366 C.ar    
  12 C12            0.0875    -6.3431     1.1667 C.ar    
  13 C13            0.0977    -7.1079     2.4652 C.3     
  14 N14            1.4821    -7.3369     2.8861 N.am    
  15 C15            1.7374    -8.0061     4.0279 C.2     
  16 O16            0.8189    -8.4195     4.7083 O.2     
  17 C17            3.1346    -8.2373     4.4527 C.ar    
  18 C18            4.1898    -7.7579     3.6749 C.ar    
  19 C19            5.4905    -7.9729     4.0826 C.ar    
  20 C20            5.7511    -8.6635     5.2507 C.ar    
  21 C21            4.7141    -9.1559     6.0319 C.ar    
  22 N22            4.9441    -9.8721     7.1921 N.am    
  23 C23            5.7606    -9.6617     8.1890 C.2     
  24 O24            5.7019   -10.4785     9.0874 O.2     
  25 C25            6.7367    -8.5883     8.3855 C.ar    
  26 C26            6.8483    -7.9738     9.6387 C.ar    
  27 C27            7.7682    -6.9669     9.8361 C.ar    
  28 C28            8.5884    -6.5561     8.8006 C.ar    
  29 C29            8.4855    -7.1552     7.5567 C.ar    
  30 C30            7.5670    -8.1595     7.3483 C.ar    
  31 S31            7.4227    -8.9133     5.7601 S.o2    
  32 O32            7.5805   -10.3113     5.9599 O.2     
  33 O33            8.2335    -8.1523     4.8755 O.2     
  34 C34            3.3992    -8.9284     5.6320 C.ar    
  35 C35            0.0745    -4.9632     1.1803 C.ar    
  36 H36            0.8616     1.7598     0.0033 H       
  37 H37           -0.0065    -0.1436    -2.1363 H       
  38 H38            0.0269    -2.6024    -2.1548 H       
  39 H39            0.0477    -2.6257     2.1301 H       
  40 H40            0.0245    -0.1667     2.1386 H       
  41 H41            0.0604    -4.4078    -2.1645 H       
  42 H42            0.0938    -6.8679    -2.1686 H       
  43 H43            0.1115    -8.1054    -0.0426 H       
  44 H44           -0.4241    -6.5325     3.2299 H       
  45 H45           -0.4032    -8.0660     2.3265 H       
  46 H46            2.2150    -7.0070     2.3431 H       
  47 H47            3.9895    -7.2220     2.7588 H       
  48 H48            6.3092    -7.5996     3.4854 H       
  49 H49            4.4029   -10.6722     7.2813 H       
  50 H50            6.2119    -8.2893    10.4522 H       
  51 H51            7.8491    -6.4956    10.8045 H       
  52 H52            9.3086    -5.7678     8.9624 H       
  53 H53            9.1260    -6.8339     6.7486 H       
  54 H54            2.5822    -9.2934     6.2366 H       
  55 H55            0.0721    -4.4314     2.1202 H       
@<TRIPOS>BOND
   1    1    2 1
   2    1   36 1
   3    2    7 ar
   4    2    3 ar
   5    3    4 ar
   6    3   37 1
   7    4    5 ar
   8    4   38 1
   9    5    6 ar
  10    5    8 1
  11    6    7 ar
  12    6   39 1
  13    7   40 1
  14    8   35 ar
  15    8    9 ar
  16    9   10 ar
  17    9   41 1
  18   10   11 ar
  19   10   42 1
  20   11   12 ar
  21   11   43 1
  22   12   13 1
  23   12   35 ar
  24   13   14 1
  25   13   44 1
  26   13   45 1
  27   14   15 am
  28   14   46 1
  29   15   16 2
  30   15   17 1
  31   17   34 ar
  32   17   18 ar
  33   18   19 ar
  34   18   47 1
  35   19   20 ar
  36   19   48 1
  37   20   31 1
  38   20   21 ar
  39   21   22 1
  40   21   34 ar
  41   22   23 am
  42   22   49 1
  43   23   24 2
  44   23   25 1
  45   25   30 ar
  46   25   26 ar
  47   26   27 ar
  48   26   50 1
  49   27   28 ar
  50   27   51 1
  51   28   29 ar
  52   28   52 1
  53   29   30 ar
  54   29   53 1
  55   30   31 1
  56   31   32 2
  57   31   33 2
  58   34   54 1
  59   35   55 1

#	End of record

