#	Name: ASD10438011
#	Creating user name:	WinNT
#	Creation time:	15. 06. 2019 21:27

#	Modifying user name:	WinNT
#	Modification time:	15. 06. 2019 21:27

#	Program:	/corina/corina34_cracker 3.40 0067  02.08.2006

@<TRIPOS>MOLECULE
ASD10438011
  44   46    0    0    0
SMALL
NO_CHARGES


@<TRIPOS>ATOM
   1 C1            -0.0173     1.4248     0.0099 C.3     
   2 O2             0.0021    -0.0041     0.0020 O.3     
   3 C3             1.3965     1.9464    -0.0008 C.ar    
   4 C4             1.6978     3.1097    -0.6847 C.ar    
   5 C5             2.9930     3.5899    -0.6960 C.ar    
   6 C6             3.9918     2.9039    -0.0205 C.ar    
   7 C7             3.6870     1.7369     0.6650 C.ar    
   8 C8             2.3891     1.2639     0.6779 C.ar    
   9 O9             5.2669     3.3741    -0.0305 O.3     
  10 C10            6.2434     2.6162     0.6865 C.3     
  11 C11            7.6086     3.2956     0.5617 C.3     
  12 N12            7.5669     4.6045     1.2274 N.3     
  13 C13            8.9179     5.1848     1.3371 C.3     
  14 C14            8.8800     6.5650     0.6479 C.3     
  15 C15            7.3735     6.9337     0.6866 C.3     
  16 C16            6.7074     5.5500     0.4837 C.3     
  17 C17           -2.2128     3.4136     2.3547 C.ar    
  18 C18           -1.5836     2.9963     1.1971 C.ar    
  19 C19           -0.7227     1.9108     1.2498 C.ar    
  20 C20           -0.5265     1.2827     2.4702 C.ar    
  21 C21           -1.1909     1.7562     3.5857 C.ar    
  22 N22           -2.0024     2.7920     3.4985 N.ar    
  23 H23           -0.5445     1.7859    -0.8732 H       
  24 H24            0.4564    -0.3954     0.7607 H       
  25 H25            0.9199     3.6432    -1.2107 H       
  26 H26            3.2279     4.4985    -1.2306 H       
  27 H27            4.4628     1.2011     1.1916 H       
  28 H28            2.1503     0.3580     1.2153 H       
  29 H29            5.9601     2.5604     1.7376 H       
  30 H30            6.2991     1.6100     0.2713 H       
  31 H31            8.3690     2.6726     1.0326 H       
  32 H32            7.8518     3.4316    -0.4921 H       
  33 H33            9.1871     5.3018     2.3868 H       
  34 H34            9.6402     4.5400     0.8364 H       
  35 H35            9.4691     7.2915     1.2075 H       
  36 H36            9.2325     6.4918    -0.3810 H       
  37 H37            7.1008     7.3606     1.6517 H       
  38 H38            7.1169     7.6135    -0.1259 H       
  39 H39            6.6855     5.2909    -0.5748 H       
  40 H40            5.6984     5.5505     0.8961 H       
  41 H41           -2.8814     4.2612     2.3230 H       
  42 H42           -1.7603     3.5093     0.2633 H       
  43 H43            0.1368     0.4340     2.5480 H       
  44 H44           -1.0435     1.2725     4.5401 H       
@<TRIPOS>BOND
   1    1    2 1
   2    1    3 1
   3    1   19 1
   4    1   23 1
   5    2   24 1
   6    3    4 ar
   7    3    8 ar
   8    4    5 ar
   9    4   25 1
  10    5    6 ar
  11    5   26 1
  12    6    7 ar
  13    6    9 1
  14    7    8 ar
  15    7   27 1
  16    8   28 1
  17    9   10 1
  18   10   11 1
  19   10   29 1
  20   10   30 1
  21   11   12 1
  22   11   31 1
  23   11   32 1
  24   12   13 1
  25   12   16 1
  26   13   14 1
  27   13   33 1
  28   13   34 1
  29   14   15 1
  30   14   35 1
  31   14   36 1
  32   15   16 1
  33   15   37 1
  34   15   38 1
  35   16   39 1
  36   16   40 1
  37   17   18 ar
  38   17   22 ar
  39   17   41 1
  40   18   19 ar
  41   18   42 1
  42   19   20 ar
  43   20   21 ar
  44   20   43 1
  45   21   22 ar
  46   21   44 1

#	End of record

