#	Name: ASD10410047
#	Creating user name:	WinNT
#	Creation time:	15. 06. 2019 21:26

#	Modifying user name:	WinNT
#	Modification time:	15. 06. 2019 21:26

#	Program:	/corina/corina34_cracker 3.40 0067  02.08.2006

@<TRIPOS>MOLECULE
ASD10410047
  55   58    0    0    0
SMALL
NO_CHARGES


@<TRIPOS>ATOM
   1 C1            -0.2180     1.7167     1.0893 C.ar    
   2 C2            -0.2710     0.4689     0.4696 C.ar    
   3 C3             1.0495     2.4855     1.1057 C.ar    
   4 N4             2.2193     1.8579     1.2035 N.ar    
   5 C5             1.0349     3.8802     1.0131 C.ar    
   6 C6             2.2424     4.5545     1.0327 C.ar    
   7 N7             3.3676     3.8651     1.1377 N.ar    
   8 C8             3.3522     2.5425     1.2184 C.ar    
   9 N9             4.5524     1.8590     1.3273 N.pl3   
  10 C10            5.7628     2.5523     1.2328 C.ar    
  11 C11            6.8558     2.1509     1.9900 C.ar    
  12 C12            8.0500     2.8380     1.8943 C.ar    
  13 C13            8.1582     3.9245     1.0458 C.ar    
  14 C14            7.0719     4.3269     0.2906 C.ar    
  15 C15            5.8766     3.6406     0.3772 C.ar    
  16 C16            9.4628     4.6722     0.9444 C.3     
  17 N17           10.2886     4.0748    -0.1135 N.3     
  18 C18           11.4594     4.9138    -0.4047 C.3     
  19 C19           12.3332     4.2198    -1.4522 C.3     
  20 N20           11.5421     3.9843    -2.6681 N.3     
  21 C21           10.3713     3.1453    -2.3769 C.3     
  22 C22            9.4975     3.8393    -1.3294 C.3     
  23 C23           12.3679     3.3869    -3.7259 C.3     
  24 C24           -1.4526    -0.2426     0.4562 C.ar    
  25 C25           -2.5861     0.2812     1.0572 C.ar    
  26 C26           -2.5381     1.5211     1.6744 C.ar    
  27 C27           -1.3621     2.2418     1.6883 C.ar    
  28 F28           -3.7415    -0.4187     1.0410 F       
  29 C29           -0.2660     4.6315     0.8942 C.3     
  30 H30            0.6118     0.0602     0.0004 H       
  31 H31            2.2670     5.6320     0.9627 H       
  32 H32            4.5529     0.8994     1.4691 H       
  33 H33            6.7719     1.3026     2.6531 H       
  34 H34            8.9002     2.5265     2.4831 H       
  35 H35            7.1598     5.1759    -0.3712 H       
  36 H36            5.0285     3.9554    -0.2129 H       
  37 H37            9.2651     5.7169     0.7045 H       
  38 H38            9.9913     4.6115     1.8957 H       
  39 H39           11.1288     5.8789    -0.7886 H       
  40 H40           12.0357     5.0633     0.5083 H       
  41 H41           13.1872     4.8535    -1.6910 H       
  42 H42           12.6861     3.2669    -1.0578 H       
  43 H43            9.7950     2.9957    -3.2899 H       
  44 H44           10.7019     2.1802    -1.9930 H       
  45 H45            8.6434     3.2055    -1.0906 H       
  46 H46            9.1446     4.7922    -1.7238 H       
  47 H47           12.7685     2.4342    -3.3797 H       
  48 H48           11.7579     3.2232    -4.6143 H       
  49 H49           13.1901     4.0600    -3.9688 H       
  50 H50           -1.4945    -1.2093    -0.0236 H       
  51 H51           -3.4240     1.9255     2.1415 H       
  52 H52           -1.3256     3.2079     2.1698 H       
  53 H53           -0.6344     4.8801     1.8895 H       
  54 H54           -0.1056     5.5482     0.3267 H       
  55 H55           -0.9991     4.0096     0.3803 H       
@<TRIPOS>BOND
   1    1    2 ar
   2    1    3 1
   3    1   27 ar
   4    2   24 ar
   5    2   30 1
   6    3    4 ar
   7    3    5 ar
   8    4    8 ar
   9    5    6 ar
  10    5   29 1
  11    6    7 ar
  12    6   31 1
  13    7    8 ar
  14    8    9 1
  15    9   10 1
  16    9   32 1
  17   10   11 ar
  18   10   15 ar
  19   11   12 ar
  20   11   33 1
  21   12   13 ar
  22   12   34 1
  23   13   14 ar
  24   13   16 1
  25   14   15 ar
  26   14   35 1
  27   15   36 1
  28   16   17 1
  29   16   37 1
  30   16   38 1
  31   17   18 1
  32   17   22 1
  33   18   19 1
  34   18   39 1
  35   18   40 1
  36   19   20 1
  37   19   41 1
  38   19   42 1
  39   20   21 1
  40   20   23 1
  41   21   22 1
  42   21   43 1
  43   21   44 1
  44   22   45 1
  45   22   46 1
  46   23   47 1
  47   23   48 1
  48   23   49 1
  49   24   25 ar
  50   24   50 1
  51   25   26 ar
  52   25   28 1
  53   26   27 ar
  54   26   51 1
  55   27   52 1
  56   29   53 1
  57   29   54 1
  58   29   55 1

#	End of record

