#	Name: ASD14870005
#	Creating user name:	WinNT
#	Creation time:	15. 06. 2019 21:31

#	Modifying user name:	WinNT
#	Modification time:	15. 06. 2019 21:31

#	Program:	/corina/corina34_cracker 3.40 0067  02.08.2006

@<TRIPOS>MOLECULE
ASD14870005
  55   58    0    0    0
SMALL
NO_CHARGES


@<TRIPOS>ATOM
   1 C1             0.2266     1.8910    -0.1612 C.3     
   2 C2             1.0427    -0.5028    -0.2986 C.ar    
   3 C3             2.3785    -0.0812    -0.8583 C.3     
   4 N4             2.3345     1.3379    -1.2261 N.am    
   5 C5             1.7042     2.2639    -0.2705 C.3     
   6 C6             3.4482    -0.2968     0.1810 C.ar    
   7 C7             4.5615    -1.0586    -0.1207 C.ar    
   8 C8             5.5428    -1.2564     0.8327 C.ar    
   9 C9             5.4109    -0.6920     2.0876 C.ar    
  10 C10            4.2981     0.0706     2.3891 C.ar    
  11 C11            3.3189     0.2720     1.4343 C.ar    
  12 C12            0.0605     0.4057     0.0268 C.ar    
  13 C13           -1.1459    -0.0444     0.5510 C.ar    
  14 C14           -1.3704    -1.3946     0.7423 C.ar    
  15 C15           -0.3793    -2.3123     0.4057 C.ar    
  16 C16            0.8205    -1.8611    -0.1122 C.ar    
  17 O17           -2.5534    -1.8245     1.2571 O.3     
  18 C18           -3.5224    -0.8247     1.5791 C.3     
  19 O19           -0.5896    -3.6438     0.5857 O.3     
  20 C20            0.4739    -4.5242     0.2172 C.3     
  21 C21            2.8506     1.7767    -2.3913 C.2     
  22 C22            2.7888     3.2419    -2.7385 C.3     
  23 O23            3.3647     0.9924    -3.1604 O.2     
  24 O24            3.3968     3.4552    -4.0139 O.3     
  25 C25            3.4246     4.7321    -4.4784 C.ar    
  26 C26            2.9122     7.0565    -4.1939 C.ar    
  27 C27            2.8828     5.7594    -3.7196 C.ar    
  28 C28            3.9997     5.0112    -5.7097 C.ar    
  29 C29            4.0266     6.3100    -6.1796 C.ar    
  30 C30            3.4809     7.3313    -5.4239 C.ar    
  31 H31           -0.2124     2.4113     0.6901 H       
  32 H32           -0.2886     2.1968    -1.0717 H       
  33 H33            2.6063    -0.6780    -1.7415 H       
  34 H34            1.8004     3.2880    -0.6311 H       
  35 H35            2.1817     2.1691     0.7047 H       
  36 H36            4.6645    -1.4996    -1.1012 H       
  37 H37            6.4122    -1.8522     0.5972 H       
  38 H38            6.1772    -0.8471     2.8327 H       
  39 H39            4.1949     0.5113     3.3697 H       
  40 H40            2.4512     0.8709     1.6686 H       
  41 H41           -1.9149     0.6678     0.8114 H       
  42 H42            1.5916    -2.5707    -0.3738 H       
  43 H43           -3.1089    -0.1444     2.3236 H       
  44 H44           -3.7803    -0.2657     0.6796 H       
  45 H45           -4.4170    -1.3015     1.9796 H       
  46 H46            0.1762    -5.5547     0.4111 H       
  47 H47            0.6947    -4.4033    -0.8434 H       
  48 H48            1.3620    -4.2863     0.8026 H       
  49 H49            1.7479     3.5633    -2.7739 H       
  50 H50            3.3213     3.8175    -1.9813 H       
  51 H51            2.4906     7.8566    -3.6036 H       
  52 H52            2.4382     5.5452    -2.7589 H       
  53 H53            4.4263     4.2139    -6.3001 H       
  54 H54            4.4745     6.5279    -7.1378 H       
  55 H55            3.5026     8.3460    -5.7932 H       
@<TRIPOS>BOND
   1    1   12 1
   2    1    5 1
   3    1   31 1
   4    1   32 1
   5    2    3 1
   6    2   12 ar
   7    2   16 ar
   8    3    4 1
   9    3    6 1
  10    3   33 1
  11    4    5 1
  12    4   21 am
  13    5   34 1
  14    5   35 1
  15    6    7 ar
  16    6   11 ar
  17    7    8 ar
  18    7   36 1
  19    8    9 ar
  20    8   37 1
  21    9   10 ar
  22    9   38 1
  23   10   11 ar
  24   10   39 1
  25   11   40 1
  26   12   13 ar
  27   13   14 ar
  28   13   41 1
  29   14   15 ar
  30   14   17 1
  31   15   16 ar
  32   15   19 1
  33   16   42 1
  34   17   18 1
  35   18   43 1
  36   18   44 1
  37   18   45 1
  38   19   20 1
  39   20   46 1
  40   20   47 1
  41   20   48 1
  42   21   22 1
  43   21   23 2
  44   22   24 1
  45   22   49 1
  46   22   50 1
  47   24   25 1
  48   25   28 ar
  49   25   27 ar
  50   26   27 ar
  51   26   30 ar
  52   26   51 1
  53   27   52 1
  54   28   29 ar
  55   28   53 1
  56   29   30 ar
  57   29   54 1
  58   30   55 1

#	End of record

