#	Name: ASD13680008
#	Creating user name:	WinNT
#	Creation time:	15. 06. 2019 21:30

#	Modifying user name:	WinNT
#	Modification time:	15. 06. 2019 21:30

#	Program:	/corina/corina34_cracker 3.40 0067  02.08.2006

@<TRIPOS>MOLECULE
ASD13680008
  49   52    0    0    0
SMALL
NO_CHARGES


@<TRIPOS>ATOM
   1 C1            -0.0190     1.5124     0.0242 C.3     
   2 C2             0.0025    -0.0020     0.0099 C.2     
   3 C3             0.7558    -0.7677     0.8048 C.2     
   4 C4             1.7297    -0.2380     1.8431 C.3     
   5 C5             1.8877     2.2211     1.4594 C.3     
   6 C6             1.4089     2.0561     0.0198 C.3     
   7 C7             1.2759     1.1321     2.3377 C.3     
   8 C8             0.5453    -2.1872     0.5659 C.2     
   9 C9            -0.3625    -2.4431    -0.4219 C.2     
  10 S10           -0.9725    -0.9921    -1.0681 S.3     
  11 N11           -0.7352    -3.7101    -0.8405 N.am    
  12 C12            1.2402    -3.2399     1.3122 C.2     
  13 O13            0.7535    -3.6824     2.3363 O.2     
  14 N14            2.4180    -3.7181     0.8644 N.am    
  15 C15            3.1309    -4.6402     1.6275 C.ar    
  16 N16            2.6956    -4.9693     2.8338 N.ar    
  17 C17            3.3402    -5.8382     3.5886 C.ar    
  18 C18            4.5011    -6.4391     3.1432 C.ar    
  19 C19            4.9910    -6.1212     1.8840 C.ar    
  20 C20            4.2897    -5.2106     1.1132 C.ar    
  21 C21           -1.6426    -3.8543    -1.8266 C.2     
  22 C22           -2.0396    -5.2041    -2.2725 C.ar    
  23 O23           -2.1341    -2.8724    -2.3487 O.2     
  24 C24           -1.4764    -6.3343    -1.6744 C.ar    
  25 C25           -1.8506    -7.5919    -2.0946 C.ar    
  26 C26           -2.7847    -7.7383    -3.1097 C.ar    
  27 C27           -3.3470    -6.6219    -3.7078 C.ar    
  28 C28           -2.9847    -5.3569    -3.2912 C.ar    
  29 Cl29          -3.6954    -3.9588    -4.0356 Cl      
  30 F30           -3.1473    -8.9743    -3.5172 F       
  31 H31           -0.5467     1.8749    -0.8579 H       
  32 H32           -0.5349     1.8583     0.9199 H       
  33 H33            1.7728    -0.9298     2.6843 H       
  34 H34            2.7208    -0.1513     1.3979 H       
  35 H35            2.9745     2.1438     1.4907 H       
  36 H36            1.5845     3.1996     1.8320 H       
  37 H37            2.0626     1.3584    -0.5036 H       
  38 H38            1.4289     3.0227    -0.4836 H       
  39 H39            0.1888     1.1941     2.2885 H       
  40 H40            1.6010     1.2719     3.3687 H       
  41 H41           -0.3430    -4.4934    -0.4239 H       
  42 H42            2.7693    -3.4203     0.0107 H       
  43 H43            2.9552    -6.0824     4.5677 H       
  44 H44            5.0226    -7.1488     3.7683 H       
  45 H45            5.8970    -6.5770     1.5126 H       
  46 H46            4.6400    -4.9437     0.1271 H       
  47 H47           -0.7488    -6.2222    -0.8842 H       
  48 H48           -1.4154    -8.4658    -1.6329 H       
  49 H49           -4.0732    -6.7419    -4.4981 H       
@<TRIPOS>BOND
   1    1    2 1
   2    1    6 1
   3    1   31 1
   4    1   32 1
   5    2   10 1
   6    2    3 2
   7    3    4 1
   8    3    8 1
   9    4    7 1
  10    4   33 1
  11    4   34 1
  12    5    6 1
  13    5    7 1
  14    5   35 1
  15    5   36 1
  16    6   37 1
  17    6   38 1
  18    7   39 1
  19    7   40 1
  20    8    9 2
  21    8   12 1
  22    9   10 1
  23    9   11 1
  24   11   21 am
  25   11   41 1
  26   12   13 2
  27   12   14 am
  28   14   15 1
  29   14   42 1
  30   15   16 ar
  31   15   20 ar
  32   16   17 ar
  33   17   18 ar
  34   17   43 1
  35   18   19 ar
  36   18   44 1
  37   19   20 ar
  38   19   45 1
  39   20   46 1
  40   21   22 1
  41   21   23 2
  42   22   24 ar
  43   22   28 ar
  44   24   25 ar
  45   24   47 1
  46   25   26 ar
  47   25   48 1
  48   26   27 ar
  49   26   30 1
  50   27   28 ar
  51   27   49 1
  52   28   29 1

#	End of record

