#	Name: ASD16430004
#	Creating user name:	WinNT
#	Creation time:	15. 06. 2019 21:31

#	Modifying user name:	WinNT
#	Modification time:	15. 06. 2019 21:31

#	Program:	/corina/corina34_cracker 3.40 0067  02.08.2006

@<TRIPOS>MOLECULE
ASD16430004
  60   62    0    0    0
SMALL
NO_CHARGES


@<TRIPOS>ATOM
   1 C1            -8.6643     1.1244    -3.4455 C.3     
   2 O2            -7.4475     1.7611    -3.8404 O.3     
   3 C3            -7.2796     3.0759    -3.3064 C.3     
   4 C4            -5.7884     3.3658    -3.1243 C.3     
   5 C5            -7.8840     4.0989    -4.2703 C.3     
   6 C6            -7.1770     4.0040    -5.6238 C.3     
   7 C7            -5.6858     4.2939    -5.4417 C.3     
   8 C8            -5.0814     3.2710    -4.4778 C.3     
   9 S9            -3.3134     3.6147    -4.2619 S.o2    
  10 O10           -3.1095     4.9759    -3.9090 O.2     
  11 O11           -2.6871     2.5673    -3.5338 O.2     
  12 N12           -2.6787     3.4885    -5.7863 N.am    
  13 C13           -2.7107     2.3070    -6.4339 C.2     
  14 O14           -3.1208     1.3130    -5.8656 O.2     
  15 C15           -2.2488     2.2195    -7.8302 C.ar    
  16 C16           -1.7724     3.3585    -8.4819 C.ar    
  17 C17           -2.2815     0.9896    -8.5060 C.ar    
  18 O18           -2.7396    -0.1192    -7.8732 O.3     
  19 C19           -2.7450    -1.3372    -8.6206 C.3     
  20 C20           -1.8468     0.9073    -9.8190 C.ar    
  21 C21           -1.3784     2.0358   -10.4693 C.ar    
  22 O22           -0.9536     1.9491   -11.7548 O.3     
  23 C23           -1.0180     0.6628   -12.3739 C.3     
  24 C24           -1.3376     3.2698    -9.7992 C.ar    
  25 C25           -0.8331     4.4718   -10.4937 C.2     
  26 S26            0.6831     4.5676   -11.3789 S.3     
  27 C27           -1.4743     5.6707   -10.5501 C.2     
  28 C28           -0.8103     6.6451   -11.2550 C.2     
  29 C29            0.3815     6.2515   -11.7850 C.2     
  30 C30            1.2552     7.0828   -12.5572 C.1     
  31 C31            1.9715     7.7643   -13.1902 C.1     
  32 C32            2.8697     8.6188   -13.9840 C.3     
  33 O33            4.0228     7.8684   -14.3703 O.3     
  34 H34           -9.5123     1.7198    -3.7840 H       
  35 H35           -8.7163     0.1314    -3.8919 H       
  36 H36           -8.6926     1.0365    -2.3594 H       
  37 H37           -7.7832     3.1435    -2.3421 H       
  38 H38           -5.6603     4.3687    -2.7169 H       
  39 H39           -5.3578     2.6370    -2.4376 H       
  40 H40           -8.9464     3.8924    -4.4000 H       
  41 H41           -7.7559     5.1018    -3.8629 H       
  42 H42           -7.3051     3.0011    -6.0311 H       
  43 H43           -7.6076     4.7328    -6.3105 H       
  44 H44           -5.1821     4.2264    -6.4060 H       
  45 H45           -5.5577     5.2968    -5.0344 H       
  46 H46           -5.2094     2.2681    -4.8851 H       
  47 H47           -2.2840     4.2650    -6.2131 H       
  48 H48           -1.7422     4.3059    -7.9642 H       
  49 H49           -3.3769    -1.2204    -9.5011 H       
  50 H50           -1.7283    -1.5768    -8.9322 H       
  51 H51           -3.1339    -2.1434    -7.9987 H       
  52 H52           -1.8731    -0.0403   -10.3364 H       
  53 H53           -0.4025    -0.0412   -11.8139 H       
  54 H54           -2.0510     0.3152   -12.3828 H       
  55 H55           -0.6496     0.7334   -13.3974 H       
  56 H56           -2.4304     5.8425   -10.0781 H       
  57 H57           -1.2028     7.6434   -11.3806 H       
  58 H58            2.3470     8.9662   -14.8752 H       
  59 H59            3.1778     9.4764   -13.3859 H       
  60 H60            4.6599     8.3698   -14.8974 H       
@<TRIPOS>BOND
   1    1   34 1
   2    1   35 1
   3    1   36 1
   4    1    2 1
   5    2    3 1
   6    3   37 1
   7    3    4 1
   8    3    5 1
   9    4   38 1
  10    4   39 1
  11    4    8 1
  12    5   40 1
  13    5   41 1
  14    5    6 1
  15    6   42 1
  16    6   43 1
  17    6    7 1
  18    7    8 1
  19    7   44 1
  20    7   45 1
  21    8   46 1
  22    8    9 1
  23    9   12 am
  24    9   11 2
  25    9   10 2
  26   12   47 1
  27   12   13 am
  28   13   15 1
  29   13   14 2
  30   15   17 ar
  31   15   16 ar
  32   16   24 ar
  33   16   48 1
  34   17   20 ar
  35   17   18 1
  36   18   19 1
  37   19   49 1
  38   19   50 1
  39   19   51 1
  40   20   52 1
  41   20   21 ar
  42   21   22 1
  43   21   24 ar
  44   22   23 1
  45   23   53 1
  46   23   54 1
  47   23   55 1
  48   24   25 1
  49   25   26 1
  50   25   27 2
  51   26   29 1
  52   27   56 1
  53   27   28 1
  54   28   29 2
  55   28   57 1
  56   29   30 1
  57   30   31 3
  58   31   32 1
  59   32   33 1
  60   32   58 1
  61   32   59 1
  62   33   60 1

#	End of record

