#	Name: ASD10420068
#	Creating user name:	WinNT
#	Creation time:	15. 06. 2019 21:27

#	Modifying user name:	WinNT
#	Modification time:	15. 06. 2019 21:27

#	Program:	/corina/corina34_cracker 3.40 0067  02.08.2006

@<TRIPOS>MOLECULE
ASD10420068
  52   55    0    0    0
SMALL
NO_CHARGES


@<TRIPOS>ATOM
   1 C1            -0.5243     1.3160    -0.3607 C.2     
   2 C2            -0.8293    -0.0382    -0.5555 C.2     
   3 C3             0.1955    -0.9764    -0.4762 C.2     
   4 C4             1.5115    -0.5449    -0.2028 C.2     
   5 N5             1.7757     0.7195    -0.0244 N.2     
   6 N6             0.7670     1.6890    -0.0977 N.pl3   
   7 C7            -1.3228     2.4760    -0.3718 C.2     
   8 C8            -0.4828     3.5554    -0.1163 C.2     
   9 C9             0.8048     3.0544     0.0519 C.2     
  10 C10           -0.0911    -2.4094    -0.6755 C.2     
  11 O11           -1.2258    -2.7751    -0.9102 O.2     
  12 O12            0.9056    -3.3131    -0.5974 O.3     
  13 C13           -2.7832     2.5358    -0.6114 C.ar    
  14 C14           -3.6659     1.9438     0.2919 C.ar    
  15 C15           -5.0253     2.0029     0.0631 C.ar    
  16 C16           -5.5133     2.6476    -1.0595 C.ar    
  17 C17           -4.6429     3.2366    -1.9591 C.ar    
  18 C18           -3.2817     3.1893    -1.7384 C.ar    
  19 C19            1.9555     3.8200     0.3317 C.2     
  20 O20            3.0152     3.2668     0.5486 O.2     
  21 C21           -0.8934     5.0029    -0.0318 C.3     
  22 C22           -1.2187     5.3502     1.3981 C.ar    
  23 C23           -1.5835     6.6415     1.7296 C.ar    
  24 C24           -1.8827     6.9600     3.0432 C.ar    
  25 C25           -1.8162     5.9843     4.0236 C.ar    
  26 C26           -1.4513     4.6940     3.6898 C.ar    
  27 C27           -1.1577     4.3758     2.3767 C.ar    
  28 C28           -1.6550     7.7023     0.6617 C.3     
  29 F29           -2.2389     8.2220     3.3685 F       
  30 Cl30          -2.4583    -0.5367    -0.8896 Cl      
  31 C31            0.5505    -4.7057    -0.8045 C.3     
  32 C32            1.8029    -5.5755    -0.6786 C.3     
  33 H33            2.3089    -1.2707    -0.1402 H       
  34 H34           -3.2860     1.4400     1.1684 H       
  35 H35           -5.7097     1.5446     0.7617 H       
  36 H36           -6.5782     2.6909    -1.2344 H       
  37 H37           -5.0299     3.7382    -2.8339 H       
  38 H38           -2.6034     3.6536    -2.4389 H       
  39 H39            1.8948     4.8981     0.3532 H       
  40 H40           -0.0761     5.6334    -0.3819 H       
  41 H41           -1.7724     5.1683    -0.6548 H       
  42 H42           -2.0490     6.2317     5.0488 H       
  43 H43           -1.3993     3.9329     4.4543 H       
  44 H44           -0.8770     3.3661     2.1160 H       
  45 H45           -2.6708     7.7558     0.2701 H       
  46 H46           -1.3787     8.6666     1.0883 H       
  47 H47           -0.9670     7.4518    -0.1459 H       
  48 H48           -0.1799    -5.0097    -0.0547 H       
  49 H49            0.1221    -4.8274    -1.7993 H       
  50 H50            1.5363    -6.6209    -0.8340 H       
  51 H51            2.5333    -5.2715    -1.4283 H       
  52 H52            2.2313    -5.4538     0.3163 H       
@<TRIPOS>BOND
   1    1    2 1
   2    1    6 1
   3    1    7 2
   4    2    3 2
   5    2   30 1
   6    3    4 1
   7    3   10 1
   8    4    5 2
   9    4   33 1
  10    5    6 1
  11    6    9 1
  12    7    8 1
  13    7   13 1
  14    8    9 2
  15    8   21 1
  16    9   19 1
  17   10   11 2
  18   10   12 1
  19   12   31 1
  20   13   14 ar
  21   13   18 ar
  22   14   15 ar
  23   14   34 1
  24   15   16 ar
  25   15   35 1
  26   16   17 ar
  27   16   36 1
  28   17   18 ar
  29   17   37 1
  30   18   38 1
  31   19   20 2
  32   19   39 1
  33   21   22 1
  34   21   40 1
  35   21   41 1
  36   22   23 ar
  37   22   27 ar
  38   23   24 ar
  39   23   28 1
  40   24   25 ar
  41   24   29 1
  42   25   26 ar
  43   25   42 1
  44   26   27 ar
  45   26   43 1
  46   27   44 1
  47   28   45 1
  48   28   46 1
  49   28   47 1
  50   31   32 1
  51   31   48 1
  52   31   49 1
  53   32   50 1
  54   32   51 1
  55   32   52 1

#	End of record

