#	Name: ASD10220050
#	Creating user name:	WinNT
#	Creation time:	15. 06. 2019 21:26

#	Modifying user name:	WinNT
#	Modification time:	15. 06. 2019 21:26

#	Program:	/corina/corina34_cracker 3.40 0067  02.08.2006

@<TRIPOS>MOLECULE
ASD10220050
  33   36    0    0    0
SMALL
NO_CHARGES


@<TRIPOS>ATOM
   1 C1            -0.0830     1.4448    -0.1516 C.2     
   2 C2            -0.1180    -0.0272    -0.2949 C.ar    
   3 C3            -1.2624    -0.7522     0.1113 C.ar    
   4 C4            -2.4189    -0.0082     0.6415 C.2     
   5 C5            -2.4869     1.3867     0.5524 C.2     
   6 C6            -1.4102     2.1670    -0.0617 C.2     
   7 O7            -3.5251    -0.4303     1.2496 O.3     
   8 C8            -4.3290     0.5949     1.5697 C.2     
   9 C9            -3.7526     1.7701     1.1673 C.2     
  10 O10           -1.5696     3.2987    -0.4730 O.2     
  11 O11            0.9682     2.0489    -0.1029 O.2     
  12 C12           -4.2943     3.1295     1.3227 C.2     
  13 O13           -3.6186     4.0924     1.0134 O.2     
  14 C14           -5.6596     3.3248     1.8547 C.ar    
  15 C15            0.9733    -0.7119    -0.8265 C.ar    
  16 C16           -1.2816    -2.1354    -0.0046 C.ar    
  17 C17           -5.9783     4.4879     2.5586 C.ar    
  18 C18           -7.2544     4.6639     3.0519 C.ar    
  19 C19           -8.2175     3.6908     2.8510 C.ar    
  20 C20           -7.9085     2.5358     2.1544 C.ar    
  21 C21           -6.6379     2.3495     1.6507 C.ar    
  22 C22           -0.1839    -2.7982    -0.5307 C.ar    
  23 C23            0.9316    -2.0919    -0.9410 C.ar    
  24 Br24           2.5067     0.2403    -1.3905 Br      
  25 H25           -5.2835     0.5070     2.0674 H       
  26 H26           -2.1493    -2.6935     0.3146 H       
  27 H27           -5.2274     5.2478     2.7166 H       
  28 H28           -7.5023     5.5630     3.5964 H       
  29 H29           -9.2149     3.8333     3.2400 H       
  30 H30           -8.6648     1.7802     2.0015 H       
  31 H31           -6.3981     1.4478     1.1069 H       
  32 H32           -0.1999    -3.8743    -0.6205 H       
  33 H33            1.7778    -2.6206    -1.3543 H       
@<TRIPOS>BOND
   1    1    2 1
   2    1   11 2
   3    1    6 1
   4    2    3 ar
   5    2   15 ar
   6    3    4 1
   7    3   16 ar
   8    4    5 2
   9    4    7 1
  10    5    6 1
  11    5    9 1
  12    6   10 2
  13    7    8 1
  14    8    9 2
  15    8   25 1
  16    9   12 1
  17   12   13 2
  18   12   14 1
  19   14   17 ar
  20   14   21 ar
  21   15   24 1
  22   15   23 ar
  23   16   22 ar
  24   16   26 1
  25   17   18 ar
  26   17   27 1
  27   18   19 ar
  28   18   28 1
  29   19   20 ar
  30   19   29 1
  31   20   21 ar
  32   20   30 1
  33   21   31 1
  34   22   23 ar
  35   22   32 1
  36   23   33 1

#	End of record

