#	Name: ASD10160352
#	Creating user name:	WinNT
#	Creation time:	15. 06. 2019 21:25

#	Modifying user name:	WinNT
#	Modification time:	15. 06. 2019 21:25

#	Program:	/corina/corina34_cracker 3.40 0067  02.08.2006

@<TRIPOS>MOLECULE
ASD10160352
  23   23    0    0    0
SMALL
NO_CHARGES


@<TRIPOS>ATOM
   1 C1             0.0021    -0.0041     0.0020 C.1     
   2 C2            -0.0173     1.4278     0.0099 C.ar    
   3 C3             1.1781     2.1561     0.0024 C.ar    
   4 C4             1.1042     3.5419     0.0106 C.ar    
   5 C5            -0.1398     4.1566     0.0258 C.ar    
   6 N6            -1.2512     3.4461     0.0330 N.ar    
   7 C7            -1.2346     2.1248     0.0194 C.ar    
   8 N8             0.0175    -1.1399    -0.0042 N.1     
   9 O9            -2.4031     1.4375     0.0211 O.3     
  10 C10           -3.6078     2.2060     0.0309 C.3     
  11 C11           -4.0444     2.4881    -1.4080 C.3     
  12 C12           -4.7062     1.4231     0.7530 C.3     
  13 O13            2.2398     4.2902     0.0042 O.3     
  14 H14            2.1334     1.6525    -0.0091 H       
  15 H15           -0.1991     5.2350     0.0322 H       
  16 H16           -3.4330     3.1489     0.5491 H       
  17 H17           -3.2619     3.0459    -1.9225 H       
  18 H18           -4.2192     1.5453    -1.9262 H       
  19 H19           -4.9634     3.0744    -1.4005 H       
  20 H20           -4.3951     1.2221     1.7782 H       
  21 H21           -5.6251     2.0093     0.7605 H       
  22 H22           -4.8810     0.4802     0.2348 H       
  23 H23            2.5602     4.5114    -0.8810 H       
@<TRIPOS>BOND
   1    1    2 1
   2    1    8 3
   3    2    3 ar
   4    2    7 ar
   5    3    4 ar
   6    3   14 1
   7    4    5 ar
   8    4   13 1
   9    5    6 ar
  10    5   15 1
  11    6    7 ar
  12    7    9 1
  13    9   10 1
  14   10   11 1
  15   10   12 1
  16   10   16 1
  17   11   17 1
  18   11   18 1
  19   11   19 1
  20   12   20 1
  21   12   21 1
  22   12   22 1
  23   13   23 1

#	End of record

