#	Name: ASD10420155
#	Creating user name:	WinNT
#	Creation time:	15. 06. 2019 21:27

#	Modifying user name:	WinNT
#	Modification time:	15. 06. 2019 21:27

#	Program:	/corina/corina34_cracker 3.40 0067  02.08.2006

@<TRIPOS>MOLECULE
ASD10420155
  29   29    0    0    0
SMALL
NO_CHARGES


@<TRIPOS>ATOM
   1 C1            -0.1460     1.3862     0.2104 C.3     
   2 C2            -0.0868    -2.8652     0.1758 C.2     
   3 C3             2.0047    -1.9582     3.1569 C.ar    
   4 C4             1.9831    -0.5755     3.0945 C.ar    
   5 C5             1.3353    -2.7076     2.2122 C.ar    
   6 C6             1.2905     0.0677     2.0863 C.ar    
   7 C7             1.5955    -6.0301     0.3098 C.3     
   8 C8             2.7324    -6.5727     1.1780 C.3     
   9 C9             3.0790    -7.9710     0.7355 C.2     
  10 C10            0.6315    -2.0699     1.1890 C.ar    
  11 C11            0.6119    -0.6699     1.1297 C.ar    
  12 N12            0.2056    -4.1144     0.0072 N.2     
  13 O13            2.4783    -8.4812    -0.1803 O.2     
  14 O14            4.0551    -8.6496     1.3588 O.3     
  15 O15           -0.0696    -0.0390     0.1394 O.3     
  16 O16            1.3152    -4.6791     0.6817 O.3     
  17 H17            0.8540     1.8089     0.1128 H       
  18 H18           -0.7776     1.7569    -0.5969 H       
  19 H19           -0.5725     1.6798     1.1696 H       
  20 H20           -0.8570    -2.4050    -0.4253 H       
  21 H21            2.5521    -2.4523     3.9460 H       
  22 H22            2.5099     0.0039     3.8382 H       
  23 H23            1.3550    -3.7862     2.2644 H       
  24 H24            1.2779     1.1468     2.0443 H       
  25 H25            1.8909    -6.0645    -0.7388 H       
  26 H26            0.7038    -6.6397     0.4563 H       
  27 H27            3.6074    -5.9312     1.0734 H       
  28 H28            2.4168    -6.5895     2.2212 H       
  29 H29            4.2414    -9.5432     1.0396 H       
@<TRIPOS>BOND
   1    1   15 1
   2    1   17 1
   3    1   18 1
   4    1   19 1
   5    2   10 1
   6    2   12 2
   7    2   20 1
   8    3    4 ar
   9    3    5 ar
  10    3   21 1
  11    4    6 ar
  12    4   22 1
  13    5   10 ar
  14    5   23 1
  15    6   11 ar
  16    6   24 1
  17    7    8 1
  18    7   16 1
  19    7   25 1
  20    7   26 1
  21    8    9 1
  22    8   27 1
  23    8   28 1
  24    9   13 2
  25    9   14 1
  26   10   11 ar
  27   11   15 1
  28   12   16 1
  29   14   29 1

#	End of record

