#	Name: ASD10160182
#	Creating user name:	WinNT
#	Creation time:	15. 06. 2019 21:25

#	Modifying user name:	WinNT
#	Modification time:	15. 06. 2019 21:25

#	Program:	/corina/corina34_cracker 3.40 0067  02.08.2006

@<TRIPOS>MOLECULE
ASD10160182
  39   40    0    0    0
SMALL
NO_CHARGES


@<TRIPOS>ATOM
   1 C1            -0.0326     1.4702     0.0132 C.2     
   2 C2            -0.0087    -0.0042     0.0043 C.ar    
   3 C3             1.2061    -0.6859    -0.1327 C.ar    
   4 C4             1.2232    -2.0663    -0.1405 C.ar    
   5 C5             0.0381    -2.7777    -0.0127 C.ar    
   6 C6            -1.1725    -2.1035     0.1238 C.ar    
   7 C7            -1.1988    -0.7256     0.1385 C.ar    
   8 O8             1.0042     2.0957    -0.0986 O.2     
   9 N9            -1.2041     2.1244     0.1397 N.am    
  10 S10           -1.2309     3.7802     0.1497 S.o2    
  11 O11           -2.6029     4.1074     0.3218 O.2     
  12 O12           -0.2637     4.1404     1.1264 O.2     
  13 C13           -0.6671     4.2520    -1.5086 C.3     
  14 F14           -2.3227    -2.8012     0.2474 F       
  15 F15            2.3599     0.0058    -0.2575 F       
  16 O16            0.0593    -4.1353    -0.0213 O.3     
  17 C17           -0.1515    -4.7672    -1.2009 C.ar    
  18 N18           -0.0405    -6.0844    -1.2553 N.ar    
  19 C19           -0.2414    -6.7343    -2.3972 C.ar    
  20 C20           -0.5723    -6.0057    -3.5421 C.ar    
  21 C21           -0.6776    -4.6327    -3.4404 C.ar    
  22 N22           -0.4684    -4.0518    -2.2677 N.ar    
  23 N23           -0.1241    -8.1136    -2.4512 N.pl3   
  24 C24           -0.2395    -8.8089    -3.7356 C.3     
  25 C25            0.1155    -8.8769    -1.2240 C.3     
  26 H26            2.1598    -2.5935    -0.2465 H       
  27 H27           -2.1379    -0.2038     0.2489 H       
  28 H28           -2.0315     1.6254     0.2249 H       
  29 H29           -1.3460     3.8386    -2.2545 H       
  30 H30           -0.6537     5.3387    -1.5923 H       
  31 H31            0.3370     3.8623    -1.6756 H       
  32 H32           -0.7413    -6.5046    -4.4849 H       
  33 H33           -0.9318    -4.0391    -4.3061 H       
  34 H34            0.7457    -8.8895    -4.1949 H       
  35 H35           -0.6475    -9.8065    -3.5733 H       
  36 H36           -0.9026    -8.2478    -4.3941 H       
  37 H37           -0.8389    -9.1580    -0.7788 H       
  38 H38            0.6849    -9.7758    -1.4605 H       
  39 H39            0.6788    -8.2649    -0.5195 H       
@<TRIPOS>BOND
   1    1    2 1
   2    1    8 2
   3    1    9 am
   4    2    3 ar
   5    2    7 ar
   6    3    4 ar
   7    3   15 1
   8    4    5 ar
   9    4   26 1
  10    5    6 ar
  11    5   16 1
  12    6    7 ar
  13    6   14 1
  14    7   27 1
  15    9   10 am
  16    9   28 1
  17   10   11 2
  18   10   12 2
  19   10   13 1
  20   13   29 1
  21   13   30 1
  22   13   31 1
  23   16   17 1
  24   17   18 ar
  25   17   22 ar
  26   18   19 ar
  27   19   20 ar
  28   19   23 1
  29   20   21 ar
  30   20   32 1
  31   21   22 ar
  32   21   33 1
  33   23   24 1
  34   23   25 1
  35   24   34 1
  36   24   35 1
  37   24   36 1
  38   25   37 1
  39   25   38 1
  40   25   39 1

#	End of record

