#	Name: ASD10410196
#	Creating user name:	WinNT
#	Creation time:	15. 06. 2019 21:27

#	Modifying user name:	WinNT
#	Modification time:	15. 06. 2019 21:27

#	Program:	/corina/corina34_cracker 3.40 0067  02.08.2006

@<TRIPOS>MOLECULE
ASD10410196
  53   56    0    0    0
SMALL
NO_CHARGES


@<TRIPOS>ATOM
   1 C1            -0.0183     1.3925    -0.0812 C.ar    
   2 C2            -0.0057     0.0095     0.0247 C.ar    
   3 C3             1.2007    -0.6691     0.1155 C.ar    
   4 C4             2.3904     0.0319     0.1009 C.ar    
   5 C5             2.3788     1.4166    -0.0051 C.ar    
   6 C6             1.1705     2.0951    -0.0964 C.ar    
   7 O7            -1.1769    -0.6815     0.0400 O.3     
   8 N8             3.5843     2.1280    -0.0195 N.pl3   
   9 C9             3.6714     3.3387    -0.7067 C.2     
  10 N10            4.7095     4.1402    -0.7084 N.2     
  11 N11            2.7114     3.8669    -1.4750 N.2     
  12 C12            3.1225     5.0138    -1.9718 C.2     
  13 N13            4.3790     5.2372    -1.5203 N.pl3   
  14 C14            5.1866     6.3402    -1.8055 C.ar    
  15 N15            2.4003     5.8426    -2.8092 N.pl3   
  16 C16            6.4617     6.4193    -1.2589 C.ar    
  17 C17           -1.0898    -2.1035     0.1513 C.3     
  18 C18           -2.4977    -2.7023     0.1520 C.3     
  19 N19           -3.1367    -2.4526    -1.1469 N.3     
  20 C20           -4.3935    -3.2133    -1.2725 C.3     
  21 C21            5.4621     8.3561    -2.8933 C.ar    
  22 C22            6.7364     8.5029    -2.3805 C.ar    
  23 C23            7.2519     7.5180    -1.5497 C.ar    
  24 N24            4.7323     7.2979    -2.5984 N.ar    
  25 C25           -5.5167    -2.1957    -1.5631 C.3     
  26 C26           -4.7466    -0.9828    -2.1485 C.3     
  27 C27           -3.4367    -1.0156    -1.3223 C.3     
  28 C28            6.9772     5.3240    -0.3613 C.3     
  29 F29            8.2754     5.6358     0.0565 F       
  30 F30            6.1435     5.2057     0.7560 F       
  31 F31            6.9911     4.1139    -1.0630 F       
  32 H32           -0.9579     1.9196    -0.1564 H       
  33 H33            1.2095    -1.7459     0.1979 H       
  34 H34            3.3296    -0.4965     0.1723 H       
  35 H35            1.1605     3.1718    -0.1792 H       
  36 H36            4.3590     1.7790     0.4484 H       
  37 H37            1.5028     5.5945    -3.0810 H       
  38 H38            2.7908     6.6723    -3.1253 H       
  39 H39           -0.5267    -2.5003    -0.6934 H       
  40 H40           -0.5833    -2.3649     1.0805 H       
  41 H41           -2.4356    -3.7765     0.3259 H       
  42 H42           -3.0888    -2.2399     0.9426 H       
  43 H43           -4.3158    -3.9247    -2.0947 H       
  44 H44           -4.6024    -3.7405    -0.3416 H       
  45 H45            5.0564     9.1200    -3.5400 H       
  46 H46            7.3272     9.3727    -2.6276 H       
  47 H47            8.2468     7.6070    -1.1391 H       
  48 H48           -6.2192    -2.5956    -2.2943 H       
  49 H49           -6.0321    -1.9177    -0.6438 H       
  50 H50           -4.5426    -1.1251    -3.2097 H       
  51 H51           -5.2924    -0.0548    -1.9784 H       
  52 H52           -3.5868    -0.5383    -0.3539 H       
  53 H53           -2.6315    -0.5237    -1.8680 H       
@<TRIPOS>BOND
   1    1    2 ar
   2    1    6 ar
   3    1   32 1
   4    2    3 ar
   5    2    7 1
   6    3    4 ar
   7    3   33 1
   8    4    5 ar
   9    4   34 1
  10    5    6 ar
  11    5    8 1
  12    6   35 1
  13    7   17 1
  14    8    9 1
  15    8   36 1
  16    9   10 2
  17    9   11 1
  18   10   13 1
  19   11   12 2
  20   12   13 1
  21   12   15 1
  22   13   14 1
  23   14   16 ar
  24   14   24 ar
  25   15   37 1
  26   15   38 1
  27   16   28 1
  28   16   23 ar
  29   17   18 1
  30   17   39 1
  31   17   40 1
  32   18   19 1
  33   18   41 1
  34   18   42 1
  35   19   20 1
  36   19   27 1
  37   20   25 1
  38   20   43 1
  39   20   44 1
  40   21   22 ar
  41   21   24 ar
  42   21   45 1
  43   22   23 ar
  44   22   46 1
  45   23   47 1
  46   25   26 1
  47   25   48 1
  48   25   49 1
  49   26   27 1
  50   26   50 1
  51   26   51 1
  52   27   52 1
  53   27   53 1
  54   28   29 1
  55   28   30 1
  56   28   31 1

#	End of record

