#	Name: ASD10610023
#	Creating user name:	WinNT
#	Creation time:	15. 06. 2019 21:27

#	Modifying user name:	WinNT
#	Modification time:	15. 06. 2019 21:27

#	Program:	/corina/corina34_cracker 3.40 0067  02.08.2006

@<TRIPOS>MOLECULE
ASD10610023
  54   58    0    0    0
SMALL
NO_CHARGES


@<TRIPOS>ATOM
   1 C1            -0.2542     1.7317     0.0324 C.ar    
   2 C2            -0.3964     0.3462     0.0818 C.ar    
   3 C3             0.7543    -0.4462     0.1220 C.ar    
   4 C4             1.9887     0.1813     0.1112 C.ar    
   5 C5             2.0499     1.5625     0.0617 C.ar    
   6 N6             0.9402     2.2828     0.0242 N.ar    
   7 C7             3.4988     2.0059     0.0613 C.3     
   8 C8            -1.7423    -0.2753     0.0919 C.ar    
   9 C9            -2.0443    -1.3035    -0.7955 C.ar    
  10 C10           -3.3002    -1.8808    -0.7842 C.ar    
  11 C11           -4.2646    -1.4419     0.1074 C.ar    
  12 C12           -3.9810    -0.4213     0.9965 C.ar    
  13 C13           -2.7168     0.1669     1.0010 C.ar    
  14 F14           -4.9266     0.0020     1.8637 F       
  15 Cl15          -3.6709    -3.1629    -1.8943 Cl      
  16 C16           -2.4073     1.2609     1.9515 C.2     
  17 N17           -3.2490     1.7902     2.8688 N.2     
  18 C18           -2.5611     2.7206     3.4819 C.2     
  19 O19           -1.3418     2.7349     2.9340 O.3     
  20 N20           -1.2668     1.8924     2.0648 N.2     
  21 N21            3.8888     2.4690     1.3954 N.am    
  22 C22            3.6706     3.7496     1.7546 C.2     
  23 O23            3.2360     4.5409     0.9448 O.2     
  24 C24            3.9667     4.1981     3.1625 C.3     
  25 N25            5.1425     3.5862     3.7865 N.am    
  26 C26            3.6524     5.6518     3.5217 C.3     
  27 C27            2.7752     4.5216     4.0662 C.3     
  28 C28            6.3478     3.6815     3.1910 C.2     
  29 C29            7.5349     2.9578     3.7724 C.3     
  30 O30            6.4770     4.3496     2.1871 O.2     
  31 F31            8.6644     3.2071     2.9855 F       
  32 F32            7.7650     3.4114     5.0757 F       
  33 F33            7.2772     1.5829     3.7959 F       
  34 C34            3.3863    -0.3958     0.1457 C.3     
  35 C35            4.3069     0.7496    -0.3265 C.3     
  36 C36           -3.0520     3.6090     4.5959 C.3     
  37 H37           -1.1328     2.3586    -0.0038 H       
  38 H38            0.6824    -1.5231     0.1610 H       
  39 H39            3.6519     2.7971    -0.6726 H       
  40 H40           -1.2971    -1.6506    -1.4939 H       
  41 H41           -5.2432    -1.8987     0.1082 H       
  42 H42            4.3040     1.8540     2.0201 H       
  43 H43            5.0535     3.1125     4.6283 H       
  44 H44            4.3202     6.1527     4.2225 H       
  45 H45            3.2314     6.2837     2.7396 H       
  46 H46            1.7772     4.4103     3.6424 H       
  47 H47            2.8662     4.2795     5.1251 H       
  48 H48            3.6466    -0.6965     1.1605 H       
  49 H49            3.4615    -1.2457    -0.5326 H       
  50 H50            4.4593     0.7047    -1.4049 H       
  51 H51            5.2599     0.7236     0.2019 H       
  52 H52           -2.8520     3.1324     5.5556 H       
  53 H53           -2.5345     4.5673     4.5513 H       
  54 H54           -4.1245     3.7698     4.4865 H       
@<TRIPOS>BOND
   1    1    2 ar
   2    1    6 ar
   3    1   37 1
   4    2    3 ar
   5    2    8 1
   6    3    4 ar
   7    3   38 1
   8    4    5 ar
   9    4   34 1
  10    5    6 ar
  11    5    7 1
  12    7   21 1
  13    7   35 1
  14    7   39 1
  15    8    9 ar
  16    8   13 ar
  17    9   10 ar
  18    9   40 1
  19   10   11 ar
  20   10   15 1
  21   11   12 ar
  22   11   41 1
  23   12   13 ar
  24   12   14 1
  25   13   16 1
  26   16   17 1
  27   16   20 2
  28   17   18 2
  29   18   19 1
  30   18   36 1
  31   19   20 1
  32   21   22 am
  33   21   42 1
  34   22   23 2
  35   22   24 1
  36   24   25 1
  37   24   26 1
  38   24   27 1
  39   25   28 am
  40   25   43 1
  41   26   27 1
  42   26   44 1
  43   26   45 1
  44   27   46 1
  45   27   47 1
  46   28   29 1
  47   28   30 2
  48   29   31 1
  49   29   32 1
  50   29   33 1
  51   34   35 1
  52   34   48 1
  53   34   49 1
  54   35   50 1
  55   35   51 1
  56   36   52 1
  57   36   53 1
  58   36   54 1

#	End of record

