#	Name: ASD10610161
#	Creating user name:	WinNT
#	Creation time:	15. 06. 2019 21:28

#	Modifying user name:	WinNT
#	Modification time:	15. 06. 2019 21:28

#	Program:	/corina/corina34_cracker 3.40 0067  02.08.2006

@<TRIPOS>MOLECULE
ASD10610161
  16   16    0    0    0
SMALL
NO_CHARGES


@<TRIPOS>ATOM
   1 C1            -0.0179     1.4709     0.0101 C.2     
   2 C2             0.0021    -0.0041     0.0020 C.ar    
   3 C3            -1.1966    -0.7226     0.0096 C.ar    
   4 C4            -1.1708    -2.1021     0.0020 C.ar    
   5 C5             0.0393    -2.7760    -0.0131 C.ar    
   6 C6             1.2310    -2.0721    -0.0207 C.ar    
   7 C7             1.2206    -0.6901    -0.0191 C.ar    
   8 F8             2.3842    -0.0038    -0.0322 F       
   9 Cl9            0.0613    -4.5118    -0.0220 Cl      
  10 Br10          -2.8505     0.1940     0.0309 Br      
  11 N11            1.0937     2.1330     0.0031 N.2     
  12 O12            1.0745     3.5489     0.0109 O.3     
  13 H13           -0.9605     1.9981     0.0175 H       
  14 H14           -2.0967    -2.6580     0.0082 H       
  15 H15            2.1709    -2.6039    -0.0325 H       
  16 H16            1.9525     3.9542     0.0047 H       
@<TRIPOS>BOND
   1    1    2 1
   2    1   11 2
   3    1   13 1
   4    2    3 ar
   5    2    7 ar
   6    3    4 ar
   7    3   10 1
   8    4    5 ar
   9    4   14 1
  10    5    6 ar
  11    5    9 1
  12    6    7 ar
  13    6   15 1
  14    7    8 1
  15   11   12 1
  16   12   16 1

#	End of record

