#	Name: ASD10160176
#	Creating user name:	WinNT
#	Creation time:	15. 06. 2019 21:25

#	Modifying user name:	WinNT
#	Modification time:	15. 06. 2019 21:25

#	Program:	/corina/corina34_cracker 3.40 0067  02.08.2006

@<TRIPOS>MOLECULE
ASD10160176
  33   34    0    0    0
SMALL
NO_CHARGES


@<TRIPOS>ATOM
   1 C1            -0.0336     1.4701     0.0134 C.2     
   2 C2            -0.0094    -0.0043     0.0045 C.ar    
   3 C3             1.2056    -0.6857    -0.1325 C.ar    
   4 C4             1.2229    -2.0660    -0.1404 C.ar    
   5 C5             0.0378    -2.7777    -0.0131 C.ar    
   6 C6            -1.1730    -2.1036     0.1229 C.ar    
   7 C7            -1.1994    -0.7259     0.1385 C.ar    
   8 O8             1.0031     2.0958    -0.0983 O.2     
   9 N9            -1.2052     2.1241     0.1399 N.am    
  10 S10           -1.2323     3.7799     0.1499 S.o2    
  11 O11           -2.6044     4.1068     0.3220 O.2     
  12 O12           -0.2652     4.1403     1.1267 O.2     
  13 C13           -0.6686     4.2519    -1.5084 C.3     
  14 F14           -2.3233    -2.8016     0.2455 F       
  15 F15            2.3592     0.0063    -0.2573 F       
  16 O16            0.0593    -4.1351    -0.0218 O.3     
  17 C17           -0.1514    -4.7680    -1.2033 C.ar    
  18 C18           -0.0374    -6.1498    -1.2713 C.ar    
  19 C19           -0.2574    -6.7866    -2.4950 C.ar    
  20 C20           -0.5849    -5.9955    -3.6037 C.ar    
  21 C21           -0.6776    -4.6283    -3.4487 C.ar    
  22 N22           -0.4682    -4.0619    -2.2756 N.ar    
  23 C23           -0.1505    -8.2098    -2.6130 C.1     
  24 N24           -0.0657    -9.3387    -2.7065 N.1     
  25 H25            2.1597    -2.5930    -0.2460 H       
  26 H26           -2.1386    -0.2043     0.2489 H       
  27 H27           -2.0325     1.6250     0.2250 H       
  28 H28           -1.3473     3.8383    -2.2543 H       
  29 H29           -0.6553     5.3386    -1.5920 H       
  30 H30            0.3357     3.8623    -1.6753 H       
  31 H31            0.2175    -6.7232    -0.3923 H       
  32 H32           -0.7620    -6.4502    -4.5671 H       
  33 H33           -0.9296    -4.0124    -4.2994 H       
@<TRIPOS>BOND
   1    1    2 1
   2    1    8 2
   3    1    9 am
   4    2    3 ar
   5    2    7 ar
   6    3    4 ar
   7    3   15 1
   8    4    5 ar
   9    4   25 1
  10    5    6 ar
  11    5   16 1
  12    6    7 ar
  13    6   14 1
  14    7   26 1
  15    9   10 am
  16    9   27 1
  17   10   11 2
  18   10   12 2
  19   10   13 1
  20   13   28 1
  21   13   29 1
  22   13   30 1
  23   16   17 1
  24   17   18 ar
  25   17   22 ar
  26   18   19 ar
  27   18   31 1
  28   19   20 ar
  29   19   23 1
  30   20   21 ar
  31   20   32 1
  32   21   22 ar
  33   21   33 1
  34   23   24 3

#	End of record

