#	Name: ASD10690001
#	Creating user name:	WinNT
#	Creation time:	15. 06. 2019 21:28

#	Modifying user name:	WinNT
#	Modification time:	15. 06. 2019 21:28

#	Program:	/corina/corina34_cracker 3.40 0067  02.08.2006

@<TRIPOS>MOLECULE
ASD10690001
  41   45    0    0    0
SMALL
NO_CHARGES


@<TRIPOS>ATOM
   1 C1            -0.0171     1.4108     0.0098 C.ar    
   2 C2             0.0021    -0.0041     0.0020 C.ar    
   3 C3             1.1828    -0.6781    -0.0129 C.ar    
   4 C4             2.3908     0.0080    -0.0203 C.ar    
   5 C5             2.4049     1.3823    -0.0131 C.ar    
   6 C6             1.2033     2.0978     0.0018 C.ar    
   7 S7             0.9042     3.8321     0.0140 S.3     
   8 C8            -0.8328     3.5838     0.0285 C.2     
   9 C9            -1.1236     2.2772     0.0193 C.2     
  10 Cl10          -2.7580     1.6920     0.0292 Cl      
  11 C11           -1.8299     4.6608     0.0434 C.2     
  12 N12           -1.4312     5.9482     0.0461 N.am    
  13 O13           -3.0163     4.3913     0.0532 O.2     
  14 C14           -2.3776     6.9706     0.0603 C.2     
  15 N15           -3.6719     6.8126     0.0722 N.2     
  16 O16           -4.2667     8.0983     0.0846 O.3     
  17 N17           -3.2211     9.0541     0.0793 N.2     
  18 C18           -2.0885     8.4080     0.0707 C.2     
  19 N19           -0.8202     8.9849     0.0640 N.am    
  20 C20           -0.6901    10.3264     0.0656 C.2     
  21 C21            0.6455    10.9340     0.0585 C.2     
  22 O22           -1.6803    11.0336     0.0730 O.2     
  23 C23            0.8827    12.2516     0.0594 C.2     
  24 S24            2.1516    10.0335     0.0552 S.3     
  25 C25            3.0978    11.5174     0.0470 C.ar    
  26 C26            2.2379    12.6227     0.0518 C.ar    
  27 C27            4.4828    11.7125     0.0409 C.ar    
  28 C28            5.0016    12.9861     0.0350 C.ar    
  29 C29            4.1513    14.0868     0.0351 C.ar    
  30 C30            2.8025    13.9208     0.0469 C.ar    
  31 Cl31          -0.3984    13.4232     0.0688 Cl      
  32 Cl32           6.7216    13.2206     0.0280 Cl      
  33 H33           -0.9282    -0.5527     0.0084 H       
  34 H34            1.1816    -1.7581    -0.0187 H       
  35 H35            3.3213    -0.5400    -0.0315 H       
  36 H36            3.3465     1.9112    -0.0185 H       
  37 H37           -0.4853     6.1630     0.0383 H       
  38 H38           -0.0309     8.4211     0.0581 H       
  39 H39            5.1467    10.8606     0.0412 H       
  40 H40            4.5671    15.0835     0.0309 H       
  41 H41            2.1562    14.7861     0.0465 H       
@<TRIPOS>BOND
   1    1    2 ar
   2    1    6 ar
   3    1    9 1
   4    2    3 ar
   5    2   33 1
   6    3    4 ar
   7    3   34 1
   8    4    5 ar
   9    4   35 1
  10    5    6 ar
  11    5   36 1
  12    6    7 1
  13    7    8 1
  14    8    9 2
  15    8   11 1
  16    9   10 1
  17   11   12 am
  18   11   13 2
  19   12   14 1
  20   12   37 1
  21   14   15 2
  22   14   18 1
  23   15   16 1
  24   16   17 1
  25   17   18 2
  26   18   19 1
  27   19   20 am
  28   19   38 1
  29   20   21 1
  30   20   22 2
  31   21   23 2
  32   21   24 1
  33   23   31 1
  34   23   26 1
  35   24   25 1
  36   25   26 ar
  37   25   27 ar
  38   26   30 ar
  39   27   28 ar
  40   27   39 1
  41   28   29 ar
  42   28   32 1
  43   29   30 ar
  44   29   40 1
  45   30   41 1

#	End of record

