#	Name: ASD10410256
#	Creating user name:	WinNT
#	Creation time:	15. 06. 2019 21:27

#	Modifying user name:	WinNT
#	Modification time:	15. 06. 2019 21:27

#	Program:	/corina/corina34_cracker 3.40 0067  02.08.2006

@<TRIPOS>MOLECULE
ASD10410256
  53   57    0    0    0
SMALL
NO_CHARGES


@<TRIPOS>ATOM
   1 C1             0.0476     1.1407     0.2464 C.ar    
   2 C2             0.1830    -0.1897     0.6210 C.ar    
   3 C3             1.4476    -0.7440     0.7694 C.ar    
   4 C4             2.5704     0.0277     0.5449 C.ar    
   5 C5             2.4350     1.3581     0.1703 C.ar    
   6 C6             1.1703     1.9123     0.0215 C.ar    
   7 N7             3.5736     2.1409    -0.0569 N.pl3   
   8 C8             4.7337     1.5543    -0.5603 C.2     
   9 N9             5.8859     2.1607    -0.7161 N.2     
  10 N10            4.8501     0.2809    -0.9560 N.2     
  11 C11            6.0767     0.0567    -1.3751 C.2     
  12 N12            6.7791     1.2154    -1.2459 N.pl3   
  13 C13            8.1119     1.4216    -1.5730 C.ar    
  14 N14            6.5653    -1.1414    -1.8573 N.pl3   
  15 C15            8.5055     2.5381    -2.3470 C.ar    
  16 N16            9.0509     0.5808    -1.1641 N.ar    
  17 C17           10.3255     0.7656    -1.4689 C.ar    
  18 N18           10.7479     1.7791    -2.1869 N.ar    
  19 C19            9.8818     2.6927    -2.6474 C.ar    
  20 C20           10.2973     3.7882    -3.4173 C.ar    
  21 C21            9.3749     4.6880    -3.8604 C.ar    
  22 C22            8.0224     4.5375    -3.5600 C.ar    
  23 C23            7.5832     3.4804    -2.8173 C.ar    
  24 N24           -0.9551    -0.9717     0.8495 N.3     
  25 C25           -0.5848    -2.3410     1.2335 C.3     
  26 C26           -1.8515    -3.1392     1.5508 C.3     
  27 N27           -2.7314    -3.1452     0.3738 N.3     
  28 C28           -3.1017    -1.7759    -0.0102 C.3     
  29 C29           -1.8350    -0.9776    -0.3276 C.3     
  30 C30           -3.9259    -3.9659     0.6136 C.3     
  31 Cl31           6.8802     5.7073    -4.1437 Cl      
  32 H32           -0.9360     1.5705     0.1266 H       
  33 H33            1.5529    -1.7786     1.0608 H       
  34 H34            3.5538    -0.4032     0.6610 H       
  35 H35            1.0649     2.9469    -0.2702 H       
  36 H36            3.5552     3.0914     0.1359 H       
  37 H37            5.9842    -1.9163    -1.9097 H       
  38 H38            7.4897    -1.2081    -2.1437 H       
  39 H39           11.0505     0.0501    -1.1101 H       
  40 H40           11.3422     3.9183    -3.6575 H       
  41 H41            9.6970     5.5313    -4.4534 H       
  42 H42            6.5327     3.3737    -2.5905 H       
  43 H43           -0.0511    -2.8176     0.4112 H       
  44 H44            0.0563    -2.3108     2.1145 H       
  45 H45           -1.5812    -4.1634     1.8079 H       
  46 H46           -2.3710    -2.6782     2.3909 H       
  47 H47           -3.7428    -1.8060    -0.8912 H       
  48 H48           -3.6354    -1.2993     0.8121 H       
  49 H49           -2.1054     0.0465    -0.5846 H       
  50 H50           -1.3155    -1.4387    -1.1676 H       
  51 H51           -4.4794    -3.5629     1.4617 H       
  52 H52           -4.5597    -3.9530    -0.2731 H       
  53 H53           -3.6250    -4.9909     0.8301 H       
@<TRIPOS>BOND
   1    1    2 ar
   2    1    6 ar
   3    1   32 1
   4    2    3 ar
   5    2   24 1
   6    3    4 ar
   7    3   33 1
   8    4    5 ar
   9    4   34 1
  10    5    6 ar
  11    5    7 1
  12    6   35 1
  13    7    8 1
  14    7   36 1
  15    8    9 2
  16    8   10 1
  17    9   12 1
  18   10   11 2
  19   11   12 1
  20   11   14 1
  21   12   13 1
  22   13   15 ar
  23   13   16 ar
  24   14   37 1
  25   14   38 1
  26   15   19 ar
  27   15   23 ar
  28   16   17 ar
  29   17   18 ar
  30   17   39 1
  31   18   19 ar
  32   19   20 ar
  33   20   21 ar
  34   20   40 1
  35   21   22 ar
  36   21   41 1
  37   22   23 ar
  38   22   31 1
  39   23   42 1
  40   24   25 1
  41   24   29 1
  42   25   26 1
  43   25   43 1
  44   25   44 1
  45   26   27 1
  46   26   45 1
  47   26   46 1
  48   27   28 1
  49   27   30 1
  50   28   29 1
  51   28   47 1
  52   28   48 1
  53   29   49 1
  54   29   50 1
  55   30   51 1
  56   30   52 1
  57   30   53 1

#	End of record

