#	Name: ASD10410202
#	Creating user name:	WinNT
#	Creation time:	15. 06. 2019 21:27

#	Modifying user name:	WinNT
#	Modification time:	15. 06. 2019 21:27

#	Program:	/corina/corina34_cracker 3.40 0067  02.08.2006

@<TRIPOS>MOLECULE
ASD10410202
  51   54    0    0    0
SMALL
NO_CHARGES


@<TRIPOS>ATOM
   1 C1             0.0199     1.3696    -0.0072 C.ar    
   2 C2             0.0328    -0.0164     0.0479 C.ar    
   3 C3             1.2399    -0.6995     0.0629 C.ar    
   4 C4             2.4301    -0.0002     0.0231 C.ar    
   5 C5             2.4181     1.3874    -0.0320 C.ar    
   6 C6             1.2091     2.0706    -0.0470 C.ar    
   7 O7            -1.1387    -0.7058     0.0876 O.3     
   8 N8             3.6240     2.0971    -0.0720 N.pl3   
   9 C9             3.6894     3.3249    -0.7316 C.2     
  10 N10            4.7294     4.1240    -0.7525 N.2     
  11 N11            2.7034     3.8746    -1.4498 N.2     
  12 C12            3.0998     5.0329    -1.9327 C.2     
  13 N13            4.3720     5.2416    -1.5237 N.pl3   
  14 C14            5.1750     6.3535    -1.8129 C.ar    
  15 N15            2.3495     5.8844    -2.7224 N.pl3   
  16 C16            4.6671     7.6362    -1.6626 C.ar    
  17 C17           -1.0512    -2.1310     0.1434 C.3     
  18 C18           -2.4596    -2.7274     0.1819 C.3     
  19 N19           -3.1520    -2.4297    -1.0790 N.3     
  20 C20           -4.4153    -3.1835    -1.1789 C.3     
  21 C21           -5.5467    -2.1545    -1.3846 C.3     
  22 C22           -4.7984    -0.9222    -1.9576 C.3     
  23 C23           -3.4549    -0.9868    -1.1893 C.3     
  24 C24            6.4846     6.1740    -2.2458 C.ar    
  25 C25            7.2734     7.2736    -2.5295 C.ar    
  26 C26            6.7608     8.5498    -2.3831 C.ar    
  27 C27            5.4611     8.7305    -1.9479 C.ar    
  28 F28            6.9852     4.9272    -2.3883 F       
  29 H29           -0.9205     1.9005    -0.0234 H       
  30 H30            1.2491    -1.7786     0.1062 H       
  31 H31            3.3699    -0.5322     0.0352 H       
  32 H32            1.1988     3.1497    -0.0899 H       
  33 H33            4.4142     1.7354     0.3590 H       
  34 H34            1.4684     5.6146    -3.0253 H       
  35 H35            2.7042     6.7516    -2.9735 H       
  36 H36            3.6519     7.7791    -1.3231 H       
  37 H37           -0.5254    -2.4976    -0.7382 H       
  38 H38           -0.5068    -2.4267     1.0403 H       
  39 H39           -2.3934    -3.8074     0.3139 H       
  40 H40           -3.0155    -2.2932     1.0130 H       
  41 H41           -4.3744    -3.8646    -2.0289 H       
  42 H42           -4.5863    -3.7439    -0.2597 H       
  43 H43           -6.2806    -2.5264    -2.0995 H       
  44 H44           -6.0221    -1.9094    -0.4349 H       
  45 H45           -4.6397    -1.0261    -3.0310 H       
  46 H46           -5.3338    -0.0002    -1.7311 H       
  47 H47           -3.5626    -0.5449    -0.1987 H       
  48 H48           -2.6720    -0.4765    -1.7503 H       
  49 H49            8.2906     7.1359    -2.8653 H       
  50 H50            7.3787     9.4073    -2.6052 H       
  51 H51            5.0643     9.7286    -1.8348 H       
@<TRIPOS>BOND
   1    1    2 ar
   2    1    6 ar
   3    1   29 1
   4    2    3 ar
   5    2    7 1
   6    3    4 ar
   7    3   30 1
   8    4    5 ar
   9    4   31 1
  10    5    6 ar
  11    5    8 1
  12    6   32 1
  13    7   17 1
  14    8    9 1
  15    8   33 1
  16    9   10 2
  17    9   11 1
  18   10   13 1
  19   11   12 2
  20   12   13 1
  21   12   15 1
  22   13   14 1
  23   14   16 ar
  24   14   24 ar
  25   15   34 1
  26   15   35 1
  27   16   27 ar
  28   16   36 1
  29   17   18 1
  30   17   37 1
  31   17   38 1
  32   18   19 1
  33   18   39 1
  34   18   40 1
  35   19   20 1
  36   19   23 1
  37   20   21 1
  38   20   41 1
  39   20   42 1
  40   21   22 1
  41   21   43 1
  42   21   44 1
  43   22   23 1
  44   22   45 1
  45   22   46 1
  46   23   47 1
  47   23   48 1
  48   24   25 ar
  49   24   28 1
  50   25   26 ar
  51   25   49 1
  52   26   27 ar
  53   26   50 1
  54   27   51 1

#	End of record

