#	Name: ASD13490069
#	Creating user name:	WinNT
#	Creation time:	15. 06. 2019 21:30

#	Modifying user name:	WinNT
#	Modification time:	15. 06. 2019 21:30

#	Program:	/corina/corina34_cracker 3.40 0067  02.08.2006

@<TRIPOS>MOLECULE
ASD13490069
  45   48    0    0    0
SMALL
NO_CHARGES


@<TRIPOS>ATOM
   1 C1             0.0245     1.4663    -0.0517 C.ar    
   2 C2             0.1017     0.1186    -0.3963 C.ar    
   3 C3             1.3321    -0.5129    -0.4386 C.ar    
   4 C4             2.4907     0.2000    -0.1367 C.ar    
   5 C5             2.4117     1.5425     0.2064 C.ar    
   6 C6             1.1865     2.1749     0.2494 C.ar    
   7 N7             3.7383    -0.4401    -0.1790 N.pl3   
   8 C8             4.8609     0.0052    -0.8273 C.2     
   9 C9             5.8257    -0.9088    -0.6091 C.2     
  10 N10            5.3116    -1.8871     0.1507 N.2     
  11 C11            4.0634    -1.6151     0.4195 C.2     
  12 C12            7.2385    -0.8440    -1.1296 C.3     
  13 O13            1.4105    -1.8280    -0.7741 O.3     
  14 C14            0.1827    -2.4962    -1.0708 C.3     
  15 C15           -1.2926     2.1483    -0.0113 C.2     
  16 N16           -2.4524     1.5876    -0.2791 N.2     
  17 N17           -3.4324     2.5810    -0.1221 N.pl3   
  18 C18           -2.7790     3.7093     0.2410 C.2     
  19 N19           -1.4941     3.4314     0.3088 N.2     
  20 C20           -4.8766     2.4267    -0.3139 C.3     
  21 C21           -3.4005     5.0228     0.5191 C.ar    
  22 C22           -4.7655     5.1068     0.7954 C.ar    
  23 C23           -5.3400     6.3335     1.0545 C.ar    
  24 C24           -4.5639     7.4816     1.0403 C.ar    
  25 C25           -3.2076     7.4035     0.7665 C.ar    
  26 C26           -2.6225     6.1809     0.5117 C.ar    
  27 F27           -5.1316     8.6811     1.2939 F       
  28 H28           -0.7974    -0.4324    -0.6297 H       
  29 H29            3.3110     2.0931     0.4400 H       
  30 H30            1.1276     3.2197     0.5162 H       
  31 H31            4.9537     0.9142    -1.4030 H       
  32 H32            3.3997    -2.2238     1.0156 H       
  33 H33            7.8676    -0.3218    -0.4088 H       
  34 H34            7.6179    -1.8550    -1.2777 H       
  35 H35            7.2518    -0.3082    -2.0787 H       
  36 H36           -0.4731    -2.4544    -0.2011 H       
  37 H37           -0.3023    -2.0069    -1.9154 H       
  38 H38            0.3870    -3.5370    -1.3221 H       
  39 H39           -5.3524     2.2353     0.6479 H       
  40 H40           -5.2853     3.3400    -0.7462 H       
  41 H41           -5.0665     1.5899    -0.9861 H       
  42 H42           -5.3713     4.2127     0.8060 H       
  43 H43           -6.3966     6.3996     1.2685 H       
  44 H44           -2.6072     8.3012     0.7562 H       
  45 H45           -1.5647     6.1206     0.3025 H       
@<TRIPOS>BOND
   1    1    2 ar
   2    1    6 ar
   3    1   15 1
   4    2    3 ar
   5    2   28 1
   6    3    4 ar
   7    3   13 1
   8    4    5 ar
   9    4    7 1
  10    5    6 ar
  11    5   29 1
  12    6   30 1
  13    7    8 1
  14    7   11 1
  15    8    9 2
  16    8   31 1
  17    9   10 1
  18    9   12 1
  19   10   11 2
  20   11   32 1
  21   12   33 1
  22   12   34 1
  23   12   35 1
  24   13   14 1
  25   14   36 1
  26   14   37 1
  27   14   38 1
  28   15   16 2
  29   15   19 1
  30   16   17 1
  31   17   18 1
  32   17   20 1
  33   18   19 2
  34   18   21 1
  35   20   39 1
  36   20   40 1
  37   20   41 1
  38   21   22 ar
  39   21   26 ar
  40   22   23 ar
  41   22   42 1
  42   23   24 ar
  43   23   43 1
  44   24   25 ar
  45   24   27 1
  46   25   26 ar
  47   25   44 1
  48   26   45 1

#	End of record

