#	Name: ASD10420166
#	Creating user name:	WinNT
#	Creation time:	15. 06. 2019 21:27

#	Modifying user name:	WinNT
#	Modification time:	15. 06. 2019 21:27

#	Program:	/corina/corina34_cracker 3.40 0067  02.08.2006

@<TRIPOS>MOLECULE
ASD10420166
  52   54    0    0    0
SMALL
NO_CHARGES


@<TRIPOS>ATOM
   1 C1            -0.0167     1.3781     0.0096 C.ar    
   2 C2             0.0021    -0.0041     0.0020 C.ar    
   3 C3             1.2084    -0.6789    -0.0132 C.ar    
   4 C4             7.7016     2.8778     5.7541 C.3     
   5 C5             1.1709     2.0855     0.0021 C.ar    
   6 C6             2.3773     1.4107    -0.0131 C.ar    
   7 C7             2.3960     0.0285    -0.0212 C.ar    
   8 C8             9.7095     3.0464     4.2710 C.ar    
   9 C9             8.4660     2.4955     4.5128 C.ar    
  10 C10            7.9222     1.5933     3.6172 C.ar    
  11 C11            6.5652     0.9942     3.8833 C.3     
  12 C12            5.5018     1.8647     3.2650 C.ar    
  13 C13            5.0925     1.6356     1.9645 C.ar    
  14 C14            4.1177     2.4323     1.3953 C.ar    
  15 C15            3.6720     2.1819    -0.0223 C.3     
  16 C16           13.6350     3.5232     1.5957 C.2     
  17 C17           12.3030     2.8250     1.6924 C.3     
  18 C18           10.4130     2.6934     3.1286 C.ar    
  19 C19            9.8652     1.7880     2.2315 C.ar    
  20 C20            8.6211     1.2402     2.4777 C.ar    
  21 C21            4.9326     2.8875     4.0014 C.ar    
  22 C22            3.9577     3.6867     3.4369 C.ar    
  23 O23           13.9782     4.2924     2.4620 O.2     
  24 O24           14.4403     3.2905     0.5473 O.3     
  25 O25           11.6363     3.2344     2.8882 O.3     
  26 C26            3.5493     3.4624     2.1300 C.ar    
  27 C27            8.0255     0.2565     1.5037 C.3     
  28 O28            2.5903     4.2474     1.5724 O.3     
  29 H29           -0.9592     1.9054     0.0170 H       
  30 H30           -0.9258    -0.5567     0.0083 H       
  31 H31            1.2231    -1.7588    -0.0184 H       
  32 H32            7.0750     3.7442     5.5425 H       
  33 H33            7.0741     2.0429     6.0659 H       
  34 H34            8.4030     3.1228     6.5517 H       
  35 H35            1.1563     3.1654     0.0077 H       
  36 H36            3.3385    -0.4987    -0.0324 H       
  37 H37           10.1319     3.7545     4.9686 H       
  38 H38            6.5168    -0.0036     3.4474 H       
  39 H39            6.4014     0.9291     4.9590 H       
  40 H40            5.5354     0.8334     1.3929 H       
  41 H41            4.4344     1.6057    -0.5465 H       
  42 H42            3.5236     3.1349    -0.5302 H       
  43 H43           11.6923     3.0863     0.8282 H       
  44 H44           12.4589     1.7464     1.7143 H       
  45 H45           10.4107     1.5118     1.3413 H       
  46 H46            5.2506     3.0614     5.0187 H       
  47 H47            3.5133     4.4851     4.0126 H       
  48 H48           15.2846     3.7616     0.5292 H       
  49 H49            7.4395     0.7934     0.7577 H       
  50 H50            8.8252    -0.2950     1.0094 H       
  51 H51            7.3808    -0.4402     2.0394 H       
  52 H52            1.6894     3.9215     1.7043 H       
@<TRIPOS>BOND
   1    1    2 ar
   2    1    5 ar
   3    1   29 1
   4    2    3 ar
   5    2   30 1
   6    3    7 ar
   7    3   31 1
   8    4    9 1
   9    4   32 1
  10    4   33 1
  11    4   34 1
  12    5    6 ar
  13    5   35 1
  14    6    7 ar
  15    6   15 1
  16    7   36 1
  17    8    9 ar
  18    8   18 ar
  19    8   37 1
  20    9   10 ar
  21   10   11 1
  22   10   20 ar
  23   11   12 1
  24   11   38 1
  25   11   39 1
  26   12   13 ar
  27   12   21 ar
  28   13   14 ar
  29   13   40 1
  30   14   15 1
  31   14   26 ar
  32   15   41 1
  33   15   42 1
  34   16   17 1
  35   16   23 2
  36   16   24 1
  37   17   25 1
  38   17   43 1
  39   17   44 1
  40   18   19 ar
  41   18   25 1
  42   19   20 ar
  43   19   45 1
  44   20   27 1
  45   21   22 ar
  46   21   46 1
  47   22   26 ar
  48   22   47 1
  49   24   48 1
  50   26   28 1
  51   27   49 1
  52   27   50 1
  53   27   51 1
  54   28   52 1

#	End of record

