#	Name: ASD13680058
#	Creating user name:	WinNT
#	Creation time:	15. 06. 2019 21:30

#	Modifying user name:	WinNT
#	Modification time:	15. 06. 2019 21:30

#	Program:	/corina/corina34_cracker 3.40 0067  02.08.2006

@<TRIPOS>MOLECULE
ASD13680058
  41   44    0    0    0
SMALL
NO_CHARGES


@<TRIPOS>ATOM
   1 C1             0.2665     1.2941    -0.4869 C.ar    
   2 C2             0.2589    -0.0670    -0.2801 C.ar    
   3 C3             1.1404    -0.6370     0.6430 C.ar    
   4 C4             2.0270     0.1779     1.3531 C.ar    
   5 C5             2.0291     1.5382     1.1412 C.ar    
   6 C6             1.1502     2.1022     0.2217 C.ar    
   7 N7             1.1552     3.4799     0.0098 N.pl3   
   8 C8             2.3368     4.1896     0.1066 C.ar    
   9 C9             1.1350    -2.0523     0.8611 C.1     
  10 N10            1.1307    -3.1750     1.0340 N.1     
  11 N11            2.3255     5.5176     0.0196 N.ar    
  12 N12            3.4851     3.5475     0.2921 N.ar    
  13 C13            4.6185     4.2341     0.3851 C.ar    
  14 N14            4.5997     5.5620     0.2921 N.ar    
  15 C15            3.4551     6.1973     0.1126 C.ar    
  16 C16            3.4377     7.7010     0.0135 C.3     
  17 C17            3.2614     8.2929     1.3882 C.ar    
  18 C18            2.9233     9.3872     3.9297 C.ar    
  19 C19            1.8316     9.0821     3.1470 C.ar    
  20 C20            1.9983     8.5366     1.8804 C.ar    
  21 C21            4.2075     9.1440     3.4547 C.ar    
  22 N22            5.4647     9.3310     3.9859 N.pl3   
  23 C23            4.3774     8.5920     2.1719 C.ar    
  24 C24            5.8233     8.4627     1.9749 C.2     
  25 C25            6.4139     8.9196     3.0904 C.2     
  26 N26            5.8136     3.5719     0.5783 N.pl3   
  27 Cl27           0.6071     8.1605     0.9125 Cl      
  28 H28           -0.4112     1.7346    -1.2032 H       
  29 H29           -0.4276    -0.6936    -0.8302 H       
  30 H30            2.7091    -0.2591     2.0673 H       
  31 H31            2.7135     2.1684     1.6897 H       
  32 H32            0.3291     3.9405    -0.2057 H       
  33 H33            4.3786     8.0479    -0.4135 H       
  34 H34            2.6116     8.0135    -0.6253 H       
  35 H35            2.7819     9.8113     4.9128 H       
  36 H36            0.8362     9.2724     3.5203 H       
  37 H37            5.6496     9.7000     4.8637 H       
  38 H38            6.3199     8.0732     1.0985 H       
  39 H39            7.4804     8.9574     3.2563 H       
  40 H40            5.8265     2.6043     0.6463 H       
  41 H41            6.6408     4.0739     0.6460 H       
@<TRIPOS>BOND
   1    1    2 ar
   2    1    6 ar
   3    1   28 1
   4    2    3 ar
   5    2   29 1
   6    3    4 ar
   7    3    9 1
   8    4    5 ar
   9    4   30 1
  10    5    6 ar
  11    5   31 1
  12    6    7 1
  13    7    8 1
  14    7   32 1
  15    8   12 ar
  16    8   11 ar
  17    9   10 3
  18   11   15 ar
  19   12   13 ar
  20   13   14 ar
  21   13   26 1
  22   14   15 ar
  23   15   16 1
  24   16   17 1
  25   16   33 1
  26   16   34 1
  27   17   23 ar
  28   17   20 ar
  29   18   19 ar
  30   18   21 ar
  31   18   35 1
  32   19   20 ar
  33   19   36 1
  34   20   27 1
  35   21   23 ar
  36   21   22 1
  37   22   25 1
  38   22   37 1
  39   23   24 1
  40   24   25 2
  41   24   38 1
  42   25   39 1
  43   26   40 1
  44   26   41 1

#	End of record

