#	Name: ASD11540001
#	Creating user name:	WinNT
#	Creation time:	15. 06. 2019 21:29

#	Modifying user name:	WinNT
#	Modification time:	15. 06. 2019 21:29

#	Program:	/corina/corina34_cracker 3.40 0067  02.08.2006

@<TRIPOS>MOLECULE
ASD11540001
  72   76    0    0    0
SMALL
NO_CHARGES


@<TRIPOS>ATOM
   1 C1            -0.0178     1.4608     0.0101 C.3     
   2 C2             1.2806    -0.7192    -0.0140 C.3     
   3 C3            -3.5241    -1.7331   -12.4856 C.ar    
   4 C4            -4.8790     0.2153   -12.1683 C.ar    
   5 C5            -2.8921    -2.5083    -5.0308 C.ar    
   6 C6            -4.2448    -0.5585    -4.7124 C.ar    
   7 C7            -3.1968    -1.2986   -13.7564 C.ar    
   8 C8            -4.5513     0.6501   -13.4389 C.ar    
   9 C9            -3.2195    -2.9429    -3.7600 C.ar    
  10 C10           -4.5732    -0.9938    -3.4422 C.ar    
  11 C11           -2.3677    -0.0655     0.0243 C.2     
  12 C12           -1.1790    -2.1904     0.0011 C.2     
  13 C13           -3.6591    -0.8454     0.0390 C.3     
  14 C14           -2.2990    -2.8603    -0.3145 C.2     
  15 C15           -3.7040    -0.9058    -9.3026 C.3     
  16 C16           -4.0667    -1.3870    -7.8963 C.3     
  17 C17           -4.7224    -1.4502   -10.3064 C.3     
  18 C18           -3.0483    -0.8427    -6.8926 C.3     
  19 C19           -3.3529     0.3671   -15.6181 C.3     
  20 C20           -4.4178    -2.6600    -1.5808 C.3     
  21 C21           -4.3652    -0.9762   -11.6916 C.ar    
  22 C22           -3.4055    -1.3166    -5.5073 C.ar    
  23 C23           -3.7105    -0.1071   -14.2331 C.ar    
  24 C24           -4.0602    -2.1857    -2.9658 C.ar    
  25 C25           -1.1971    -0.7183     0.0096 C.2     
  26 N26            0.0021    -0.0041     0.0020 N.pl3   
  27 N27           -3.4425    -2.1397    -0.6194 N.pl3   
  28 N28           -7.9681     1.0129   -17.9120 N.ar    
  29 C29           -7.3822     1.7756   -17.0072 C.ar    
  30 N30           -6.1993     1.4927   -16.5035 N.ar    
  31 C31           -5.5380     0.4085   -16.8951 C.ar    
  32 C32           -6.1191    -0.4358   -17.8564 C.ar    
  33 C33           -7.3834    -0.0918   -18.3640 C.ar    
  34 N34           -8.0055    -0.8850   -19.3121 N.pl3   
  35 N35           -5.2493    -1.4513   -18.0738 N.2     
  36 C36           -4.1971    -1.2881   -17.3256 C.2     
  37 N37           -4.3273    -0.1545   -16.5797 N.pl3   
  38 H38            1.0048     1.8381     0.0023 H       
  39 H39           -0.5450     1.8219    -0.8730 H       
  40 H40           -0.5280     1.8123     0.9069 H       
  41 H41            1.6074    -0.9021     1.0096 H       
  42 H42            1.1583    -1.6705    -0.5318 H       
  43 H43            2.0272    -0.1171    -0.5318 H       
  44 H44           -3.1263    -2.6662   -12.1148 H       
  45 H45           -5.5364     0.8065   -11.5481 H       
  46 H46           -2.2317    -3.0977    -5.6496 H       
  47 H47           -4.6456     0.3727    -5.0846 H       
  48 H48           -2.5393    -1.8898   -14.3766 H       
  49 H49           -4.9530     1.5808   -13.8116 H       
  50 H50           -2.8187    -3.8741    -3.3878 H       
  51 H51           -5.2303    -0.4024    -2.8218 H       
  52 H52           -2.3864     1.0143     0.0212 H       
  53 H53           -0.2740    -2.7262     0.2465 H       
  54 H54           -3.9751    -1.0085     1.0693 H       
  55 H55           -4.4280    -0.2880    -0.4961 H       
  56 H56           -2.3083    -3.9401    -0.3307 H       
  57 H57           -3.7156     0.1838    -9.3280 H       
  58 H58           -2.7086    -1.2648    -9.5640 H       
  59 H59           -5.0621    -1.0280    -7.6349 H       
  60 H60           -4.0552    -2.4767    -7.8709 H       
  61 H61           -4.7109    -2.5398   -10.2809 H       
  62 H62           -5.7178    -1.0912   -10.0449 H       
  63 H63           -2.0529    -1.2017    -7.1540 H       
  64 H64           -3.0599     0.2470    -6.9180 H       
  65 H65           -3.3650     1.4568   -15.6435 H       
  66 H66           -2.3572     0.0086   -15.8791 H       
  67 H67           -5.4131    -2.3005    -1.3193 H       
  68 H68           -4.4070    -3.7496    -1.5557 H       
  69 H69           -7.8926     2.6647   -16.6677 H       
  70 H70           -8.8785    -0.6371   -19.6546 H       
  71 H71           -7.5685    -1.6889   -19.6342 H       
  72 H72           -3.3465    -1.9530   -17.2989 H       
@<TRIPOS>BOND
   1    1   26 1
   2    1   38 1
   3    1   39 1
   4    1   40 1
   5    2   26 1
   6    2   41 1
   7    2   42 1
   8    2   43 1
   9    3    7 ar
  10    3   21 ar
  11    3   44 1
  12    4    8 ar
  13    4   21 ar
  14    4   45 1
  15    5    9 ar
  16    5   22 ar
  17    5   46 1
  18    6   10 ar
  19    6   22 ar
  20    6   47 1
  21    7   23 ar
  22    7   48 1
  23    8   23 ar
  24    8   49 1
  25    9   24 ar
  26    9   50 1
  27   10   24 ar
  28   10   51 1
  29   11   13 1
  30   11   25 2
  31   11   52 1
  32   12   14 2
  33   12   25 1
  34   12   53 1
  35   13   27 1
  36   13   54 1
  37   13   55 1
  38   14   27 1
  39   14   56 1
  40   15   16 1
  41   15   17 1
  42   15   57 1
  43   15   58 1
  44   16   18 1
  45   16   59 1
  46   16   60 1
  47   17   21 1
  48   17   61 1
  49   17   62 1
  50   18   22 1
  51   18   63 1
  52   18   64 1
  53   19   23 1
  54   19   37 1
  55   19   65 1
  56   19   66 1
  57   20   24 1
  58   20   27 1
  59   20   67 1
  60   20   68 1
  61   25   26 1
  62   28   29 ar
  63   28   33 ar
  64   29   30 ar
  65   29   69 1
  66   30   31 ar
  67   31   32 ar
  68   31   37 1
  69   32   33 ar
  70   32   35 1
  71   33   34 1
  72   34   70 1
  73   34   71 1
  74   35   36 2
  75   36   37 1
  76   36   72 1

#	End of record

