#	Name: ASD11740008
#	Creating user name:	WinNT
#	Creation time:	15. 06. 2019 21:29

#	Modifying user name:	WinNT
#	Modification time:	15. 06. 2019 21:29

#	Program:	/corina/corina34_cracker 3.40 0067  02.08.2006

@<TRIPOS>MOLECULE
ASD11740008
  43   44    0    0    0
SMALL
NO_CHARGES


@<TRIPOS>ATOM
   1 C1             0.0524     1.3644     0.1148 C.ar    
   2 C2             0.0844    -0.0123     0.1966 C.ar    
   3 C3             1.2928    -0.6804     0.3187 C.ar    
   4 C4             2.4762     0.0232     0.3600 C.ar    
   5 C5             2.4610     1.4183     0.2783 C.ar    
   6 C6             1.2357     2.0918     0.1543 C.ar    
   7 N7             1.2062     3.4778     0.0716 N.am    
   8 S8            -0.0284     4.3235     0.7807 S.o2    
   9 O9             0.3286     5.6863     0.5953 O.2     
  10 O10           -1.2046     3.7874     0.1904 O.2     
  11 C11            3.7235     2.1776     0.3224 C.2     
  12 N12            4.8975     1.5266     0.4420 N.am    
  13 O13            3.7058     3.3914     0.2510 O.2     
  14 C14            6.0938     2.2366     0.4041 C.ar    
  15 C15            7.2274     1.6769    -0.2062 C.ar    
  16 C16            8.4222     2.4004    -0.2372 C.ar    
  17 C17            8.4808     3.6552     0.3296 C.ar    
  18 C18            7.3602     4.2044     0.9315 C.ar    
  19 C19            6.1708     3.5044     0.9647 C.ar    
  20 C20            7.1577     0.3343    -0.8099 C.2     
  21 O21            8.2751    -0.2489    -1.2866 O.3     
  22 O22            6.0927    -0.2468    -0.8778 O.2     
  23 C23            8.1317    -1.5718    -1.8676 C.3     
  24 C24            9.4963    -2.0675    -2.3503 C.3     
  25 C25            0.0646     3.8742     2.5357 C.3     
  26 H26           -0.8929     1.8771     0.0154 H       
  27 H27           -0.8380    -0.5732     0.1658 H       
  28 H28            1.3065    -1.7585     0.3820 H       
  29 H29            3.4147    -0.5025     0.4559 H       
  30 H30            1.9088     3.9505    -0.4015 H       
  31 H31            4.9087     0.5632     0.5544 H       
  32 H32            9.2989     1.9767    -0.7045 H       
  33 H33            9.4051     4.2132     0.3048 H       
  34 H34            7.4163     5.1883     1.3732 H       
  35 H35            5.3017     3.9397     1.4354 H       
  36 H36            7.7408    -2.2581    -1.1164 H       
  37 H37            7.4428    -1.5256    -2.7110 H       
  38 H38            9.8872    -1.3812    -3.1016 H       
  39 H39           10.1853    -2.1138    -1.5069 H       
  40 H40            9.3887    -3.0606    -2.7864 H       
  41 H41            1.0372     4.1635     2.9338 H       
  42 H42           -0.7215     4.3917     3.0854 H       
  43 H43           -0.0659     2.7973     2.6425 H       
@<TRIPOS>BOND
   1    1    2 ar
   2    1    6 ar
   3    1   26 1
   4    2    3 ar
   5    2   27 1
   6    3    4 ar
   7    3   28 1
   8    4    5 ar
   9    4   29 1
  10    5    6 ar
  11    5   11 1
  12    6    7 1
  13    7    8 am
  14    7   30 1
  15    8    9 2
  16    8   10 2
  17    8   25 1
  18   11   12 am
  19   11   13 2
  20   12   14 1
  21   12   31 1
  22   14   15 ar
  23   14   19 ar
  24   15   16 ar
  25   15   20 1
  26   16   17 ar
  27   16   32 1
  28   17   18 ar
  29   17   33 1
  30   18   19 ar
  31   18   34 1
  32   19   35 1
  33   20   21 1
  34   20   22 2
  35   21   23 1
  36   23   24 1
  37   23   36 1
  38   23   37 1
  39   24   38 1
  40   24   39 1
  41   24   40 1
  42   25   41 1
  43   25   42 1
  44   25   43 1

#	End of record

