#	Name: ASD10220049
#	Creating user name:	WinNT
#	Creation time:	15. 06. 2019 21:26

#	Modifying user name:	WinNT
#	Modification time:	15. 06. 2019 21:26

#	Program:	/corina/corina34_cracker 3.40 0067  02.08.2006

@<TRIPOS>MOLECULE
ASD10220049
  33   36    0    0    0
SMALL
NO_CHARGES


@<TRIPOS>ATOM
   1 C1            -0.0828     1.4458    -0.1514 C.2     
   2 C2            -0.1177    -0.0271    -0.2946 C.ar    
   3 C3            -1.2620    -0.7517     0.1112 C.ar    
   4 C4            -2.4188    -0.0077     0.6409 C.2     
   5 C5            -2.4871     1.3871     0.5516 C.2     
   6 C6            -1.4104     2.1677    -0.0617 C.2     
   7 O7            -3.5254    -0.4301     1.2481 O.3     
   8 C8            -4.3298     0.5950     1.5675 C.2     
   9 C9            -3.7533     1.7702     1.1655 C.2     
  10 O10           -1.5699     3.2991    -0.4735 O.2     
  11 O11            0.9682     2.0501    -0.1029 O.2     
  12 C12           -4.2955     3.1296     1.3204 C.2     
  13 O13           -3.6198     4.0926     1.0115 O.2     
  14 C14           -5.6612     3.3246     1.8513 C.ar    
  15 C15            0.9731    -0.7111    -0.8251 C.ar    
  16 C16           -1.2810    -2.1353    -0.0044 C.ar    
  17 C17           -5.9807     4.4876     2.5550 C.ar    
  18 C18           -7.2570     4.6631     3.0478 C.ar    
  19 C19           -8.2197     3.6897     2.8465 C.ar    
  20 C20           -7.9099     2.5347     2.1501 C.ar    
  21 C21           -6.6392     2.3492     1.6465 C.ar    
  22 C22           -0.1831    -2.7972    -0.5298 C.ar    
  23 C23            0.9325    -2.0894    -0.9396 C.ar    
  24 H24           -5.2847     0.5068     2.0643 H       
  25 H25            1.8488    -0.1669    -1.1469 H       
  26 H26           -2.1487    -2.6937     0.3144 H       
  27 H27           -5.2301     5.2478     2.7134 H       
  28 H28           -7.5054     5.5621     3.5922 H       
  29 H29           -9.2173     3.8318     3.2351 H       
  30 H30           -8.6659     1.7788     1.9969 H       
  31 H31           -6.3987     1.4473     1.1031 H       
  32 H32           -0.1983    -3.8733    -0.6197 H       
  33 H33            1.7792    -2.6173    -1.3529 H       
@<TRIPOS>BOND
   1    1    2 1
   2    1   11 2
   3    1    6 1
   4    2    3 ar
   5    2   15 ar
   6    3    4 1
   7    3   16 ar
   8    4    5 2
   9    4    7 1
  10    5    6 1
  11    5    9 1
  12    6   10 2
  13    7    8 1
  14    8    9 2
  15    8   24 1
  16    9   12 1
  17   12   13 2
  18   12   14 1
  19   14   17 ar
  20   14   21 ar
  21   15   23 ar
  22   15   25 1
  23   16   22 ar
  24   16   26 1
  25   17   18 ar
  26   17   27 1
  27   18   19 ar
  28   18   28 1
  29   19   20 ar
  30   19   29 1
  31   20   21 ar
  32   20   30 1
  33   21   31 1
  34   22   23 ar
  35   22   32 1
  36   23   33 1

#	End of record

