#	Name: ASD10100008
#	Creating user name:	WinNT
#	Creation time:	15. 06. 2019 21:24

#	Modifying user name:	WinNT
#	Modification time:	15. 06. 2019 21:24

#	Program:	/corina/corina34_cracker 3.40 0067  02.08.2006

@<TRIPOS>MOLECULE
ASD10100008
  51   54    0    0    0
SMALL
NO_CHARGES


@<TRIPOS>ATOM
   1 C1            -1.6426     1.4333    -1.0510 C.2     
   2 C2            -2.2504     2.0158    -2.2658 C.ar    
   3 C3            -2.5934     1.1941    -3.3411 C.ar    
   4 C4            -3.1608     1.7442    -4.4718 C.ar    
   5 C5            -3.3897     3.1070    -4.5419 C.ar    
   6 C6            -3.0521     3.9270    -3.4797 C.ar    
   7 C7            -2.4893     3.3891    -2.3408 C.ar    
   8 O8            -0.9851     0.4129    -1.1292 O.2     
   9 N9            -1.8122     2.0359     0.1426 N.am    
  10 C10           -1.3067     1.4008     1.3621 C.3     
  11 C11           -3.7427     5.7410     0.1415 C.2     
  12 N12           -4.5641     4.5900     0.2203 N.pl3   
  13 C13           -3.9131     3.3745    -0.1178 C.2     
  14 C14           -2.4757     3.2764     0.2174 C.2     
  15 C15           -1.8028     4.3881     0.5972 C.2     
  16 N16           -2.4572     5.6125     0.7030 N.pl3   
  17 O17           -4.5977     1.0857    -1.1774 O.3     
  18 C18           -4.5687     2.3655    -0.7111 C.2     
  19 C19           -5.8153     1.8129    -1.3526 C.3     
  20 O20           -5.1203     7.5836    -1.0783 O.3     
  21 C21           -4.1563     6.8685    -0.4308 C.2     
  22 C22           -3.9050     8.2967    -0.8407 C.3     
  23 C23           -1.8221     6.7435     1.3840 C.3     
  24 C24           -2.1884     6.7154     2.8692 C.3     
  25 C25           -1.5251     7.8966     3.5805 C.3     
  26 C26           -1.8914     7.8686     5.0657 C.3     
  27 N27           -0.4451     4.3063     0.8848 N.pl3   
  28 H28           -2.4146     0.1304    -3.2880 H       
  29 H29           -3.4266     1.1097    -5.3044 H       
  30 H30           -3.8335     3.5326    -5.4297 H       
  31 H31           -3.2330     4.9899    -3.5410 H       
  32 H32           -2.2301     4.0297    -1.5109 H       
  33 H33           -0.2556     1.6563     1.4959 H       
  34 H34           -1.8787     1.7546     2.2199 H       
  35 H35           -1.4098     0.3190     1.2779 H       
  36 H36           -5.4966     4.6290     0.4846 H       
  37 H37           -6.0689     2.1533    -2.3566 H       
  38 H38           -6.6574     1.5654    -0.7063 H       
  39 H39           -3.2433     8.4777    -1.6877 H       
  40 H40           -3.9028     9.0601    -0.0626 H       
  41 H41           -0.7399     6.6719     1.2752 H       
  42 H42           -2.1709     7.6765     0.9413 H       
  43 H43           -3.2706     6.7870     2.9780 H       
  44 H44           -1.8396     5.7824     3.3119 H       
  45 H45           -0.4429     7.8251     3.4717 H       
  46 H46           -1.8739     8.8296     3.1378 H       
  47 H47           -1.4189     8.7101     5.5724 H       
  48 H48           -2.9736     7.9401     5.1745 H       
  49 H49           -1.5426     6.9356     5.5084 H       
  50 H50           -0.0003     3.4443     0.8840 H       
  51 H51            0.0573     5.1112     1.0863 H       
@<TRIPOS>BOND
   1    1    2 1
   2    1    8 2
   3    1    9 am
   4    2    3 ar
   5    2    7 ar
   6    3    4 ar
   7    3   28 1
   8    4    5 ar
   9    4   29 1
  10    5    6 ar
  11    5   30 1
  12    6    7 ar
  13    6   31 1
  14    7   32 1
  15    9   10 1
  16    9   14 1
  17   10   33 1
  18   10   34 1
  19   10   35 1
  20   11   12 1
  21   11   16 1
  22   11   21 2
  23   12   13 1
  24   12   36 1
  25   13   14 1
  26   13   18 2
  27   14   15 2
  28   15   16 1
  29   15   27 1
  30   16   23 1
  31   17   18 1
  32   17   19 1
  33   18   19 1
  34   19   37 1
  35   19   38 1
  36   20   21 1
  37   20   22 1
  38   21   22 1
  39   22   39 1
  40   22   40 1
  41   23   24 1
  42   23   41 1
  43   23   42 1
  44   24   25 1
  45   24   43 1
  46   24   44 1
  47   25   26 1
  48   25   45 1
  49   25   46 1
  50   26   47 1
  51   26   48 1
  52   26   49 1
  53   27   50 1
  54   27   51 1

#	End of record

