#	Name: ASD11000110
#	Creating user name:	WinNT
#	Creation time:	15. 06. 2019 21:28

#	Modifying user name:	WinNT
#	Modification time:	15. 06. 2019 21:28

#	Program:	/corina/corina34_cracker 3.40 0067  02.08.2006

@<TRIPOS>MOLECULE
ASD11000110
  59   62    0    0    0
SMALL
NO_CHARGES


@<TRIPOS>ATOM
   1 C1            -0.0752     1.4355    -0.0462 C.2     
   2 C2             0.1197    -0.0549     0.0613 C.3     
   3 N3            -0.5383    -0.5467     1.2764 N.am    
   4 C4            -0.4788    -0.7279    -1.1486 C.ar    
   5 C5            -1.3179    -1.8155    -1.0468 C.ar    
   6 C6            -0.1562    -0.2155    -2.3980 C.ar    
   7 C7            -1.8255    -2.4022    -2.1999 C.ar    
   8 C8            -1.5044    -1.8980    -3.4465 C.ar    
   9 C9            -0.6646    -0.7929    -3.5472 C.ar    
  10 C10           -0.7638    -1.9978     1.3827 C.3     
  11 C11           -1.7347    -2.4045     0.2754 C.3     
  12 C12           -0.9208     0.2957     2.2565 C.2     
  13 O13           -0.6264     1.4735     2.1948 O.2     
  14 C14           -1.6984    -0.2126     3.4066 C.ar    
  15 C15           -1.3926     0.2101     4.7012 C.ar    
  16 C16            0.9773     2.2418    -0.0698 C.2     
  17 C17            0.7862     3.7033    -0.1753 C.ar    
  18 C18            1.8928     4.5536    -0.2003 C.ar    
  19 C19           -0.5012     4.2366    -0.2560 C.ar    
  20 C20           -0.6753     5.6006    -0.3547 C.ar    
  21 C21            0.4280     6.4435    -0.3745 C.ar    
  22 C22            1.7104     5.9165    -0.2993 C.ar    
  23 O23            0.2523     7.7872    -0.4728 O.3     
  24 C24            1.4303     8.5961    -0.4876 C.3     
  25 C25           -2.7453    -1.1128     3.2019 C.ar    
  26 C26           -3.4672    -1.5829     4.2794 C.ar    
  27 C27           -3.1558    -1.1636     5.5606 C.ar    
  28 C28           -2.1224    -0.2677     5.7700 C.ar    
  29 C29           -2.8617    -3.6096    -4.3869 C.3     
  30 O30           -2.0067    -2.4791    -4.5688 O.3     
  31 O31           -0.3457    -0.2845    -4.7675 O.3     
  32 C32            0.5217     0.8509    -4.7908 C.3     
  33 H33           -1.0719     1.8467    -0.1085 H       
  34 H34            1.1853    -0.2788     0.1101 H       
  35 H35            0.4969     0.6414    -2.4731 H       
  36 H36           -2.4767    -3.2603    -2.1215 H       
  37 H37            0.1805    -2.5278     1.2582 H       
  38 H38           -1.1945    -2.2338     2.3558 H       
  39 H39           -2.7341    -2.0495     0.5268 H       
  40 H40           -1.7510    -3.4914     0.1944 H       
  41 H41           -0.5862     0.9093     4.8659 H       
  42 H42            1.9741     1.8303    -0.0120 H       
  43 H43            2.8906     4.1444    -0.1419 H       
  44 H44           -1.3597     3.5816    -0.2414 H       
  45 H45           -1.6711     6.0140    -0.4172 H       
  46 H46            2.5661     6.5753    -0.3149 H       
  47 H47            1.1490     9.6460    -0.5694 H       
  48 H48            1.9894     8.4405     0.4350 H       
  49 H49            2.0508     8.3187    -1.3397 H       
  50 H50           -2.9898    -1.4403     2.2023 H       
  51 H51           -4.2775    -2.2795     4.1224 H       
  52 H52           -3.7246    -1.5341     6.4007 H       
  53 H53           -1.8844     0.0556     6.7726 H       
  54 H54           -2.3164    -4.3978    -3.8680 H       
  55 H55           -3.7292    -3.3176    -3.7950 H       
  56 H56           -3.1918    -3.9756    -5.3591 H       
  57 H57            0.6949     1.1547    -5.8232 H       
  58 H58            0.0599     1.6722    -4.2429 H       
  59 H59            1.4720     0.5917    -4.3240 H       
@<TRIPOS>BOND
   1    1    2 1
   2    1   16 2
   3    1   33 1
   4    2    3 1
   5    2    4 1
   6    2   34 1
   7    3   10 1
   8    3   12 am
   9    4    5 ar
  10    4    6 ar
  11    5    7 ar
  12    5   11 1
  13    6    9 ar
  14    6   35 1
  15    7    8 ar
  16    7   36 1
  17    8    9 ar
  18    8   30 1
  19    9   31 1
  20   10   11 1
  21   10   37 1
  22   10   38 1
  23   11   39 1
  24   11   40 1
  25   12   13 2
  26   12   14 1
  27   14   15 ar
  28   14   25 ar
  29   15   28 ar
  30   15   41 1
  31   16   17 1
  32   16   42 1
  33   17   18 ar
  34   17   19 ar
  35   18   22 ar
  36   18   43 1
  37   19   20 ar
  38   19   44 1
  39   20   21 ar
  40   20   45 1
  41   21   22 ar
  42   21   23 1
  43   22   46 1
  44   23   24 1
  45   24   47 1
  46   24   48 1
  47   24   49 1
  48   25   26 ar
  49   25   50 1
  50   26   27 ar
  51   26   51 1
  52   27   28 ar
  53   27   52 1
  54   28   53 1
  55   29   30 1
  56   29   54 1
  57   29   55 1
  58   29   56 1
  59   31   32 1
  60   32   57 1
  61   32   58 1
  62   32   59 1

#	End of record

