#	Name: ASD10410099
#	Creating user name:	WinNT
#	Creation time:	15. 06. 2019 21:26

#	Modifying user name:	WinNT
#	Modification time:	15. 06. 2019 21:26

#	Program:	/corina/corina34_cracker 3.40 0067  02.08.2006

@<TRIPOS>MOLECULE
ASD10410099
  67   73    0    0    0
SMALL
NO_CHARGES


@<TRIPOS>ATOM
   1 C1             0.0539     1.2349     0.2604 C.ar    
   2 C2             0.1597    -0.0928     0.6535 C.ar    
   3 C3             1.4117    -0.6735     0.8081 C.ar    
   4 C4             2.5513     0.0693     0.5714 C.ar    
   5 C5             2.4455     1.3971     0.1783 C.ar    
   6 C6             1.1934     1.9777     0.0233 C.ar    
   7 N7             3.6012     2.1505    -0.0617 N.pl3   
   8 C8             4.7461     1.5309    -0.5603 C.2     
   9 N9             5.9115     2.1087    -0.7269 N.2     
  10 N10            4.8321     0.2503    -0.9399 N.2     
  11 C11            6.0520    -0.0073    -1.3596 C.2     
  12 N12            6.7811     1.1365    -1.2472 N.pl3   
  13 C13            8.1176     1.3078    -1.5801 C.ar    
  14 N14            6.5116    -1.2224    -1.8277 N.pl3   
  15 N15           -0.9954    -0.8456     0.8943 N.3     
  16 C16           -0.6556    -2.2175     1.2970 C.3     
  17 C17           -1.9396    -2.9822     1.6270 C.3     
  18 N18           -2.8212    -2.9847     0.4513 N.3     
  19 C19           -3.1610    -1.6128     0.0485 C.3     
  20 C20           -1.8770    -0.8481    -0.2815 C.3     
  21 N21            9.0372     0.4476    -1.1674 N.ar    
  22 C22           10.3149     0.5990    -1.4779 C.ar    
  23 N23           10.7593     1.5958    -2.2059 N.ar    
  24 C24            9.9133     2.5238    -2.6753 C.ar    
  25 C25            8.5340     2.4019    -2.3738 C.ar    
  26 C26           -4.9536    -3.7622    -0.5382 C.3     
  27 C27           -5.0595    -5.2581    -0.9654 C.3     
  28 C28           -3.6462    -5.6052    -1.5252 C.3     
  29 C29           -2.7262    -5.6177    -0.2830 C.3     
  30 C30           -4.0336    -3.7748     0.7040 C.3     
  31 C31           -3.6702    -5.2770     0.9103 C.3     
  32 C32           -4.9986    -5.9647     0.4348 C.3     
  33 C33           10.3528     3.6019    -3.4564 C.ar    
  34 C34            9.4507     4.5174    -3.9087 C.ar    
  35 C35            8.0942     4.3997    -3.6070 C.ar    
  36 C36            7.6321     3.3588    -2.8536 C.ar    
  37 F37            7.2254     5.3246    -4.0705 F       
  38 H38           -0.9198     1.6852     0.1359 H       
  39 H39            1.4940    -1.7061     1.1137 H       
  40 H40            3.5250    -0.3821     0.6923 H       
  41 H41            1.1111     3.0101    -0.2827 H       
  42 H42            3.6052     3.1035     0.1191 H       
  43 H43            5.9128    -1.9845    -1.8683 H       
  44 H44            7.4333    -1.3139    -2.1159 H       
  45 H45           -0.1341    -2.7174     0.4808 H       
  46 H46           -0.0127    -2.1895     2.1767 H       
  47 H47           -1.6921    -4.0086     1.8981 H       
  48 H48           -2.4472    -2.4978     2.4612 H       
  49 H49           -3.8040    -1.6408    -0.8312 H       
  50 H50           -3.6825    -1.1129     0.8647 H       
  51 H51           -2.1246     0.1783    -0.5526 H       
  52 H52           -1.3694    -1.3325    -1.1156 H       
  53 H53           11.0236    -0.1309    -1.1155 H       
  54 H54           -4.5063    -3.1698    -1.3363 H       
  55 H55           -5.9372    -3.3706    -0.2786 H       
  56 H56           -5.9022    -5.5114    -1.6087 H       
  57 H57           -3.6561    -6.5860    -2.0006 H       
  58 H58           -3.3197    -4.8425    -2.2322 H       
  59 H59           -2.2838    -6.6047    -0.1478 H       
  60 H60           -1.9473    -4.8612    -0.3793 H       
  61 H61           -4.5642    -3.3874     1.5738 H       
  62 H62           -3.3030    -5.5468     1.9005 H       
  63 H63           -5.8462    -5.6964     1.0653 H       
  64 H64           -4.8893    -7.0453     0.3429 H       
  65 H65           11.4002     3.7064    -3.6978 H       
  66 H66            9.7914     5.3474    -4.5100 H       
  67 H67            6.5795     3.2769    -2.6260 H       
@<TRIPOS>BOND
   1    1    2 ar
   2    1    6 ar
   3    1   38 1
   4    2    3 ar
   5    2   15 1
   6    3    4 ar
   7    3   39 1
   8    4    5 ar
   9    4   40 1
  10    5    6 ar
  11    5    7 1
  12    6   41 1
  13    7    8 1
  14    7   42 1
  15    8    9 2
  16    8   10 1
  17    9   12 1
  18   10   11 2
  19   11   12 1
  20   11   14 1
  21   12   13 1
  22   13   21 ar
  23   13   25 ar
  24   14   43 1
  25   14   44 1
  26   15   16 1
  27   15   20 1
  28   16   17 1
  29   16   45 1
  30   16   46 1
  31   17   18 1
  32   17   47 1
  33   17   48 1
  34   18   19 1
  35   18   30 1
  36   19   20 1
  37   19   49 1
  38   19   50 1
  39   20   51 1
  40   20   52 1
  41   21   22 ar
  42   22   23 ar
  43   22   53 1
  44   23   24 ar
  45   24   25 ar
  46   24   33 ar
  47   25   36 ar
  48   26   27 1
  49   26   30 1
  50   26   54 1
  51   26   55 1
  52   27   28 1
  53   27   32 1
  54   27   56 1
  55   28   29 1
  56   28   57 1
  57   28   58 1
  58   29   31 1
  59   29   59 1
  60   29   60 1
  61   30   31 1
  62   30   61 1
  63   31   32 1
  64   31   62 1
  65   32   63 1
  66   32   64 1
  67   33   34 ar
  68   33   65 1
  69   34   35 ar
  70   34   66 1
  71   35   36 ar
  72   35   37 1
  73   36   67 1

#	End of record

