#	Name: ASD10160261
#	Creating user name:	WinNT
#	Creation time:	15. 06. 2019 21:25

#	Modifying user name:	WinNT
#	Modification time:	15. 06. 2019 21:25

#	Program:	/corina/corina34_cracker 3.40 0067  02.08.2006

@<TRIPOS>MOLECULE
ASD10160261
  47   49    0    0    0
SMALL
NO_CHARGES


@<TRIPOS>ATOM
   1 C1             0.5665     0.9778     1.9108 C.2     
   2 C2             0.4447    -0.3923     1.3837 C.ar    
   3 C3             1.5088    -0.9718     0.6763 C.ar    
   4 C4             1.3859    -2.2611     0.1844 C.ar    
   5 C5             0.2127    -2.9748     0.3922 C.ar    
   6 C6            -0.8426    -2.4000     1.0933 C.ar    
   7 C7            -0.7297    -1.1224     1.5914 C.ar    
   8 O8             1.5908     1.6089     1.7332 O.2     
   9 N9            -0.4593     1.5340     2.5852 N.am    
  10 S10           -0.3224     3.0743     3.1778 S.o2    
  11 O11           -1.5598     3.3077     3.8363 O.2     
  12 O12            0.9013     3.0644     3.9000 O.2     
  13 C13           -0.1812     4.1169     1.7002 C.3     
  14 O14            2.6539    -0.2718     0.4743 O.3     
  15 C15            3.6745    -0.3973     1.4665 C.3     
  16 O16            0.0951    -4.2380    -0.0909 O.3     
  17 C17           -1.3710    -5.6473     1.1507 C.ar    
  18 C18           -1.1057    -4.8622     0.0398 C.ar    
  19 C19           -2.0841    -4.7202    -0.9404 C.ar    
  20 C20           -3.2916    -5.3733    -0.7656 C.ar    
  21 C21           -3.4861    -6.1432     0.3736 C.ar    
  22 N22           -2.5339    -6.2556     1.2846 N.ar    
  23 O23           -4.6672    -6.7873     0.5546 O.3     
  24 C24           -4.7876    -7.6092     1.6306 C.ar    
  25 C25           -4.9774    -7.0730     2.8960 C.ar    
  26 C26           -5.1001    -7.9095     3.9885 C.ar    
  27 C27           -5.0332    -9.2823     3.8212 C.ar    
  28 C28           -4.8438    -9.8188     2.5589 C.ar    
  29 C29           -4.7265    -8.9850     1.4637 C.ar    
  30 F30           -5.1525   -10.0991     4.8907 F       
  31 F31            2.4072    -2.8240    -0.4979 F       
  32 H32           -1.7522    -2.9605     1.2510 H       
  33 H33           -1.5498    -0.6818     2.1389 H       
  34 H34           -1.2778     1.0321     2.7234 H       
  35 H35           -1.0718     3.9958     1.0835 H       
  36 H36           -0.0858     5.1606     1.9997 H       
  37 H37            0.6990     3.8208     1.1294 H       
  38 H38            3.2898    -0.0583     2.4284 H       
  39 H39            3.9791    -1.4410     1.5445 H       
  40 H40            4.5332     0.2116     1.1836 H       
  41 H41           -0.6155    -5.7660     1.9132 H       
  42 H42           -1.9051    -4.1144    -1.8164 H       
  43 H43           -4.0731    -5.2850    -1.5058 H       
  44 H44           -5.0289    -6.0022     3.0269 H       
  45 H45           -5.2479    -7.4924     4.9737 H       
  46 H46           -4.7918   -10.8898     2.4299 H       
  47 H47           -4.5829    -9.4039     0.4787 H       
@<TRIPOS>BOND
   1    1    2 1
   2    1    8 2
   3    1    9 am
   4    2    3 ar
   5    2    7 ar
   6    3    4 ar
   7    3   14 1
   8    4    5 ar
   9    4   31 1
  10    5    6 ar
  11    5   16 1
  12    6    7 ar
  13    6   32 1
  14    7   33 1
  15    9   10 am
  16    9   34 1
  17   10   11 2
  18   10   12 2
  19   10   13 1
  20   13   35 1
  21   13   36 1
  22   13   37 1
  23   14   15 1
  24   15   38 1
  25   15   39 1
  26   15   40 1
  27   16   18 1
  28   17   18 ar
  29   17   22 ar
  30   17   41 1
  31   18   19 ar
  32   19   20 ar
  33   19   42 1
  34   20   21 ar
  35   20   43 1
  36   21   22 ar
  37   21   23 1
  38   23   24 1
  39   24   25 ar
  40   24   29 ar
  41   25   26 ar
  42   25   44 1
  43   26   27 ar
  44   26   45 1
  45   27   28 ar
  46   27   30 1
  47   28   29 ar
  48   28   46 1
  49   29   47 1

#	End of record

