#	Name: ASD13070001
#	Creating user name:	WinNT
#	Creation time:	15. 06. 2019 21:30

#	Modifying user name:	WinNT
#	Modification time:	15. 06. 2019 21:30

#	Program:	/corina/corina34_cracker 3.40 0067  02.08.2006

@<TRIPOS>MOLECULE
ASD13070001
  25   26    0    0    0
SMALL
NO_CHARGES


@<TRIPOS>ATOM
   1 C1            -0.0161     1.3381     0.0094 C.2     
   2 C2            -3.5623     0.6090     0.0397 C.ar    
   3 C3            -2.1758     0.7176     0.0267 C.ar    
   4 C4            -3.3745    -1.7868     0.0138 C.ar    
   5 C5             0.0021    -0.0041     0.0020 C.2     
   6 C6            -1.7099     3.1960     0.0432 C.3     
   7 C7             1.2255    -0.8839    -0.0136 C.3     
   8 C8             1.5480    -1.2706    -1.4340 C.2     
   9 C9            -4.1512    -0.6367     0.0278 C.ar    
  10 O10            2.6046    -2.0572    -1.6920 O.3     
  11 O11            0.8555    -0.8726    -2.3406 O.2     
  12 C12           -1.3928    -0.4514     0.0129 C.ar    
  13 C13           -2.0104    -1.7032     0.0066 C.ar    
  14 N14           -1.3085     1.7872     0.0301 N.pl3   
  15 H15            0.8597     1.9701     0.0044 H       
  16 H16           -4.1753     1.4980     0.0506 H       
  17 H17           -3.8518    -2.7556     0.0089 H       
  18 H18           -1.8244     3.5508    -0.9810 H       
  19 H19           -2.6578     3.2989     0.5715 H       
  20 H20           -0.9461     3.7867     0.5491 H       
  21 H21            2.0682    -0.3420     0.4157 H       
  22 H22            1.0344    -1.7824     0.5731 H       
  23 H23           -5.2280    -0.7190     0.0380 H       
  24 H24            2.7715    -2.2782    -2.6185 H       
  25 H25           -1.4124    -2.6025    -0.0036 H       
@<TRIPOS>BOND
   1    1    5 2
   2    1   15 1
   3    1   14 1
   4    2    9 ar
   5    2   16 1
   6    2    3 ar
   7    3   12 ar
   8    3   14 1
   9    4   17 1
  10    4    9 ar
  11    4   13 ar
  12    5   12 1
  13    5    7 1
  14    6   14 1
  15    6   18 1
  16    6   19 1
  17    6   20 1
  18    7    8 1
  19    7   21 1
  20    7   22 1
  21    8   10 1
  22    8   11 2
  23    9   23 1
  24   10   24 1
  25   12   13 ar
  26   13   25 1

#	End of record

