#	Name: ASD11320007
#	Creating user name:	WinNT
#	Creation time:	15. 06. 2019 21:29

#	Modifying user name:	WinNT
#	Modification time:	15. 06. 2019 21:29

#	Program:	/corina/corina34_cracker 3.40 0067  02.08.2006

@<TRIPOS>MOLECULE
ASD11320007
  48   51    0    0    0
SMALL
NO_CHARGES


@<TRIPOS>ATOM
   1 O1             0.0021    -0.0041     0.0020 O.2     
   2 C2            -0.0144     1.2113     0.0087 C.2     
   3 C3             1.2417     1.9595     0.0007 C.2     
   4 C4             1.3898     3.3338     0.0072 C.2     
   5 N5             2.6983     3.6461    -0.0038 N.pl3   
   6 C6             3.4738     2.5036    -0.0180 C.ar    
   7 C7             2.6072     1.3997    -0.0094 C.ar    
   8 C8             3.1215     0.1065    -0.0204 C.ar    
   9 C9             4.4864    -0.0849    -0.0398 C.ar    
  10 C10            5.3448     1.0044    -0.0483 C.ar    
  11 C11            4.8483     2.2900    -0.0320 C.ar    
  12 C12            3.2281     5.0120    -0.0016 C.3     
  13 C13            3.5109     5.4434    -1.4176 C.ar    
  14 C14            2.5278     6.0731    -2.1577 C.ar    
  15 C15            2.7872     6.4687    -3.4566 C.ar    
  16 C16            4.0299     6.2351    -4.0151 C.ar    
  17 C17            5.0133     5.6062    -3.2747 C.ar    
  18 C18            4.7553     5.2144    -1.9744 C.ar    
  19 C19           -1.3163     1.9395     0.0188 C.2     
  20 O20           -1.3328     3.1532     0.0255 O.2     
  21 N21           -2.4742     1.2499     0.0206 N.am    
  22 C22           -3.7528     1.9650     0.0305 C.3     
  23 C23           -4.8848     0.9703     0.0305 C.ar    
  24 C24           -5.3983     0.5075     1.2276 C.ar    
  25 C25           -6.4367    -0.4050     1.2276 C.ar    
  26 C26           -6.9618    -0.8544     0.0304 C.ar    
  27 C27           -6.4489    -0.3910    -1.1667 C.ar    
  28 C28           -5.4134     0.5248    -1.1666 C.ar    
  29 H29            0.5793     4.0474     0.0189 H       
  30 H30            2.4545    -0.7429    -0.0134 H       
  31 H31            4.8890    -1.0870    -0.0480 H       
  32 H32            6.4127     0.8437    -0.0632 H       
  33 H33            5.5258     3.1311    -0.0392 H       
  34 H34            2.4956     5.6851     0.4438 H       
  35 H35            4.1502     5.0430     0.5787 H       
  36 H36            1.5569     6.2556    -1.7213 H       
  37 H37            2.0189     6.9601    -4.0351 H       
  38 H38            4.2324     6.5436    -5.0302 H       
  39 H39            5.9841     5.4234    -3.7112 H       
  40 H40            5.5236     4.7231    -1.3959 H       
  41 H41           -2.4611     0.2800     0.0152 H       
  42 H42           -3.8148     2.5860     0.9242 H       
  43 H43           -3.8232     2.5957    -0.8557 H       
  44 H44           -4.9880     0.8586     2.1629 H       
  45 H45           -6.8374    -0.7671     2.1628 H       
  46 H46           -7.7726    -1.5679     0.0304 H       
  47 H47           -6.8590    -0.7423    -2.1020 H       
  48 H48           -5.0127     0.8869    -2.1019 H       
@<TRIPOS>BOND
   1    1    2 2
   2    2    3 1
   3    2   19 1
   4    3    4 2
   5    3    7 1
   6    4    5 1
   7    4   29 1
   8    5    6 1
   9    5   12 1
  10    6    7 ar
  11    6   11 ar
  12    7    8 ar
  13    8    9 ar
  14    8   30 1
  15    9   10 ar
  16    9   31 1
  17   10   11 ar
  18   10   32 1
  19   11   33 1
  20   12   13 1
  21   12   34 1
  22   12   35 1
  23   13   14 ar
  24   13   18 ar
  25   14   15 ar
  26   14   36 1
  27   15   16 ar
  28   15   37 1
  29   16   17 ar
  30   16   38 1
  31   17   18 ar
  32   17   39 1
  33   18   40 1
  34   19   20 2
  35   19   21 am
  36   21   22 1
  37   21   41 1
  38   22   23 1
  39   22   42 1
  40   22   43 1
  41   23   24 ar
  42   23   28 ar
  43   24   25 ar
  44   24   44 1
  45   25   26 ar
  46   25   45 1
  47   26   27 ar
  48   26   46 1
  49   27   28 ar
  50   27   47 1
  51   28   48 1

#	End of record

