#	Name: ASD13140001
#	Creating user name:	WinNT
#	Creation time:	15. 06. 2019 21:30

#	Modifying user name:	WinNT
#	Modification time:	15. 06. 2019 21:30

#	Program:	/corina/corina34_cracker 3.40 0067  02.08.2006

@<TRIPOS>MOLECULE
ASD13140001
  41   43    0    0    0
SMALL
NO_CHARGES


@<TRIPOS>ATOM
   1 C1            -0.2624     1.1505    -1.0567 C.ar    
   2 C2            -3.5338    -0.3881     1.2279 C.3     
   3 C3            -1.1636    -0.5040     0.4370 C.ar    
   4 C4            -2.3789     0.1517     0.4242 C.ar    
   5 C5            -2.5344     1.3085    -0.3174 C.ar    
   6 C6            -1.6563     3.0590    -1.8762 C.3     
   7 C7             4.9067    -3.9374     0.4563 C.3     
   8 C8            -2.3451    -4.8523    -0.3917 C.2     
   9 C9            -0.0996    -0.0060    -0.3045 C.ar    
  10 C10            1.2514    -4.8051     0.0659 C.2     
  11 N11            0.0790    -4.1429    -0.1396 N.pl3   
  12 N12            0.0644    -2.7501    -0.2573 N.2     
  13 C13            1.1761    -2.0537    -0.1726 C.2     
  14 C14            2.4070    -2.6926     0.0384 C.2     
  15 C15            2.4546    -4.0650     0.1583 C.2     
  16 N16            0.9987    -6.1102     0.1370 N.2     
  17 C17           -0.2984    -6.3214    -0.0093 C.2     
  18 C18           -0.9173    -5.0920    -0.1885 C.2     
  19 N19            1.1315    -0.6673    -0.2941 N.pl3   
  20 C20           -1.4789     1.8041    -1.0609 C.ar    
  21 N21            3.6678    -4.7136     0.3623 N.pl3   
  22 N22           -2.8195    -3.5911    -0.4186 N.am    
  23 O23           -3.1056    -5.7921    -0.5367 O.2     
  24 H24            0.5628     1.5405    -1.6340 H       
  25 H25           -3.4510    -0.0444     2.2589 H       
  26 H26           -4.4715    -0.0325     0.8006 H       
  27 H27           -3.5144    -1.4777     1.2054 H       
  28 H28           -1.0403    -1.4027     1.0232 H       
  29 H29           -3.4836     1.8238    -0.3193 H       
  30 H30           -1.3980     3.9264    -1.2688 H       
  31 H31           -1.0051     3.0200    -2.7495 H       
  32 H32           -2.6940     3.1383    -2.2001 H       
  33 H33            4.8366    -3.2410     1.2919 H       
  34 H34            5.7474    -4.6126     0.6156 H       
  35 H35            5.0579    -3.3809    -0.4687 H       
  36 H36            3.3145    -2.1111     0.1060 H       
  37 H37           -0.7900    -7.2829     0.0047 H       
  38 H38            1.9549    -0.1604    -0.3716 H       
  39 H39            3.6937    -5.6800     0.4423 H       
  40 H40           -3.7510    -3.4278    -0.6343 H       
  41 H41           -2.2295    -2.8467    -0.2222 H       
@<TRIPOS>BOND
   1    1    9 ar
   2    1   24 1
   3    1   20 ar
   4    2    4 1
   5    2   25 1
   6    2   26 1
   7    2   27 1
   8    3   28 1
   9    3    4 ar
  10    3    9 ar
  11    4    5 ar
  12    5   29 1
  13    5   20 ar
  14    6   20 1
  15    6   30 1
  16    6   31 1
  17    6   32 1
  18    7   33 1
  19    7   34 1
  20    7   35 1
  21    7   21 1
  22    8   23 2
  23    8   18 1
  24    8   22 am
  25    9   19 1
  26   10   15 1
  27   10   16 2
  28   10   11 1
  29   11   18 1
  30   11   12 1
  31   12   13 2
  32   13   14 1
  33   13   19 1
  34   14   15 2
  35   14   36 1
  36   15   21 1
  37   16   17 1
  38   17   37 1
  39   17   18 2
  40   19   38 1
  41   21   39 1
  42   22   40 1
  43   22   41 1

#	End of record

