#	Name: ASD15280017
#	Creating user name:	WinNT
#	Creation time:	15. 06. 2019 21:31

#	Modifying user name:	WinNT
#	Modification time:	15. 06. 2019 21:31

#	Program:	/corina/corina34_cracker 3.40 0067  02.08.2006

@<TRIPOS>MOLECULE
ASD15280017
  51   55    0    0    0
SMALL
NO_CHARGES


@<TRIPOS>ATOM
   1 F1             0.0021    -0.0041     0.0020 F       
   2 C2            -0.0162     1.3468     0.0094 C.ar    
   3 C3            -1.2186     2.0221     0.0303 C.ar    
   4 C4            -1.2316     3.4187     0.0378 C.ar    
   5 C5            -0.0288     4.1299     0.0243 C.ar    
   6 C6             1.1631     3.4635     0.0032 C.ar    
   7 C7             1.1860     2.0658     0.0018 C.ar    
   8 C8             2.4372     1.3695    -0.0134 C.1     
   9 N9             3.4299     0.8172    -0.0255 N.1     
  10 C10           -2.5180     4.1447     0.0597 C.2     
  11 N11           -3.6977     3.5922     0.0790 N.2     
  12 C12           -4.7335     4.3971     0.0974 C.2     
  13 C13           -4.4552     5.7063     0.0943 C.2     
  14 C14           -5.4654     6.8245     0.1127 C.3     
  15 N15           -5.7693     7.1852     1.4997 N.am    
  16 C16           -6.6533     8.1680     1.7622 C.2     
  17 O17           -7.1985     8.7552     0.8481 O.2     
  18 C18           -6.9601     8.5321     3.1621 C.ar    
  19 C19           -6.3303     7.8622     4.2123 C.ar    
  20 C20           -6.6181     8.2132     5.5155 C.ar    
  21 C21           -7.5285     9.2175     5.7834 C.ar    
  22 C22           -8.1716     9.8880     4.7515 C.ar    
  23 N23           -9.1056    10.8796     4.9889 N.am    
  24 C24           -9.0969    11.8952     5.8095 C.2     
  25 O25          -10.0779    12.6112     5.7572 O.2     
  26 C26           -8.0813    12.2994     6.7835 C.ar    
  27 C27           -7.7309    13.6502     6.8993 C.ar    
  28 C28           -6.7809    14.0422     7.8173 C.ar    
  29 C29           -6.1673    13.1071     8.6314 C.ar    
  30 C30           -6.5045    11.7686     8.5244 C.ar    
  31 C31           -7.4498    11.3662     7.6077 C.ar    
  32 S32           -7.8694     9.6596     7.4580 S.o2    
  33 O33           -9.2785     9.5736     7.6207 O.2     
  34 O34           -6.9432     8.9427     8.2627 O.2     
  35 C35           -7.8732     9.5473     3.4341 C.ar    
  36 S36           -2.7031     5.8967     0.0715 S.3     
  37 H37           -2.1481     1.4723     0.0404 H       
  38 H38           -0.0418     5.2098     0.0302 H       
  39 H39            2.0900     4.0176    -0.0079 H       
  40 H40           -5.7478     4.0263     0.1138 H       
  41 H41           -5.0574     7.6913    -0.4070 H       
  42 H42           -6.3779     6.4980    -0.3861 H       
  43 H43           -5.3343     6.7166     2.2292 H       
  44 H44           -5.6220     7.0735     4.0061 H       
  45 H45           -6.1293     7.6999     6.3303 H       
  46 H46           -9.9092    10.8083     4.4504 H       
  47 H47           -8.2058    14.3862     6.2675 H       
  48 H48           -6.5136    15.0853     7.9014 H       
  49 H49           -5.4249    13.4212     9.3503 H       
  50 H50           -6.0250    11.0391     9.1602 H       
  51 H51           -8.3553    10.0695     2.6209 H       
@<TRIPOS>BOND
   1    1    2 1
   2    2    7 ar
   3    2    3 ar
   4    3    4 ar
   5    3   37 1
   6    4    5 ar
   7    4   10 1
   8    5    6 ar
   9    5   38 1
  10    6    7 ar
  11    6   39 1
  12    7    8 1
  13    8    9 3
  14   10   36 1
  15   10   11 2
  16   11   12 1
  17   12   13 2
  18   12   40 1
  19   13   14 1
  20   13   36 1
  21   14   15 1
  22   14   41 1
  23   14   42 1
  24   15   16 am
  25   15   43 1
  26   16   17 2
  27   16   18 1
  28   18   35 ar
  29   18   19 ar
  30   19   20 ar
  31   19   44 1
  32   20   21 ar
  33   20   45 1
  34   21   32 1
  35   21   22 ar
  36   22   23 1
  37   22   35 ar
  38   23   24 am
  39   23   46 1
  40   24   25 2
  41   24   26 1
  42   26   31 ar
  43   26   27 ar
  44   27   28 ar
  45   27   47 1
  46   28   29 ar
  47   28   48 1
  48   29   30 ar
  49   29   49 1
  50   30   31 ar
  51   30   50 1
  52   31   32 1
  53   32   33 2
  54   32   34 2
  55   35   51 1

#	End of record

