#	Name: ASD10610058
#	Creating user name:	WinNT
#	Creation time:	15. 06. 2019 21:27

#	Modifying user name:	WinNT
#	Modification time:	15. 06. 2019 21:27

#	Program:	/corina/corina34_cracker 3.40 0067  02.08.2006

@<TRIPOS>MOLECULE
ASD10610058
  63   67    0    0    0
SMALL
NO_CHARGES


@<TRIPOS>ATOM
   1 C1             1.0666    -1.1372    -0.3169 C.2     
   2 N2            -0.0106    -0.9061     0.4594 N.am    
   3 O3             2.1607    -1.2852     0.1906 O.2     
   4 O4             0.9295    -1.2097    -1.6543 O.3     
   5 C5             0.1166    -0.9420     1.9184 C.3     
   6 C6            -1.1661    -0.8157     2.7427 C.3     
   7 C7            -0.4479    -2.1633     2.6469 C.3     
   8 C8             1.3676    -0.3146     2.4774 C.2     
   9 N9             1.8658     0.8070     1.9203 N.am    
  10 O10            1.9260    -0.8189     3.4285 O.2     
  11 O11            4.1600     3.4977     2.2804 O.3     
  12 C12            3.7501     2.3652     1.4956 C.3     
  13 C13            3.0164     1.4787     2.5294 C.3     
  14 C14            2.5665     2.5012     3.5556 C.ar    
  15 C15            3.2953     3.6615     3.3194 C.ar    
  16 C16            1.6385     2.4407     4.5730 C.ar    
  17 C17            1.4130     3.5441     5.3728 C.ar    
  18 C18            2.1292     4.7183     5.1456 C.ar    
  19 C19            3.0684     4.7749     4.1206 C.ar    
  20 C20            1.8901     5.9080     5.9973 C.ar    
  21 C21            0.6047     6.4662     6.0849 C.ar    
  22 C22            0.3924     7.5849     6.8897 C.ar    
  23 C23            1.4454     8.1376     7.5955 C.ar    
  24 C24            2.7123     7.5856     7.5079 C.ar    
  25 C25            2.9372     6.4735     6.7183 C.ar    
  26 O26           -1.5398     4.6449     4.0098 O.3     
  27 N27           -0.4392     4.9004     4.4510 N.2     
  28 C28           -0.5199     5.8701     5.3259 C.2     
  29 N29           -1.8224     6.2260     5.4078 N.2     
  30 C30           -2.4545     5.4426     4.5701 C.2     
  31 C31           -3.9353     5.4408     4.2902 C.3     
  32 F32           -0.8411     8.1288     6.9795 F       
  33 Cl33           4.0244     8.2904     8.3998 Cl      
  34 C34            2.1456    -1.3509    -2.4350 C.3     
  35 C35            2.8298    -2.6722    -2.0788 C.3     
  36 C36            1.7991    -1.3415    -3.9252 C.3     
  37 C37            3.0895    -0.1877    -2.1235 C.3     
  38 H38           -0.8702    -0.7160     0.0520 H       
  39 H39           -1.1051    -0.2791     3.6895 H       
  40 H40           -2.1047    -0.7059     2.1995 H       
  41 H41           -0.9140    -2.9400     2.0406 H       
  42 H42            0.0855    -2.5132     3.5307 H       
  43 H43            1.4624     1.1695     1.1160 H       
  44 H44            3.0716     2.6723     0.6997 H       
  45 H45            4.6163     1.8451     1.0866 H       
  46 H46            3.6979     0.7535     2.9741 H       
  47 H47            1.0862     1.5286     4.7449 H       
  48 H48            0.6854     3.4975     6.1696 H       
  49 H49            3.6221     5.6857     3.9466 H       
  50 H50            1.2788     9.0043     8.2180 H       
  51 H51            3.9269     6.0456     6.6582 H       
  52 H52           -4.1636     4.6770     3.5469 H       
  53 H53           -4.4787     5.2262     5.2104 H       
  54 H54           -4.2346     6.4178     3.9109 H       
  55 H55            2.1573    -3.5009    -2.3007 H       
  56 H56            3.7427    -2.7782    -2.6648 H       
  57 H57            3.0766    -2.6789    -1.0171 H       
  58 H58            1.3117    -0.4001    -4.1789 H       
  59 H59            2.7120    -1.4474    -4.5112 H       
  60 H60            1.1266    -2.1701    -4.1471 H       
  61 H61            3.4301    -0.2627    -1.0908 H       
  62 H62            3.9485    -0.2275    -2.7932 H       
  63 H63            2.5623     0.7558    -2.2645 H       
@<TRIPOS>BOND
   1    1    2 am
   2    1    3 2
   3    1    4 1
   4    2    5 1
   5    2   38 1
   6    4   34 1
   7    5    6 1
   8    5    7 1
   9    5    8 1
  10    6    7 1
  11    6   39 1
  12    6   40 1
  13    7   41 1
  14    7   42 1
  15    8    9 am
  16    8   10 2
  17    9   13 1
  18    9   43 1
  19   11   12 1
  20   11   15 1
  21   12   13 1
  22   12   44 1
  23   12   45 1
  24   13   14 1
  25   13   46 1
  26   14   15 ar
  27   14   16 ar
  28   15   19 ar
  29   16   17 ar
  30   16   47 1
  31   17   18 ar
  32   17   48 1
  33   18   19 ar
  34   18   20 1
  35   19   49 1
  36   20   21 ar
  37   20   25 ar
  38   21   22 ar
  39   21   28 1
  40   22   23 ar
  41   22   32 1
  42   23   24 ar
  43   23   50 1
  44   24   25 ar
  45   24   33 1
  46   25   51 1
  47   26   27 1
  48   26   30 1
  49   27   28 2
  50   28   29 1
  51   29   30 2
  52   30   31 1
  53   31   52 1
  54   31   53 1
  55   31   54 1
  56   34   35 1
  57   34   37 1
  58   34   36 1
  59   35   55 1
  60   35   56 1
  61   35   57 1
  62   36   58 1
  63   36   59 1
  64   36   60 1
  65   37   61 1
  66   37   62 1
  67   37   63 1

#	End of record

