#	Name: ASD10870001
#	Creating user name:	WinNT
#	Creation time:	15. 06. 2019 21:28

#	Modifying user name:	WinNT
#	Modification time:	15. 06. 2019 21:28

#	Program:	/corina/corina34_cracker 3.40 0067  02.08.2006

@<TRIPOS>MOLECULE
ASD10870001
  56   58    0    0    0
SMALL
NO_CHARGES


@<TRIPOS>ATOM
   1 C1             0.2784     1.2331     1.3121 C.ar    
   2 C2             0.2632    -0.0854     0.9007 C.ar    
   3 C3             1.3484    -0.9084     1.1719 C.ar    
   4 C4             2.4461    -0.4023     1.8563 C.ar    
   5 C5             2.4550     0.9167     2.2648 C.ar    
   6 C6             1.3726     1.7337     1.9932 C.ar    
   7 S7            -1.0948     2.2801     0.9621 S.o2    
   8 O8            -0.5403     3.5882     0.9350 O.2     
   9 O9            -1.6834     1.7098    -0.1988 O.2     
  10 C10           -2.1909     2.0829     2.3940 C.3     
  11 N11            1.3360    -2.2439     0.7572 N.am    
  12 C12            2.4866    -2.8510     0.4052 C.2     
  13 C13            2.4915    -4.2889     0.0775 C.ar    
  14 O14            3.5208    -2.2131     0.3579 O.2     
  15 C15            1.3315    -5.0500     0.2380 C.ar    
  16 C16            1.3425    -6.3935    -0.0700 C.ar    
  17 C17            2.4994    -6.9944    -0.5387 C.ar    
  18 C18            3.6538    -6.2551    -0.7026 C.ar    
  19 C19            3.6601    -4.8995    -0.4030 C.ar    
  20 N20            4.8228    -4.1521    -0.5680 N.am    
  21 C21            6.0229    -4.7057    -0.3039 C.2     
  22 C22            7.2455    -3.8835    -0.3728 C.ar    
  23 O23            6.0977    -5.8829    -0.0088 O.2     
  24 C24            7.1636    -2.5290    -0.7058 C.ar    
  25 C25            8.4957    -4.4551    -0.0989 C.ar    
  26 C26            9.6387    -3.6723    -0.1663 C.ar    
  27 C27            9.5439    -2.3364    -0.5017 C.ar    
  28 C28            8.3095    -1.7664    -0.7680 C.ar    
  29 O29            8.5872    -5.7677     0.2309 O.3     
  30 C30            9.9011    -6.3057     0.3935 C.3     
  31 C31           10.3726    -6.0748     1.8306 C.3     
  32 C32            9.8774    -7.8070     0.0995 C.3     
  33 F33           -1.5168     2.4763     3.5550 F       
  34 F34           -3.3289     2.8785     2.2232 F       
  35 F35           -2.5724     0.7417     2.5080 F       
  36 H36           -0.5919    -0.4760     0.3690 H       
  37 H37            3.2915    -1.0398     2.0691 H       
  38 H38            3.3080     1.3108     2.7973 H       
  39 H39            1.3822     2.7651     2.3135 H       
  40 H40            0.4992    -2.7334     0.7228 H       
  41 H41            0.4270    -4.5865     0.6034 H       
  42 H42            0.4448    -6.9807     0.0550 H       
  43 H43            2.4983    -8.0477    -0.7770 H       
  44 H44            4.5516    -6.7309    -1.0685 H       
  45 H45            4.7693    -3.2329    -0.8730 H       
  46 H46            6.2036    -2.0805    -0.9145 H       
  47 H47           10.6041    -4.1083     0.0443 H       
  48 H48           10.4369    -1.7310    -0.5524 H       
  49 H49            8.2451    -0.7196    -1.0258 H       
  50 H50           10.5842    -5.8109    -0.2970 H       
  51 H51            9.6894    -6.5695     2.5210 H       
  52 H52           11.3747    -6.4851     1.9545 H       
  53 H53           10.3894    -5.0052     2.0400 H       
  54 H54            9.5416    -7.9715    -0.9244 H       
  55 H55           10.8796    -8.2173     0.2234 H       
  56 H56            9.1943    -8.3017     0.7899 H       
@<TRIPOS>BOND
   1    1    2 ar
   2    1    6 ar
   3    1    7 1
   4    2    3 ar
   5    2   36 1
   6    3    4 ar
   7    3   11 1
   8    4    5 ar
   9    4   37 1
  10    5    6 ar
  11    5   38 1
  12    6   39 1
  13    7    8 2
  14    7    9 2
  15    7   10 1
  16   10   33 1
  17   10   34 1
  18   10   35 1
  19   11   12 am
  20   11   40 1
  21   12   13 1
  22   12   14 2
  23   13   15 ar
  24   13   19 ar
  25   15   16 ar
  26   15   41 1
  27   16   17 ar
  28   16   42 1
  29   17   18 ar
  30   17   43 1
  31   18   19 ar
  32   18   44 1
  33   19   20 1
  34   20   21 am
  35   20   45 1
  36   21   22 1
  37   21   23 2
  38   22   25 ar
  39   22   24 ar
  40   24   28 ar
  41   24   46 1
  42   25   26 ar
  43   25   29 1
  44   26   27 ar
  45   26   47 1
  46   27   28 ar
  47   27   48 1
  48   28   49 1
  49   29   30 1
  50   30   31 1
  51   30   32 1
  52   30   50 1
  53   31   51 1
  54   31   52 1
  55   31   53 1
  56   32   54 1
  57   32   55 1
  58   32   56 1

#	End of record

