#	Name: ASD11260001
#	Creating user name:	WinNT
#	Creation time:	15. 06. 2019 21:29

#	Modifying user name:	WinNT
#	Modification time:	15. 06. 2019 21:29

#	Program:	/corina/corina34_cracker 3.40 0067  02.08.2006

@<TRIPOS>MOLECULE
ASD11260001
  58   61    0    0    0
SMALL
NO_CHARGES


@<TRIPOS>ATOM
   1 C1             0.9751     1.4124    -0.5706 C.3     
   2 C2             0.6938    -0.0821    -0.4025 C.3     
   3 C3             1.3284    -0.5772     0.8987 C.3     
   4 O4             1.0657    -1.9731     1.0557 O.3     
   5 C5             1.5625    -2.5717     2.1660 C.2     
   6 S6             2.4688    -1.7748     3.3720 S.3     
   7 C7             2.6337    -3.2597     4.2987 C.2     
   8 C8             1.9923    -4.2741     3.6406 C.2     
   9 C9             1.4020    -3.8744     2.4683 C.2     
  10 Br10           0.4471    -5.0664     1.3533 Br      
  11 C11            1.9354    -5.6892     4.1555 C.3     
  12 C12            3.3227    -3.3866     5.5320 C.2     
  13 O13            3.4907    -4.4872     6.0252 O.2     
  14 N14            3.7915    -2.2889     6.1581 N.am    
  15 C15            4.4709    -2.2030     7.4734 C.3     
  16 C16            3.8568    -0.9495     8.1381 C.3     
  17 C17            3.3799    -0.0740     6.9603 C.3     
  18 C18            3.7559    -0.8816     5.6920 C.3     
  19 C19            5.1868    -0.4889     5.2910 C.3     
  20 C20            6.0804    -0.5364     6.5338 C.3     
  21 C21            5.9556    -1.9123     7.2021 C.3     
  22 C22            7.5129    -0.2988     6.1308 C.ar    
  23 C23            8.1319    -1.1560     5.2412 C.ar    
  24 C24            9.4464    -0.9386     4.8717 C.ar    
  25 C25           10.1205    -1.8744     3.9018 C.3     
  26 N26            9.9123    -1.3914     2.5302 N.3     
  27 C27           10.1425     0.1368     5.3909 C.ar    
  28 C28            9.5253     0.9958     6.2805 C.ar    
  29 C29            8.2077     0.7819     6.6476 C.ar    
  30 F30            7.6032     1.6211     7.5168 F       
  31 H31            2.0519     1.5778    -0.6056 H       
  32 H32            0.5230     1.7651    -1.4976 H       
  33 H33            0.5507     1.9590     0.2715 H       
  34 H34           -0.3830    -0.2475    -0.3675 H       
  35 H35            1.1182    -0.6287    -1.2447 H       
  36 H36            2.4052    -0.4118     0.8637 H       
  37 H37            0.9040    -0.0307     1.7409 H       
  38 H38            1.0550    -5.8112     4.7865 H       
  39 H39            1.8780    -6.3800     3.3143 H       
  40 H40            2.8321    -5.9001     4.7383 H       
  41 H41            4.3230    -3.1012     8.0730 H       
  42 H42            3.0132    -1.2292     8.7692 H       
  43 H43            4.6105    -0.4218     8.7225 H       
  44 H44            2.3016     0.0771     7.0119 H       
  45 H45            3.8990     0.8844     6.9651 H       
  46 H46            3.0396    -0.7356     4.8835 H       
  47 H47            5.5620    -1.1890     4.5446 H       
  48 H48            5.1867     0.5206     4.8798 H       
  49 H49            5.7683     0.2378     7.2347 H       
  50 H50            6.5019    -1.9110     8.1453 H       
  51 H51            6.3648    -2.6772     6.5422 H       
  52 H52            7.5888    -1.9964     4.8347 H       
  53 H53           11.1886    -1.9118     4.1156 H       
  54 H54            9.6943    -2.8725     4.0041 H       
  55 H55           10.3552    -2.0025     1.8604 H       
  56 H56            8.9291    -1.2865     2.3291 H       
  57 H57           11.1692     0.3057     5.1015 H       
  58 H58           10.0695     1.8358     6.6863 H       
@<TRIPOS>BOND
   1    1    2 1
   2    1   31 1
   3    1   32 1
   4    1   33 1
   5    2    3 1
   6    2   34 1
   7    2   35 1
   8    3    4 1
   9    3   36 1
  10    3   37 1
  11    4    5 1
  12    5    6 1
  13    5    9 2
  14    6    7 1
  15    7    8 2
  16    7   12 1
  17    8    9 1
  18    8   11 1
  19    9   10 1
  20   11   38 1
  21   11   39 1
  22   11   40 1
  23   12   13 2
  24   12   14 am
  25   14   15 1
  26   14   18 1
  27   15   16 1
  28   15   21 1
  29   15   41 1
  30   16   17 1
  31   16   42 1
  32   16   43 1
  33   17   18 1
  34   17   44 1
  35   17   45 1
  36   18   19 1
  37   18   46 1
  38   19   20 1
  39   19   47 1
  40   19   48 1
  41   20   21 1
  42   20   22 1
  43   20   49 1
  44   21   50 1
  45   21   51 1
  46   22   23 ar
  47   22   29 ar
  48   23   24 ar
  49   23   52 1
  50   24   25 1
  51   24   27 ar
  52   25   26 1
  53   25   53 1
  54   25   54 1
  55   26   55 1
  56   26   56 1
  57   27   28 ar
  58   27   57 1
  59   28   29 ar
  60   28   58 1
  61   29   30 1

#	End of record

