#	Name: ASD11000236
#	Creating user name:	WinNT
#	Creation time:	15. 06. 2019 21:29

#	Modifying user name:	WinNT
#	Modification time:	15. 06. 2019 21:29

#	Program:	/corina/corina34_cracker 3.40 0067  02.08.2006

@<TRIPOS>MOLECULE
ASD11000236
  48   51    0    0    0
SMALL
NO_CHARGES


@<TRIPOS>ATOM
   1 N1            -0.0172     1.3215    -0.0112 N.ar    
   2 C2             0.0016    -0.0034    -0.0060 C.ar    
   3 N3             1.1403    -0.6810    -0.0155 N.ar    
   4 C4             2.3025    -0.0498    -0.0305 C.ar    
   5 C5             2.3192     1.3363    -0.0364 C.ar    
   6 C6             1.1098     2.0136    -0.0261 C.ar    
   7 N7            -1.1973    -0.6965     0.0102 N.pl3   
   8 C8            -1.2008    -2.0923    -0.1029 C.ar    
   9 C9            -2.1492    -2.8423     0.5800 C.ar    
  10 C10           -0.2595    -2.7268    -0.9027 C.ar    
  11 C11           -0.2639    -4.1032    -1.0141 C.ar    
  12 C12           -1.2086    -4.8520    -0.3278 C.ar    
  13 C13           -2.1523    -4.2186     0.4675 C.ar    
  14 C14            3.6238     2.0904    -0.0530 C.3     
  15 C15            3.6914     2.9649    -1.3066 C.3     
  16 C16            5.0442     3.6242    -1.3868 C.ar    
  17 C17            6.0784     2.9931    -2.0510 C.ar    
  18 C18            7.3228     3.5979    -2.1257 C.ar    
  19 C19            7.5240     4.8426    -1.5286 C.ar    
  20 C20            6.4820     5.4699    -0.8647 C.ar    
  21 C21            5.2432     4.8613    -0.7998 C.ar    
  22 C22           -2.2134    -6.9153     0.2959 C.3     
  23 O23           -1.2126    -6.2073    -0.4384 O.3     
  24 F24           -2.0650    -6.6500     1.6615 F       
  25 F25           -3.4815    -6.5001    -0.1247 F       
  26 O26            8.4970     3.2300    -2.6947 O.3     
  27 C27            9.4118     4.1879    -2.4770 C.2     
  28 N28            8.8537     5.1889    -1.7677 N.am    
  29 O29           10.5653     4.1572    -2.8602 O.2     
  30 C30            3.7174     2.9752     1.1917 C.3     
  31 H31            3.2273    -0.6075    -0.0378 H       
  32 H32            1.0881     3.0934    -0.0307 H       
  33 H33           -2.0347    -0.2151     0.0999 H       
  34 H34           -2.8840    -2.3493     1.1993 H       
  35 H35            0.4756    -2.1439    -1.4377 H       
  36 H36            0.4681    -4.5968    -1.6361 H       
  37 H37           -2.8875    -4.8023     1.0016 H       
  38 H38            4.4527     1.3825    -0.0587 H       
  39 H39            3.5359     2.3460    -2.1902 H       
  40 H40            2.9167     3.7301    -1.2580 H       
  41 H41            5.9171     2.0294    -2.5112 H       
  42 H42            6.6369     6.4333    -0.4018 H       
  43 H43            4.4301     5.3490    -0.2827 H       
  44 H44           -2.1045    -7.9854     0.1197 H       
  45 H45            9.2961     6.0015    -1.4765 H       
  46 H46            2.8885     3.6831     1.1974 H       
  47 H47            3.6692     2.3521     2.0848 H       
  48 H48            4.6610     3.5206     1.1797 H       
@<TRIPOS>BOND
   1    1    2 ar
   2    1    6 ar
   3    2    3 ar
   4    2    7 1
   5    3    4 ar
   6    4    5 ar
   7    4   31 1
   8    5    6 ar
   9    5   14 1
  10    6   32 1
  11    7    8 1
  12    7   33 1
  13    8    9 ar
  14    8   10 ar
  15    9   13 ar
  16    9   34 1
  17   10   11 ar
  18   10   35 1
  19   11   12 ar
  20   11   36 1
  21   12   13 ar
  22   12   23 1
  23   13   37 1
  24   14   15 1
  25   14   30 1
  26   14   38 1
  27   15   16 1
  28   15   39 1
  29   15   40 1
  30   16   17 ar
  31   16   21 ar
  32   17   18 ar
  33   17   41 1
  34   18   19 ar
  35   18   26 1
  36   19   20 ar
  37   19   28 1
  38   20   21 ar
  39   20   42 1
  40   21   43 1
  41   22   23 1
  42   22   24 1
  43   22   25 1
  44   22   44 1
  45   26   27 1
  46   27   28 am
  47   27   29 2
  48   28   45 1
  49   30   46 1
  50   30   47 1
  51   30   48 1

#	End of record

