#	Name: ASD11920033
#	Creating user name:	WinNT
#	Creation time:	15. 06. 2019 21:29

#	Modifying user name:	WinNT
#	Modification time:	15. 06. 2019 21:29

#	Program:	/corina/corina34_cracker 3.40 0067  02.08.2006

@<TRIPOS>MOLECULE
ASD11920033
  47   50    0    0    0
SMALL
NO_CHARGES


@<TRIPOS>ATOM
   1 C1            -0.0168     1.3893     0.0097 C.ar    
   2 C2             0.0021    -0.0041     0.0020 C.ar    
   3 C3             1.2211    -0.6791    -0.0132 C.ar    
   4 C4             2.4022     0.0348    -0.0207 C.ar    
   5 C5             2.3775     1.4178    -0.0126 C.ar    
   6 C6             1.1704     2.0930     0.0021 C.ar    
   7 C7             3.6706     2.1917    -0.0198 C.3     
   8 C8             4.0889     2.4578    -1.4429 C.ar    
   9 C9             3.6633     3.6107    -2.0831 C.ar    
  10 C10            4.0465     3.8511    -3.3804 C.ar    
  11 C11            4.8626     2.9410    -4.0593 C.ar    
  12 C12            5.2873     1.7828    -3.4080 C.ar    
  13 C13            4.9011     1.5526    -2.1032 C.ar    
  14 C14            3.6058     5.0942    -4.1170 C.3     
  15 C15            4.0833     5.2627    -5.5431 C.2     
  16 N16            4.8672     4.3234    -6.0998 N.am    
  17 C17            5.2608     3.2185    -5.4511 C.2     
  18 O18            5.9703     2.4194    -6.0294 O.2     
  19 O19            5.2976     4.5099    -7.4358 O.3     
  20 O20            3.7595     6.2413    -6.1814 O.2     
  21 C21           -1.2709    -0.7660     0.0106 C.ar    
  22 C22           -2.4372    -2.8657     0.0109 C.ar    
  23 C23           -3.6503    -2.1871     0.0267 C.ar    
  24 C24           -3.6719    -0.7996     0.0285 C.ar    
  25 C25           -2.4894    -0.0894     0.0205 C.ar    
  26 C26           -1.2504    -2.1596     0.0029 C.ar    
  27 F27           -2.4191    -4.2166     0.0092 F       
  28 O28           -4.8173    -2.8838     0.0398 O.3     
  29 C29           -6.0269    -2.1231     0.0556 C.3     
  30 H30           -0.9588     1.9176     0.0170 H       
  31 H31            1.2415    -1.7589    -0.0189 H       
  32 H32            3.3475    -0.4874    -0.0325 H       
  33 H33            1.1569     3.1729     0.0084 H       
  34 H34            3.5300     3.1390     0.5008 H       
  35 H35            4.4440     1.6117     0.4838 H       
  36 H36            3.0326     4.3175    -1.5644 H       
  37 H37            5.9179     1.0718    -3.9210 H       
  38 H38            5.2286     0.6566    -1.5968 H       
  39 H39            2.5159     5.1096    -4.1251 H       
  40 H40            3.9445     5.9589    -3.5464 H       
  41 H41            5.8577     3.7968    -7.7718 H       
  42 H42           -4.6159    -0.2750     0.0404 H       
  43 H43           -2.5077     0.9904     0.0224 H       
  44 H44           -0.3078    -2.6865    -0.0097 H       
  45 H45           -6.0501    -1.4960     0.9469 H       
  46 H46           -6.0717    -1.4934    -0.8330 H       
  47 H47           -6.8815    -2.7996     0.0650 H       
@<TRIPOS>BOND
   1    1    2 ar
   2    1    6 ar
   3    1   30 1
   4    2    3 ar
   5    2   21 1
   6    3    4 ar
   7    3   31 1
   8    4    5 ar
   9    4   32 1
  10    5    6 ar
  11    5    7 1
  12    6   33 1
  13    7    8 1
  14    7   34 1
  15    7   35 1
  16    8    9 ar
  17    8   13 ar
  18    9   10 ar
  19    9   36 1
  20   10   11 ar
  21   10   14 1
  22   11   12 ar
  23   11   17 1
  24   12   13 ar
  25   12   37 1
  26   13   38 1
  27   14   15 1
  28   14   39 1
  29   14   40 1
  30   15   16 am
  31   15   20 2
  32   16   17 am
  33   16   19 1
  34   17   18 2
  35   19   41 1
  36   21   26 ar
  37   21   25 ar
  38   22   23 ar
  39   22   27 1
  40   22   26 ar
  41   23   24 ar
  42   23   28 1
  43   24   25 ar
  44   24   42 1
  45   25   43 1
  46   26   44 1
  47   28   29 1
  48   29   45 1
  49   29   46 1
  50   29   47 1

#	End of record

