#	Name: ASD14720007
#	Creating user name:	WinNT
#	Creation time:	15. 06. 2019 21:31

#	Modifying user name:	WinNT
#	Modification time:	15. 06. 2019 21:31

#	Program:	/corina/corina34_cracker 3.40 0067  02.08.2006

@<TRIPOS>MOLECULE
ASD14720007
  52   55    0    0    0
SMALL
NO_CHARGES


@<TRIPOS>ATOM
   1 N1             1.0940     2.8413    -0.0310 N.3     
   2 C2             1.6873     1.7613    -0.8355 C.3     
   3 C3             2.3147     2.3765    -2.0867 C.3     
   4 C4             3.2100     3.5261    -1.7014 C.ar    
   5 C5             2.1485     3.6550     0.5824 C.3     
   6 C6             4.1340     3.9844    -2.6284 C.ar    
   7 C7             4.9706     5.0373    -2.3172 C.ar    
   8 C8             4.8867     5.6385    -1.0750 C.ar    
   9 C9             3.9682     5.1824    -0.1513 C.ar    
  10 C10            3.1279     4.1230    -0.4618 C.ar    
  11 C11            0.1861     2.3001     0.9891 C.3     
  12 C12           -0.1641     3.3840     1.9758 C.2     
  13 C13           -1.0712     1.7980     0.3271 C.ar    
  14 N14            0.1064     3.3920     3.2583 N.2     
  15 N15           -0.8104     4.5344     1.7101 N.pl3   
  16 N16           -0.9094     5.1801     2.8227 N.2     
  17 N17           -0.3547     4.4875     3.7554 N.2     
  18 C18           -2.2977     1.2656    -1.6602 C.ar    
  19 C19           -3.3805     0.8768    -0.8927 C.ar    
  20 C20           -3.3140     0.9523     0.4865 C.ar    
  21 C21           -2.1560     1.4143     1.1000 C.ar    
  22 C22           -1.1452     1.7254    -1.0512 C.ar    
  23 C23           -1.3076     4.9713     0.4032 C.3     
  24 C24           -2.6185     4.2479     0.0883 C.3     
  25 C25           -1.5520     6.4814     0.4294 C.3     
  26 C26           -0.2715     4.6409    -0.6731 C.3     
  27 O27           -2.0870     1.4894     2.4557 O.3     
  28 F28           -4.3717     0.5729     1.2366 F       
  29 H29            2.4552     1.2510    -0.2539 H       
  30 H30            0.9119     1.0523    -1.1254 H       
  31 H31            2.9015     1.6194    -2.6069 H       
  32 H32            1.5260     2.7375    -2.7468 H       
  33 H33            1.6987     4.5209     1.0683 H       
  34 H34            2.6745     3.0598     1.3288 H       
  35 H35            4.1996     3.5149    -3.5988 H       
  36 H36            5.6892     5.3903    -3.0421 H       
  37 H37            5.5388     6.4631    -0.8278 H       
  38 H38            3.9035     5.6525     0.8188 H       
  39 H39            0.6751     1.4777     1.5112 H       
  40 H40           -2.3512     1.2060    -2.7372 H       
  41 H41           -4.2799     0.5179    -1.3709 H       
  42 H42           -0.3014     2.0286    -1.6533 H       
  43 H43           -3.3737     4.5285     0.8225 H       
  44 H44           -2.9584     4.5293    -0.9084 H       
  45 H45           -2.4572     3.1706     0.1265 H       
  46 H46           -0.6181     6.9968     0.6537 H       
  47 H47           -1.9219     6.8065    -0.5430 H       
  48 H48           -2.2901     6.7168     1.1961 H       
  49 H49           -0.2962     3.5721    -0.8853 H       
  50 H50           -0.5015     5.1972    -1.5818 H       
  51 H51            0.7214     4.9182    -0.3189 H       
  52 H52           -1.6830     0.7160     2.8724 H       
@<TRIPOS>BOND
   1    1    2 1
   2    1    5 1
   3    1   11 1
   4    2    3 1
   5    2   29 1
   6    2   30 1
   7    3    4 1
   8    3   31 1
   9    3   32 1
  10    4    6 ar
  11    4   10 ar
  12    5   10 1
  13    5   33 1
  14    5   34 1
  15    6    7 ar
  16    6   35 1
  17    7    8 ar
  18    7   36 1
  19    8    9 ar
  20    8   37 1
  21    9   10 ar
  22    9   38 1
  23   11   12 1
  24   11   13 1
  25   11   39 1
  26   12   15 1
  27   12   14 2
  28   13   22 ar
  29   13   21 ar
  30   14   17 1
  31   15   16 1
  32   15   23 1
  33   16   17 2
  34   18   19 ar
  35   18   22 ar
  36   18   40 1
  37   19   20 ar
  38   19   41 1
  39   20   21 ar
  40   20   28 1
  41   21   27 1
  42   22   42 1
  43   23   24 1
  44   23   25 1
  45   23   26 1
  46   24   43 1
  47   24   44 1
  48   24   45 1
  49   25   46 1
  50   25   47 1
  51   25   48 1
  52   26   49 1
  53   26   50 1
  54   26   51 1
  55   27   52 1

#	End of record

