#	Name: ASD10160087
#	Creating user name:	WinNT
#	Creation time:	15. 06. 2019 21:25

#	Modifying user name:	WinNT
#	Modification time:	15. 06. 2019 21:25

#	Program:	/corina/corina34_cracker 3.40 0067  02.08.2006

@<TRIPOS>MOLECULE
ASD10160087
  45   46    0    0    0
SMALL
NO_CHARGES


@<TRIPOS>ATOM
   1 C1            -0.3977     1.1117    -1.9418 C.2     
   2 C2            -0.2779    -0.2683    -1.4366 C.ar    
   3 C3             0.9061    -0.9890    -1.6361 C.ar    
   4 C4             1.0123    -2.2803    -1.1610 C.ar    
   5 C5            -0.0529    -2.8634    -0.4865 C.ar    
   6 C6            -1.2301    -2.1500    -0.2874 C.ar    
   7 C7            -1.3436    -0.8594    -0.7520 C.ar    
   8 O8             0.5324     1.6258    -2.5328 O.2     
   9 N9            -1.5402     1.8014    -1.7535 N.am    
  10 S10           -1.6749     3.3514    -2.3209 S.o2    
  11 O11           -2.9774     3.7579    -1.9240 O.2     
  12 O12           -0.5183     4.0090    -1.8218 O.2     
  13 C13           -1.5827     3.1827    -4.1246 C.3     
  14 C14           -2.3817    -2.7893     0.4449 C.3     
  15 F15            1.9417    -0.4217    -2.2926 F       
  16 O16            0.0553    -4.1333    -0.0208 O.3     
  17 C17            1.5426    -5.5224    -1.2595 C.ar    
  18 C18            1.2578    -4.7567    -0.1403 C.ar    
  19 C19            2.2180    -4.6332     0.8601 C.ar    
  20 C20            3.4285    -5.2852     0.6960 C.ar    
  21 C21            3.6428    -6.0357    -0.4538 C.ar    
  22 N22            2.7073    -6.1303    -1.3832 N.ar    
  23 O23            4.8264    -6.6786    -0.6250 O.3     
  24 C24            4.9865    -7.4339    -1.8274 C.3     
  25 C25            6.4631    -7.4485    -2.2277 C.3     
  26 C26            4.5064    -8.8681    -1.5965 C.3     
  27 Cl27           4.6630    -5.1661     1.9108 Cl      
  28 H28            1.9243    -2.8381    -1.3140 H       
  29 H29           -2.2569    -0.3057    -0.5920 H       
  30 H30           -2.2836     1.3899    -1.2855 H       
  31 H31           -2.3990     2.5496    -4.4725 H       
  32 H32           -1.6640     4.1667    -4.5862 H       
  33 H33           -0.6297     2.7302    -4.3990 H       
  34 H34           -2.2919    -2.5856     1.5119 H       
  35 H35           -3.3209    -2.3784     0.0743 H       
  36 H36           -2.3654    -3.8663     0.2780 H       
  37 H37            0.8010    -5.6266    -2.0377 H       
  38 H38            2.0235    -4.0426     1.7432 H       
  39 H39            4.3986    -6.9778    -2.6240 H       
  40 H40            7.0510    -7.9047    -1.4312 H       
  41 H41            6.5852    -8.0247    -3.1449 H       
  42 H42            6.8051    -6.4267    -2.3922 H       
  43 H43            5.0942    -9.3243    -0.8000 H       
  44 H44            3.4544    -8.8577    -1.3114 H       
  45 H45            4.6285    -9.4443    -2.5137 H       
@<TRIPOS>BOND
   1    1    2 1
   2    1    8 2
   3    1    9 am
   4    2    3 ar
   5    2    7 ar
   6    3    4 ar
   7    3   15 1
   8    4    5 ar
   9    4   28 1
  10    5    6 ar
  11    5   16 1
  12    6    7 ar
  13    6   14 1
  14    7   29 1
  15    9   10 am
  16    9   30 1
  17   10   11 2
  18   10   12 2
  19   10   13 1
  20   13   31 1
  21   13   32 1
  22   13   33 1
  23   14   34 1
  24   14   35 1
  25   14   36 1
  26   16   18 1
  27   17   18 ar
  28   17   22 ar
  29   17   37 1
  30   18   19 ar
  31   19   20 ar
  32   19   38 1
  33   20   21 ar
  34   20   27 1
  35   21   22 ar
  36   21   23 1
  37   23   24 1
  38   24   25 1
  39   24   26 1
  40   24   39 1
  41   25   40 1
  42   25   41 1
  43   25   42 1
  44   26   43 1
  45   26   44 1
  46   26   45 1

#	End of record

