#	Name: ASD11000286
#	Creating user name:	WinNT
#	Creation time:	15. 06. 2019 21:29

#	Modifying user name:	WinNT
#	Modification time:	15. 06. 2019 21:29

#	Program:	/corina/corina34_cracker 3.40 0067  02.08.2006

@<TRIPOS>MOLECULE
ASD11000286
  42   45    0    0    0
SMALL
NO_CHARGES


@<TRIPOS>ATOM
   1 N1            -0.0197     1.3446     0.1133 N.am    
   2 C2            -0.0022     0.0003     0.1131 C.2     
   3 C3             1.2084    -0.7246     0.0919 C.2     
   4 C4             2.3958    -0.0703     0.0710 C.2     
   5 C5             2.3883     1.3938     0.0710 C.ar    
   6 C6             3.5826     2.1220     0.0496 C.ar    
   7 C7             3.5393     3.5015     0.0497 C.ar    
   8 C8             2.3155     4.1668     0.0712 C.ar    
   9 C9             1.1332     3.4609     0.0924 C.ar    
  10 C10            1.1542     2.0700     0.0927 C.ar    
  11 O11           -1.0586    -0.6077     0.1321 O.2     
  12 O12            4.6967     4.2146     0.0294 O.3     
  13 C13            4.5812     5.6389     0.0308 C.3     
  14 C14            7.3077     8.1174    -0.0171 C.ar    
  15 N15            6.1015     7.5690     0.0036 N.ar    
  16 C16            5.9565     6.2545     0.0067 C.ar    
  17 C17            7.0852     5.4496    -0.0121 C.ar    
  18 C18            8.3312     6.0561    -0.0335 C.ar    
  19 N19            8.4060     7.3768    -0.0354 N.ar    
  20 N20            7.4228     9.4978    -0.0255 N.pl3   
  21 C21            8.6839    10.0950     0.0716 C.ar    
  22 C22            8.9476    11.2779    -0.6068 C.ar    
  23 C23           10.1936    11.8654    -0.5092 C.ar    
  24 C24           11.1790    11.2766     0.2637 C.ar    
  25 C25           10.9191    10.0978     0.9403 C.ar    
  26 C26            9.6729     9.5092     0.8512 C.ar    
  27 Cl27          12.7441    12.0178     0.3842 Cl      
  28 H28           -0.8699     1.8115     0.1241 H       
  29 H29            1.1890    -1.8045     0.0927 H       
  30 H30            3.3270    -0.6173     0.0551 H       
  31 H31            4.5323     1.6080     0.0333 H       
  32 H32            2.2938     5.2466     0.0714 H       
  33 H33            0.1902     3.9870     0.1093 H       
  34 H34            4.0243     5.9592    -0.8498 H       
  35 H35            4.0552     5.9599     0.9299 H       
  36 H36            6.9954     4.3733    -0.0097 H       
  37 H37            9.2301     5.4576    -0.0481 H       
  38 H38            6.6289    10.0502    -0.0988 H       
  39 H39            8.1790    11.7376    -1.2104 H       
  40 H40           10.3993    12.7850    -1.0368 H       
  41 H41           11.6900     9.6402     1.5426 H       
  42 H42            9.4690     8.5920     1.3836 H       
@<TRIPOS>BOND
   1    1    2 am
   2    1   10 1
   3    1   28 1
   4    2    3 1
   5    2   11 2
   6    3    4 2
   7    3   29 1
   8    4    5 1
   9    4   30 1
  10    5    6 ar
  11    5   10 ar
  12    6    7 ar
  13    6   31 1
  14    7    8 ar
  15    7   12 1
  16    8    9 ar
  17    8   32 1
  18    9   10 ar
  19    9   33 1
  20   12   13 1
  21   13   16 1
  22   13   34 1
  23   13   35 1
  24   14   15 ar
  25   14   19 ar
  26   14   20 1
  27   15   16 ar
  28   16   17 ar
  29   17   18 ar
  30   17   36 1
  31   18   19 ar
  32   18   37 1
  33   20   21 1
  34   20   38 1
  35   21   22 ar
  36   21   26 ar
  37   22   23 ar
  38   22   39 1
  39   23   24 ar
  40   23   40 1
  41   24   25 ar
  42   24   27 1
  43   25   26 ar
  44   25   41 1
  45   26   42 1

#	End of record

