#	Name: ASD10410164
#	Creating user name:	WinNT
#	Creation time:	15. 06. 2019 21:27

#	Modifying user name:	WinNT
#	Modification time:	15. 06. 2019 21:27

#	Program:	/corina/corina34_cracker 3.40 0067  02.08.2006

@<TRIPOS>MOLECULE
ASD10410164
  60   64    0    0    0
SMALL
NO_CHARGES


@<TRIPOS>ATOM
   1 C1             0.7529     0.5814     0.1203 C.ar    
   2 C2             0.4714    -0.7763     0.1576 C.ar    
   3 C3             1.5062    -1.6996     0.1836 C.ar    
   4 C4             2.8179    -1.2678     0.1723 C.ar    
   5 C5             3.1007     0.0913     0.1345 C.ar    
   6 C6             2.0640     1.0151     0.1084 C.ar    
   7 O7            -0.8200    -1.2024     0.1692 O.3     
   8 N8             4.4300     0.5300     0.1234 N.pl3   
   9 C9             4.7667     1.7184    -0.5236 C.2     
  10 N10            5.9523     2.2784    -0.5158 N.2     
  11 N11            3.9325     2.4659    -1.2561 N.2     
  12 C12            4.5717     3.5171    -1.7223 C.2     
  13 N13            5.8580     3.4504    -1.2837 N.pl3   
  14 C14            6.8740     4.3596    -1.5430 C.2     
  15 N15            4.0338     4.5097    -2.5181 N.pl3   
  16 N16            6.7462     5.4435    -2.2642 N.2     
  17 C17           -1.0370    -2.6143     0.2081 C.3     
  18 C18           -2.5402    -2.8993     0.2158 C.3     
  19 N19           -3.1268    -2.4684    -1.0602 N.3     
  20 C20           -3.0564    -0.9983    -1.2063 C.3     
  21 C21           -4.3170    -0.5599    -1.9745 C.3     
  22 C22           -5.1122    -1.8622    -2.2224 C.3     
  23 C23           -4.5700    -2.8132    -1.1259 C.3     
  24 C24           -4.7578    -4.2748    -1.5377 C.3     
  25 N25            8.1537     4.2587    -1.0783 N.pl3   
  26 C26            8.8509     5.3548    -1.5549 C.ar    
  27 C27            7.9328     6.1021    -2.3122 C.ar    
  28 C28           10.1598     5.7938    -1.4239 C.ar    
  29 C29           10.5571     6.9621    -2.0407 C.ar    
  30 C30            9.6559     7.7019    -2.7919 C.ar    
  31 C31            8.3514     7.2835    -2.9296 C.ar    
  32 C32            8.6890     3.1893    -0.2322 C.3     
  33 H33           -0.0534     1.2995     0.0959 H       
  34 H34            1.2860    -2.7565     0.2131 H       
  35 H35            3.6235    -1.9868     0.1933 H       
  36 H36            2.2831     2.0722     0.0786 H       
  37 H37            5.1169     0.0072     0.5659 H       
  38 H38            3.1013     4.4679    -2.7818 H       
  39 H39            4.5886     5.2486    -2.8133 H       
  40 H40           -0.5842    -3.0758    -0.6694 H       
  41 H41           -0.5844    -3.0268     1.1098 H       
  42 H42           -2.7067    -3.9682     0.3497 H       
  43 H43           -3.0093    -2.3532     1.0342 H       
  44 H44           -3.0382    -0.5279    -0.2232 H       
  45 H45           -2.1643    -0.7234    -1.7690 H       
  46 H46           -4.9047     0.1334    -1.3727 H       
  47 H47           -4.0409    -0.0988    -2.9228 H       
  48 H48           -6.1809    -1.6925    -2.0918 H       
  49 H49           -4.9021    -2.2592    -3.2156 H       
  50 H50           -5.0566    -2.6160    -0.1707 H       
  51 H51           -4.2396    -4.4565    -2.4792 H       
  52 H52           -4.3473    -4.9254    -0.7655 H       
  53 H53           -5.8204    -4.4837    -1.6616 H       
  54 H54           10.8664     5.2226    -0.8401 H       
  55 H55           11.5766     7.3032    -1.9377 H       
  56 H56            9.9791     8.6148    -3.2699 H       
  57 H57            7.6551     7.8644    -3.5163 H       
  58 H58            9.0848     2.3920    -0.8612 H       
  59 H59            9.4868     3.5872     0.3950 H       
  60 H60            7.8938     2.7931     0.3992 H       
@<TRIPOS>BOND
   1    1    2 ar
   2    1    6 ar
   3    1   33 1
   4    2    3 ar
   5    2    7 1
   6    3    4 ar
   7    3   34 1
   8    4    5 ar
   9    4   35 1
  10    5    6 ar
  11    5    8 1
  12    6   36 1
  13    7   17 1
  14    8    9 1
  15    8   37 1
  16    9   10 2
  17    9   11 1
  18   10   13 1
  19   11   12 2
  20   12   13 1
  21   12   15 1
  22   13   14 1
  23   14   16 2
  24   14   25 1
  25   15   38 1
  26   15   39 1
  27   16   27 1
  28   17   18 1
  29   17   40 1
  30   17   41 1
  31   18   19 1
  32   18   42 1
  33   18   43 1
  34   19   20 1
  35   19   23 1
  36   20   21 1
  37   20   44 1
  38   20   45 1
  39   21   22 1
  40   21   46 1
  41   21   47 1
  42   22   23 1
  43   22   48 1
  44   22   49 1
  45   23   24 1
  46   23   50 1
  47   24   51 1
  48   24   52 1
  49   24   53 1
  50   25   26 1
  51   25   32 1
  52   26   27 ar
  53   26   28 ar
  54   27   31 ar
  55   28   29 ar
  56   28   54 1
  57   29   30 ar
  58   29   55 1
  59   30   31 ar
  60   30   56 1
  61   31   57 1
  62   32   58 1
  63   32   59 1
  64   32   60 1

#	End of record

