#	Name: ASD11000001
#	Creating user name:	WinNT
#	Creation time:	15. 06. 2019 21:28

#	Modifying user name:	WinNT
#	Modification time:	15. 06. 2019 21:28

#	Program:	/corina/corina34_cracker 3.40 0067  02.08.2006

@<TRIPOS>MOLECULE
ASD11000001
  51   53    0    0    0
SMALL
NO_CHARGES


@<TRIPOS>ATOM
   1 C1             4.1751     5.2518     2.1662 C.ar    
   2 C2             2.8641     5.5971     2.4607 C.ar    
   3 C3             1.8188     4.8406     1.9510 C.ar    
   4 C4             2.0856     3.7460     1.1516 C.ar    
   5 C5             3.3931     3.4037     0.8599 C.ar    
   6 C6             4.4366     4.1562     1.3664 C.ar    
   7 C7             3.6812     2.2085    -0.0115 C.3     
   8 C8             3.8446     2.6633    -1.4632 C.3     
   9 O9             4.8856     1.5775     0.4284 O.3     
  10 N10            2.6293     3.3659    -1.8960 N.3     
  11 C11            5.0445     3.6065    -1.5701 C.3     
  12 C12            2.8030     3.9413    -3.2358 C.3     
  13 C13            1.5772     4.7851    -3.5929 C.3     
  14 C14            0.3269     3.9020    -3.5544 C.3     
  15 C15            0.1959     3.2766    -2.1629 C.3     
  16 C16            1.4618     2.4766    -1.8473 C.3     
  17 C17           -0.9095     4.7530    -3.8510 C.3     
  18 C18           -2.1232     3.8637    -3.9343 C.ar    
  19 C19           -2.8642     3.5973    -2.7981 C.ar    
  20 C20           -2.4989     3.3188    -5.1479 C.ar    
  21 C21           -3.6122     2.5031    -5.2243 C.ar    
  22 C22           -4.3497     2.2318    -4.0870 C.ar    
  23 C23           -3.9775     2.7815    -2.8745 C.ar    
  24 O24            2.6043     6.6741     3.2477 O.3     
  25 H25            4.9904     5.8417     2.5582 H       
  26 H26            0.7974     5.1071     2.1791 H       
  27 H27            1.2722     3.1568     0.7546 H       
  28 H28            5.4570     3.8869     1.1370 H       
  29 H29            2.8546     1.5013     0.0568 H       
  30 H30            4.0080     1.7939    -2.1001 H       
  31 H31            5.6644     2.1497     0.3946 H       
  32 H32            5.9463     3.0852    -1.2490 H       
  33 H33            5.1609     3.9305    -2.6044 H       
  34 H34            4.8811     4.4759    -0.9333 H       
  35 H35            3.6931     4.5703    -3.2483 H       
  36 H36            2.9157     3.1382    -3.9641 H       
  37 H37            1.4718     5.5966    -2.8729 H       
  38 H38            1.6995     5.1993    -4.5936 H       
  39 H39            0.4151     3.1131    -4.3014 H       
  40 H40            0.0688     4.0644    -1.4204 H       
  41 H41           -0.6686     2.6131    -2.1420 H       
  42 H42            1.5808     1.6803    -2.5821 H       
  43 H43            1.3777     2.0417    -0.8513 H       
  44 H44           -1.0479     5.4830    -3.0534 H       
  45 H45           -0.7739     5.2726    -4.7996 H       
  46 H46           -2.5731     4.0263    -1.8507 H       
  47 H47           -1.9227     3.5308    -6.0365 H       
  48 H48           -3.9062     2.0780    -6.1727 H       
  49 H49           -5.2198     1.5947    -4.1468 H       
  50 H50           -4.5537     2.5696    -1.9859 H       
  51 H51            2.5044     7.5029     2.7596 H       
@<TRIPOS>BOND
   1    1    2 ar
   2    1    6 ar
   3    1   25 1
   4    2    3 ar
   5    2   24 1
   6    3    4 ar
   7    3   26 1
   8    4    5 ar
   9    4   27 1
  10    5    6 ar
  11    5    7 1
  12    6   28 1
  13    7    8 1
  14    7    9 1
  15    7   29 1
  16    8   10 1
  17    8   11 1
  18    8   30 1
  19    9   31 1
  20   10   12 1
  21   10   16 1
  22   11   32 1
  23   11   33 1
  24   11   34 1
  25   12   13 1
  26   12   35 1
  27   12   36 1
  28   13   14 1
  29   13   37 1
  30   13   38 1
  31   14   15 1
  32   14   17 1
  33   14   39 1
  34   15   16 1
  35   15   40 1
  36   15   41 1
  37   16   42 1
  38   16   43 1
  39   17   18 1
  40   17   44 1
  41   17   45 1
  42   18   19 ar
  43   18   20 ar
  44   19   23 ar
  45   19   46 1
  46   20   21 ar
  47   20   47 1
  48   21   22 ar
  49   21   48 1
  50   22   23 ar
  51   22   49 1
  52   23   50 1
  53   24   51 1

#	End of record

