#	Name: ASD14170011
#	Creating user name:	WinNT
#	Creation time:	15. 06. 2019 21:30

#	Modifying user name:	WinNT
#	Modification time:	15. 06. 2019 21:30

#	Program:	/corina/corina34_cracker 3.40 0067  02.08.2006

@<TRIPOS>MOLECULE
ASD14170011
  31   32    0    0    0
SMALL
NO_CHARGES


@<TRIPOS>ATOM
   1 C1             0.1205     1.3585     0.8206 C.2     
   2 C2             0.1078    -0.0287     0.6500 C.2     
   3 C3             1.3848    -0.4300     0.4039 C.2     
   4 N4             2.1693     0.6717     0.4204 N.pl3   
   5 N5             1.3521     1.7784     0.6836 N.2     
   6 N6             1.8078    -1.7395     0.1761 N.am    
   7 C7            -1.0799     2.2233     1.1068 C.3     
   8 F8            -1.2586     2.3300     2.4903 F       
   9 F9            -0.8778     3.4964     0.5632 F       
  10 F10           -2.2179     1.6464     0.5327 F       
  11 C11            0.9138    -2.7481     0.1875 C.2     
  12 N12            1.3224    -4.0134    -0.0326 N.am    
  13 O13           -0.2614    -2.5164     0.3964 O.2     
  14 C14            0.4121    -5.0721     0.0756 C.ar    
  15 C15           -0.0710    -7.3413     0.6820 C.ar    
  16 C16           -1.3871    -7.1644     0.2895 C.ar    
  17 C17           -1.8029    -5.9438    -0.2152 C.ar    
  18 C18           -0.9066    -4.8984    -0.3228 C.ar    
  19 C19            0.8284    -6.2985     0.5761 C.ar    
  20 F20           -2.2652    -8.1858     0.3935 F       
  21 C21            3.6176     0.7020     0.2021 C.3     
  22 H22           -0.7607    -0.6683     0.7042 H       
  23 H23            2.7453    -1.9244     0.0094 H       
  24 H24            2.2471    -4.1907    -0.2660 H       
  25 H25            0.2513    -8.2940     1.0754 H       
  26 H26           -2.8298    -5.8078    -0.5208 H       
  27 H27           -1.2314    -3.9465    -0.7162 H       
  28 H28            1.8548    -6.4370     0.8820 H       
  29 H29            3.8222     0.8346    -0.8603 H       
  30 H30            4.0522     1.5301     0.7620 H       
  31 H31            4.0560    -0.2363     0.5421 H       
@<TRIPOS>BOND
   1    1    2 1
   2    1    5 2
   3    1    7 1
   4    2    3 2
   5    2   22 1
   6    3    4 1
   7    3    6 1
   8    4    5 1
   9    4   21 1
  10    6   11 am
  11    6   23 1
  12    7    8 1
  13    7    9 1
  14    7   10 1
  15   11   12 am
  16   11   13 2
  17   12   14 1
  18   12   24 1
  19   14   19 ar
  20   14   18 ar
  21   15   16 ar
  22   15   19 ar
  23   15   25 1
  24   16   17 ar
  25   16   20 1
  26   17   18 ar
  27   17   26 1
  28   18   27 1
  29   19   28 1
  30   21   29 1
  31   21   30 1
  32   21   31 1

#	End of record

