#	Name: ASD10610049
#	Creating user name:	WinNT
#	Creation time:	15. 06. 2019 21:27

#	Modifying user name:	WinNT
#	Modification time:	15. 06. 2019 21:27

#	Program:	/corina/corina34_cracker 3.40 0067  02.08.2006

@<TRIPOS>MOLECULE
ASD10610049
  59   63    0    0    0
SMALL
NO_CHARGES


@<TRIPOS>ATOM
   1 O1             1.8123    -1.3854    -2.3861 O.3     
   2 C2             0.9863    -1.4769    -1.3232 C.2     
   3 N3             1.4657    -0.6900    -0.3878 N.2     
   4 N4             2.5373    -0.1238    -0.8201 N.2     
   5 C5             2.7804    -0.5263    -2.0411 C.2     
   6 C6            -0.2296    -2.3060    -1.2298 C.2     
   7 O7            -0.5696    -2.9950    -2.1722 O.2     
   8 N8            -0.9641    -2.3000    -0.0998 N.am    
   9 O9            -1.8862    -4.6128     1.2529 O.3     
  10 C10           -2.0875    -4.5584    -0.1653 C.3     
  11 C11           -2.2296    -3.0361    -0.0448 C.3     
  12 C12           -2.6802    -3.4248     1.3687 C.3     
  13 C13           -3.3118    -2.4377    -0.9060 C.2     
  14 N14           -3.4027    -1.0998    -1.0414 N.am    
  15 O15           -4.1010    -3.1600    -1.4773 O.2     
  16 C16           -4.5183    -0.5132    -1.7881 C.3     
  17 C17           -4.1793    -0.4939    -3.2799 C.3     
  18 C18           -4.7579     0.8954    -1.3091 C.ar    
  19 C19           -6.0533     1.3212    -1.0630 C.ar    
  20 C20           -6.2675     2.6177    -0.6221 C.ar    
  21 C21           -5.1574     3.4484    -0.4430 C.ar    
  22 C22           -3.8867     2.9436    -0.7129 C.ar    
  23 N23           -3.7311     1.7023    -1.1255 N.ar    
  24 F24           -7.0956     0.4824    -1.2509 F       
  25 C25           -5.3292     4.8442     0.0262 C.ar    
  26 C26           -4.5656     5.3262     1.1015 C.ar    
  27 C27           -4.7363     6.6408     1.5336 C.ar    
  28 C28           -5.6540     7.4612     0.9031 C.ar    
  29 C29           -6.4065     6.9839    -0.1568 C.ar    
  30 C30           -6.2439     5.6849    -0.6004 C.ar    
  31 O31           -2.4714     2.7560     2.2105 O.3     
  32 N32           -3.3259     3.1959     1.4707 N.2     
  33 C33           -3.5840     4.4424     1.7736 C.2     
  34 N34           -2.7863     4.7734     2.8148 N.2     
  35 C35           -2.0889     3.6970     3.0795 C.2     
  36 C36           -1.0501     3.5473     4.1609 C.3     
  37 F37           -4.0061     7.1128     2.5676 F       
  38 Cl38          -7.5549     8.0253    -0.9379 Cl      
  39 C39            3.9405    -0.1005    -2.9036 C.3     
  40 H40           -0.6549    -1.8083     0.6771 H       
  41 H41           -1.2135    -4.8674    -0.7386 H       
  42 H42           -3.0018    -5.0538    -0.4920 H       
  43 H43           -3.7492    -3.6243     1.4426 H       
  44 H44           -2.3254    -2.7407     2.1395 H       
  45 H45           -2.7295    -0.5253    -0.6443 H       
  46 H46           -5.4165    -1.1094    -1.6273 H       
  47 H47           -3.2810     0.1023    -3.4407 H       
  48 H48           -4.0059    -1.5128    -3.6264 H       
  49 H49           -5.0093    -0.0575    -3.8356 H       
  50 H50           -7.2662     2.9771    -0.4226 H       
  51 H51           -3.0208     3.5749    -0.5785 H       
  52 H52           -5.7847     8.4792     1.2394 H       
  53 H53           -6.8305     5.3208    -1.4310 H       
  54 H54           -0.6420     2.5369     4.1353 H       
  55 H55           -0.2484     4.2672     3.9968 H       
  56 H56           -1.5086     3.7294     5.1329 H       
  57 H57            3.6603     0.7811    -3.4802 H       
  58 H58            4.7961     0.1359    -2.2710 H       
  59 H59            4.2043    -0.9106    -3.5836 H       
@<TRIPOS>BOND
   1    1    2 1
   2    1    5 1
   3    2    3 2
   4    2    6 1
   5    3    4 1
   6    4    5 2
   7    5   39 1
   8    6    7 2
   9    6    8 am
  10    8   11 1
  11    8   40 1
  12    9   10 1
  13    9   12 1
  14   10   11 1
  15   10   41 1
  16   10   42 1
  17   11   12 1
  18   11   13 1
  19   12   43 1
  20   12   44 1
  21   13   14 am
  22   13   15 2
  23   14   16 1
  24   14   45 1
  25   16   17 1
  26   16   18 1
  27   16   46 1
  28   17   47 1
  29   17   48 1
  30   17   49 1
  31   18   19 ar
  32   18   23 ar
  33   19   20 ar
  34   19   24 1
  35   20   21 ar
  36   20   50 1
  37   21   22 ar
  38   21   25 1
  39   22   23 ar
  40   22   51 1
  41   25   26 ar
  42   25   30 ar
  43   26   27 ar
  44   26   33 1
  45   27   28 ar
  46   27   37 1
  47   28   29 ar
  48   28   52 1
  49   29   30 ar
  50   29   38 1
  51   30   53 1
  52   31   32 1
  53   31   35 1
  54   32   33 2
  55   33   34 1
  56   34   35 2
  57   35   36 1
  58   36   54 1
  59   36   55 1
  60   36   56 1
  61   39   57 1
  62   39   58 1
  63   39   59 1

#	End of record

