#	Name: ASD10410065
#	Creating user name:	WinNT
#	Creation time:	15. 06. 2019 21:26

#	Modifying user name:	WinNT
#	Modification time:	15. 06. 2019 21:26

#	Program:	/corina/corina34_cracker 3.40 0067  02.08.2006

@<TRIPOS>MOLECULE
ASD10410065
  77   83    0    0    0
SMALL
NO_CHARGES


@<TRIPOS>ATOM
   1 C1            -0.0256     1.4087    -0.0519 C.ar    
   2 C2            -0.0150     0.0234     0.0453 C.ar    
   3 C3             1.1925    -0.6579     0.1258 C.ar    
   4 C4             2.3825     0.0420     0.1092 C.ar    
   5 C5             2.3720     1.4273     0.0120 C.ar    
   6 C6             1.1645     2.1086    -0.0686 C.ar    
   7 N7             3.5790     2.1373    -0.0044 N.pl3   
   8 C8             3.6674     3.3363    -0.6904 C.2     
   9 N9             4.7464     4.1712    -0.7002 N.pl3   
  10 N10            2.7295     3.8586    -1.4455 N.2     
  11 C11            3.1613     5.0277    -1.9539 C.2     
  12 C12            4.4151     5.2477    -1.5060 C.2     
  13 N13            2.4336     5.8716    -2.8067 N.pl3   
  14 N14           -1.2213    -0.6861     0.0626 N.3     
  15 C15           -0.9805    -2.1318     0.1702 C.3     
  16 C16           -2.3212    -2.8638     0.2660 C.3     
  17 N17           -3.1311    -2.5546    -0.9206 N.3     
  18 C18           -3.3719    -1.1089    -1.0283 C.3     
  19 C19           -2.0312    -0.3769    -1.1241 C.3     
  20 C20           -4.3972    -3.2993    -0.9025 C.3     
  21 C21            5.9509     3.9781    -0.0274 C.ar    
  22 C22            7.1748     4.1125    -0.7150 C.ar    
  23 C23           -5.2369    -2.9653    -2.1567 C.3     
  24 C24           -5.3960    -4.3273    -2.8988 C.3     
  25 C25           -4.1281    -4.8317    -1.0049 C.3     
  26 C26           -5.5157    -5.4905    -0.7372 C.3     
  27 C27           -6.3554    -5.1565    -1.9914 C.3     
  28 C28           -4.0206    -5.0040    -2.5613 C.3     
  29 C29            8.3812     3.9090     0.0031 C.ar    
  30 C30            8.2961     3.5820     1.3703 C.ar    
  31 C31            7.0665     3.4749     1.9443 C.ar    
  32 N32            5.9507     3.6743     1.2558 N.ar    
  33 C33            7.2283     4.4388    -2.0777 C.ar    
  34 C34            8.4402     4.5563    -2.6953 C.ar    
  35 C35            9.6329     4.3551    -1.9849 C.ar    
  36 C36            9.6111     4.0357    -0.6567 C.ar    
  37 O37            8.4918     4.8722    -4.0167 O.3     
  38 C38            7.2444     5.0647    -4.6869 C.3     
  39 O39           10.8247     4.4788    -2.6258 O.3     
  40 C40           12.0045     4.2620    -1.8493 C.3     
  41 H41           -0.9645     1.9382    -0.1190 H       
  42 H42            1.2006    -1.7352     0.2017 H       
  43 H43            3.3215    -0.4878     0.1721 H       
  44 H44            1.1563     3.1860    -0.1442 H       
  45 H45            4.3530     1.7888     0.4650 H       
  46 H46            5.0399     6.0990    -1.7326 H       
  47 H47            1.5348     5.6283    -3.0786 H       
  48 H48            2.8293     6.6982    -3.1244 H       
  49 H49           -0.4399    -2.4770    -0.7111 H       
  50 H50           -0.3897    -2.3366     1.0630 H       
  51 H51           -2.1460    -3.9384     0.3167 H       
  52 H52           -2.8499    -2.5385     1.1620 H       
  53 H53           -3.9626    -0.9041    -1.9211 H       
  54 H54           -3.9125    -0.7637    -0.1470 H       
  55 H55           -2.2064     0.6977    -1.1748 H       
  56 H56           -1.5025    -0.7021    -2.0200 H       
  57 H57           -4.9590    -3.0700     0.0030 H       
  58 H58           -6.2122    -2.5737    -1.8678 H       
  59 H59           -4.7102    -2.2485    -2.7867 H       
  60 H60           -5.6699    -4.2670    -3.9520 H       
  61 H61           -3.2978    -5.2105    -0.4089 H       
  62 H62           -5.4092    -6.5697    -0.6276 H       
  63 H63           -5.9750    -5.0608     0.1530 H       
  64 H64           -7.2274    -4.5626    -1.7177 H       
  65 H65           -6.6616    -6.0715    -2.4984 H       
  66 H66           -3.9980    -6.0532    -2.8558 H       
  67 H67           -3.1793    -4.4493    -2.9768 H       
  68 H68            9.1906     3.4186     1.9530 H       
  69 H69            6.9977     3.2239     2.9925 H       
  70 H70            6.3167     4.5957    -2.6352 H       
  71 H71           10.5351     3.8828    -0.1189 H       
  72 H72            7.4281     5.3111    -5.7326 H       
  73 H73            6.6550     4.1498    -4.6272 H       
  74 H74            6.6988     5.8801    -4.2119 H       
  75 H75           12.0369     4.9797    -1.0296 H       
  76 H76           11.9928     3.2496    -1.4456 H       
  77 H77           12.8837     4.3913    -2.4804 H       
@<TRIPOS>BOND
   1    1    2 ar
   2    1    6 ar
   3    1   41 1
   4    2    3 ar
   5    2   14 1
   6    3    4 ar
   7    3   42 1
   8    4    5 ar
   9    4   43 1
  10    5    6 ar
  11    5    7 1
  12    6   44 1
  13    7    8 1
  14    7   45 1
  15    8    9 1
  16    8   10 2
  17    9   21 1
  18    9   12 1
  19   10   11 1
  20   11   12 2
  21   11   13 1
  22   12   46 1
  23   13   47 1
  24   13   48 1
  25   14   15 1
  26   14   19 1
  27   15   16 1
  28   15   49 1
  29   15   50 1
  30   16   17 1
  31   16   51 1
  32   16   52 1
  33   17   18 1
  34   17   20 1
  35   18   19 1
  36   18   53 1
  37   18   54 1
  38   19   55 1
  39   19   56 1
  40   20   23 1
  41   20   25 1
  42   20   57 1
  43   21   22 ar
  44   21   32 ar
  45   22   29 ar
  46   22   33 ar
  47   23   24 1
  48   23   58 1
  49   23   59 1
  50   24   27 1
  51   24   28 1
  52   24   60 1
  53   25   26 1
  54   25   28 1
  55   25   61 1
  56   26   27 1
  57   26   62 1
  58   26   63 1
  59   27   64 1
  60   27   65 1
  61   28   66 1
  62   28   67 1
  63   29   30 ar
  64   29   36 ar
  65   30   31 ar
  66   30   68 1
  67   31   32 ar
  68   31   69 1
  69   33   34 ar
  70   33   70 1
  71   34   35 ar
  72   34   37 1
  73   35   36 ar
  74   35   39 1
  75   36   71 1
  76   37   38 1
  77   38   72 1
  78   38   73 1
  79   38   74 1
  80   39   40 1
  81   40   75 1
  82   40   76 1
  83   40   77 1

#	End of record

