#	Name: ASD11810006
#	Creating user name:	WinNT
#	Creation time:	15. 06. 2019 21:29

#	Modifying user name:	WinNT
#	Modification time:	15. 06. 2019 21:29

#	Program:	/corina/corina34_cracker 3.40 0067  02.08.2006

@<TRIPOS>MOLECULE
ASD11810006
  40   41    0    0    0
SMALL
NO_CHARGES


@<TRIPOS>ATOM
   1 C1             4.2758     1.5656     1.6193 C.ar    
   2 C2             5.0737     0.5526     1.1036 C.ar    
   3 N3             3.3266     2.1931     0.8057 N.am    
   4 C4             3.1859     3.5329     0.8446 C.2     
   5 N5             2.3240     4.1445     0.0082 N.am    
   6 C6             2.1139     5.5240     0.1064 C.ar    
   7 C7             3.1945     6.3836     0.2551 C.ar    
   8 C8             2.9837     7.7451     0.3513 C.ar    
   9 C9             1.6984     8.2526     0.3001 C.ar    
  10 C10            0.6202     7.3993     0.1526 C.ar    
  11 C11            0.8247     6.0373     0.0496 C.ar    
  12 S12            1.4337     9.9902     0.4238 S.o2    
  13 N13            1.4737    10.6029    -1.1142 N.am    
  14 C14            0.4459    10.2159    -2.0838 C.3     
  15 O15            1.7232    11.0357    -3.9644 O.3     
  16 C16            0.4800    11.1766    -3.2740 C.3     
  17 O17            0.1021    10.1612     0.8893 O.2     
  18 O18            2.5666    10.5218     1.0970 O.2     
  19 S19            4.1019     4.4579     1.9564 S.2     
  20 C20            6.0097    -0.0652     1.9096 C.ar    
  21 C21            6.1525     0.3235     3.2290 C.ar    
  22 C22            5.3592     1.3315     3.7457 C.ar    
  23 C23            4.4184     1.9504     2.9462 C.ar    
  24 H24            4.9622     0.2481     0.0734 H       
  25 H25            2.7696     1.6639     0.2136 H       
  26 H26            1.8494     3.6281    -0.6619 H       
  27 H27            4.1985     5.9879     0.2958 H       
  28 H28            3.8236     8.4142     0.4669 H       
  29 H29           -0.3824     7.7988     0.1137 H       
  30 H30           -0.0177     5.3714    -0.0660 H       
  31 H31            2.1776    11.2179    -1.3731 H       
  32 H32            0.6377     9.2005    -2.4308 H       
  33 H33           -0.5349    10.2588    -1.6102 H       
  34 H34            1.8145    11.6161    -4.7325 H       
  35 H35           -0.3408    10.9439    -3.9525 H       
  36 H36            0.3768    12.2013    -2.9169 H       
  37 H37            6.6305    -0.8530     1.5092 H       
  38 H38            6.8848    -0.1614     3.8574 H       
  39 H39            5.4727     1.6323     4.7768 H       
  40 H40            3.7994     2.7378     3.3502 H       
@<TRIPOS>BOND
   1    1    2 ar
   2    1    3 1
   3    1   23 ar
   4    2   20 ar
   5    2   24 1
   6    3    4 am
   7    3   25 1
   8    4    5 am
   9    4   19 2
  10    5    6 1
  11    5   26 1
  12    6    7 ar
  13    6   11 ar
  14    7    8 ar
  15    7   27 1
  16    8    9 ar
  17    8   28 1
  18    9   10 ar
  19    9   12 1
  20   10   11 ar
  21   10   29 1
  22   11   30 1
  23   12   13 am
  24   12   17 2
  25   12   18 2
  26   13   14 1
  27   13   31 1
  28   14   16 1
  29   14   32 1
  30   14   33 1
  31   15   16 1
  32   15   34 1
  33   16   35 1
  34   16   36 1
  35   20   21 ar
  36   20   37 1
  37   21   22 ar
  38   21   38 1
  39   22   23 ar
  40   22   39 1
  41   23   40 1

#	End of record

