#	Name: ASD11030057
#	Creating user name:	WinNT
#	Creation time:	15. 06. 2019 21:29

#	Modifying user name:	WinNT
#	Modification time:	15. 06. 2019 21:29

#	Program:	/corina/corina34_cracker 3.40 0067  02.08.2006

@<TRIPOS>MOLECULE
ASD11030057
  85   90    0    0    0
SMALL
NO_CHARGES


@<TRIPOS>ATOM
   1 C1             3.1292     4.6009    -6.5259 C.ar    
   2 C2             2.0897     3.7261    -6.2597 C.ar    
   3 C3             2.0622     3.0493    -5.0430 C.ar    
   4 N4             3.0149     3.2345    -4.1449 N.ar    
   5 C5             4.0272     4.0669    -4.3679 C.ar    
   6 C6             4.1134     4.7741    -5.5655 C.ar    
   7 C7             5.0706     4.2443    -3.3358 C.2     
   8 C8             5.4541     3.3024    -2.4372 C.2     
   9 C9             6.4727     3.8636    -1.6298 C.ar    
  10 C10            6.6775     5.1808    -2.0883 C.ar    
  11 N11            5.8091     5.3879    -3.1394 N.pl3   
  12 C12            7.2310     3.3697    -0.5585 C.ar    
  13 C13            8.1638     4.1614     0.0378 C.ar    
  14 C14            8.3746     5.4732    -0.4116 C.ar    
  15 C15            7.6307     5.9797    -1.4748 C.ar    
  16 C16            5.6864     6.6258    -3.9131 C.3     
  17 C17            4.8954     1.9077    -2.3198 C.3     
  18 C18            9.3892     6.3206     0.2448 C.2     
  19 N19           10.1107     5.8335     1.2736 N.am    
  20 O20            9.5740     7.4582    -0.1427 O.2     
  21 C21           11.1935     6.6328     1.8522 C.3     
  22 C22           10.7004     7.8920     2.5172 C.2     
  23 N23            9.5015     7.9039     3.1328 N.am    
  24 O24           11.3823     8.8948     2.4983 O.2     
  25 C25            9.0743     9.0485     3.8055 C.ar    
  26 C26            9.3380    10.3068     3.2695 C.ar    
  27 C27            8.9248    11.4344     3.9189 C.ar    
  28 C28            8.2314    11.3317     5.1314 C.ar    
  29 C29            7.9633    10.0630     5.6757 C.ar    
  30 C30            8.3826     8.9285     5.0046 C.ar    
  31 C31           12.1648     5.8168     2.7216 C.3     
  32 C32           13.2977     6.6501     2.0995 C.3     
  33 C33           12.3702     6.8647     0.8896 C.3     
  34 C34            7.7872    12.5420     5.8307 C.2     
  35 C35            8.0470    13.7611     5.3046 C.2     
  36 C36            6.0139     0.8723    -2.5314 C.3     
  37 C37            6.1038     0.0486    -1.2302 C.3     
  38 C38            4.7040     0.2031    -0.5853 C.3     
  39 C39            4.3447     1.6771    -0.8974 C.3     
  40 N40            1.0215     2.1696    -4.7694 N.pl3   
  41 O41            7.2923     9.9522     6.8498 O.3     
  42 C42            6.2933     8.7068     8.6640 C.3     
  43 C43            7.0569     8.6309     7.3404 C.3     
  44 C44            7.6183    14.9293     5.9795 C.2     
  45 O45            7.0161    14.8370     7.0327 O.2     
  46 O46            7.8775    16.1453     5.4547 O.3     
  47 H47            3.1745     5.1339    -7.4641 H       
  48 H48            1.3078     3.5704    -6.9882 H       
  49 H49            4.9374     5.4492    -5.7433 H       
  50 H50            7.0746     2.3608    -0.2063 H       
  51 H51            8.7454     3.7771     0.8627 H       
  52 H52            7.7951     6.9899    -1.8194 H       
  53 H53            6.2891     6.5500    -4.8181 H       
  54 H54            4.6423     6.7829    -4.1840 H       
  55 H55            6.0363     7.4657    -3.3128 H       
  56 H56            4.1051     1.7592    -3.0556 H       
  57 H57            9.9131     4.9536     1.6310 H       
  58 H58            8.9358     7.1163     3.1081 H       
  59 H59            9.8727    10.3910     2.3349 H       
  60 H60            9.1332    12.4066     3.4974 H       
  61 H61            8.1800     7.9508     5.4163 H       
  62 H62           12.0377     5.9825     3.7914 H       
  63 H63           12.2045     4.7600     2.4577 H       
  64 H64           13.5174     7.5664     2.6475 H       
  65 H65           14.1907     6.0693     1.8686 H       
  66 H66           12.4656     6.0945     0.1242 H       
  67 H67           12.4105     7.8749     0.4822 H       
  68 H68            7.2526    12.4601     6.7655 H       
  69 H69            8.5816    13.8430     4.3697 H       
  70 H70            5.7659     0.2208    -3.3693 H       
  71 H71            6.9608     1.3786    -2.7190 H       
  72 H72            6.3069    -0.9985    -1.4548 H       
  73 H73            6.8732     0.4551    -0.5737 H       
  74 H74            3.9881    -0.4755    -1.0490 H       
  75 H75            4.7540     0.0372     0.4908 H       
  76 H76            4.8300     2.3466    -0.1872 H       
  77 H77            3.2641     1.8184    -0.8791 H       
  78 H78            0.3197     2.0299    -5.4242 H       
  79 H79            0.9971     1.6953    -3.9236 H       
  80 H80            6.8822     9.2650     9.3917 H       
  81 H81            5.3398     9.2105     8.5050 H       
  82 H82            6.1138     7.6989     9.0382 H       
  83 H83            6.4680     8.0726     6.6126 H       
  84 H84            8.0104     8.1272     7.4993 H       
  85 H85            7.5461    16.8819     5.9864 H       
@<TRIPOS>BOND
   1    1    2 ar
   2    1    6 ar
   3    1   47 1
   4    2    3 ar
   5    2   48 1
   6    3    4 ar
   7    3   40 1
   8    4    5 ar
   9    5    6 ar
  10    5    7 1
  11    6   49 1
  12    7    8 2
  13    7   11 1
  14    8    9 1
  15    8   17 1
  16    9   10 ar
  17    9   12 ar
  18   10   11 1
  19   10   15 ar
  20   11   16 1
  21   12   13 ar
  22   12   50 1
  23   13   14 ar
  24   13   51 1
  25   14   15 ar
  26   14   18 1
  27   15   52 1
  28   16   53 1
  29   16   54 1
  30   16   55 1
  31   17   36 1
  32   17   39 1
  33   17   56 1
  34   18   19 am
  35   18   20 2
  36   19   21 1
  37   19   57 1
  38   21   22 1
  39   21   31 1
  40   21   33 1
  41   22   23 am
  42   22   24 2
  43   23   25 1
  44   23   58 1
  45   25   26 ar
  46   25   30 ar
  47   26   27 ar
  48   26   59 1
  49   27   28 ar
  50   27   60 1
  51   28   29 ar
  52   28   34 1
  53   29   30 ar
  54   29   41 1
  55   30   61 1
  56   31   32 1
  57   31   62 1
  58   31   63 1
  59   32   33 1
  60   32   64 1
  61   32   65 1
  62   33   66 1
  63   33   67 1
  64   34   35 2
  65   34   68 1
  66   35   44 1
  67   35   69 1
  68   36   37 1
  69   36   70 1
  70   36   71 1
  71   37   38 1
  72   37   72 1
  73   37   73 1
  74   38   39 1
  75   38   74 1
  76   38   75 1
  77   39   76 1
  78   39   77 1
  79   40   78 1
  80   40   79 1
  81   41   43 1
  82   42   43 1
  83   42   80 1
  84   42   81 1
  85   42   82 1
  86   43   83 1
  87   43   84 1
  88   44   45 2
  89   44   46 1
  90   46   85 1

#	End of record

