#	Name: ASD10610112
#	Creating user name:	WinNT
#	Creation time:	15. 06. 2019 21:28

#	Modifying user name:	WinNT
#	Modification time:	15. 06. 2019 21:28

#	Program:	/corina/corina34_cracker 3.40 0067  02.08.2006

@<TRIPOS>MOLECULE
ASD10610112
  57   60    0    0    0
SMALL
NO_CHARGES


@<TRIPOS>ATOM
   1 C1             0.0251     1.4840     0.0450 C.3     
   2 C2             0.2224    -0.0299    -0.0565 C.3     
   3 C3             1.4375     0.8960     0.0281 C.3     
   4 C4            -0.4415     2.2092    -1.1909 C.2     
   5 O5            -0.2360     1.7332    -2.2873 O.2     
   6 N6            -1.0871     3.3869    -1.0778 N.am    
   7 C7            -1.4433     4.1453    -2.2795 C.3     
   8 C8            -2.6519     5.0621    -1.9954 C.3     
   9 C9            -1.9744     6.3844    -1.5778 C.3     
  10 C10           -0.6225     6.3694    -2.2591 C.ar    
  11 C11            0.2662     7.3996    -2.5044 C.ar    
  12 C12            1.4693     7.1439    -3.1574 C.ar    
  13 C13            1.7724     5.8447    -3.5621 C.ar    
  14 C14            0.8804     4.8239    -3.3134 C.ar    
  15 C15           -0.3168     5.0817    -2.6629 C.ar    
  16 O16            3.7530     8.2305    -4.0918 O.3     
  17 B17            2.4791     8.3130    -3.4369 Du      
  18 O18            2.3301     9.6981    -3.0939 O.3     
  19 C19            2.8579    10.4147    -4.2300 C.3     
  20 C20            3.8226     9.4196    -4.9066 C.3     
  21 C21            5.2468     9.9786    -4.9132 C.3     
  22 C22            3.3611     9.1160    -6.3334 C.3     
  23 C23            1.7294    10.7989    -5.1891 C.3     
  24 C24            3.6151    11.6616    -3.7689 C.3     
  25 N25           -0.4702     2.0179     1.3161 N.am    
  26 C26           -1.7091     1.7022     1.7427 C.2     
  27 O27           -2.3797     0.9054     1.1212 O.2     
  28 C28           -2.2610     2.3392     2.9919 C.3     
  29 F29           -3.5529     1.8577     3.2292 F       
  30 F30           -1.4387     2.0236     4.0788 F       
  31 F31           -2.3039     3.7279     2.8273 F       
  32 H32           -0.0164    -0.6285     0.8226 H       
  33 H33            0.0147    -0.5012    -1.0171 H       
  34 H34            2.0292     1.0337    -0.8769 H       
  35 H35            1.9982     0.9064     0.9628 H       
  36 H36           -1.3159     3.7323    -0.2007 H       
  37 H37           -1.6682     3.4673    -3.1028 H       
  38 H38           -3.2522     5.2015    -2.8945 H       
  39 H39           -3.2578     4.6633    -1.1818 H       
  40 H40           -2.5620     7.2355    -1.9218 H       
  41 H41           -1.8520     6.4211    -0.4953 H       
  42 H42            0.0269     8.4045    -2.1894 H       
  43 H43            2.7033     5.6388    -4.0693 H       
  44 H44            1.1151     3.8175    -3.6272 H       
  45 H45            5.9249     9.2405    -5.3415 H       
  46 H46            5.2767    10.8896    -5.5111 H       
  47 H47            5.5534    10.2042    -3.8918 H       
  48 H48            2.3404     8.7343    -6.3116 H       
  49 H49            3.3951    10.0287    -6.9282 H       
  50 H50            4.0191     8.3686    -6.7768 H       
  51 H51            1.0259    11.4559    -4.6776 H       
  52 H52            2.1471    11.3159    -6.0530 H       
  53 H53            1.2113     9.8988    -5.5198 H       
  54 H54            4.4243    11.3687    -3.1001 H       
  55 H55            4.0288    12.1768    -4.6359 H       
  56 H56            2.9316    12.3278    -3.2424 H       
  57 H57            0.0935     2.5987     1.8507 H       
@<TRIPOS>BOND
   1    1    2 1
   2    1    3 1
   3    1    4 1
   4    1   25 1
   5    2    3 1
   6    2   32 1
   7    2   33 1
   8    3   34 1
   9    3   35 1
  10    4    5 2
  11    4    6 am
  12    6    7 1
  13    6   36 1
  14    7    8 1
  15    7   15 1
  16    7   37 1
  17    8    9 1
  18    8   38 1
  19    8   39 1
  20    9   10 1
  21    9   40 1
  22    9   41 1
  23   10   11 ar
  24   10   15 ar
  25   11   12 ar
  26   11   42 1
  27   12   13 ar
  28   12   17 1
  29   13   14 ar
  30   13   43 1
  31   14   15 ar
  32   14   44 1
  33   16   17 1
  34   16   20 1
  35   17   18 1
  36   18   19 1
  37   19   20 1
  38   19   23 1
  39   19   24 1
  40   20   21 1
  41   20   22 1
  42   21   45 1
  43   21   46 1
  44   21   47 1
  45   22   48 1
  46   22   49 1
  47   22   50 1
  48   23   51 1
  49   23   52 1
  50   23   53 1
  51   24   54 1
  52   24   55 1
  53   24   56 1
  54   25   26 am
  55   25   57 1
  56   26   27 2
  57   26   28 1
  58   28   29 1
  59   28   30 1
  60   28   31 1

#	End of record

