#	Name: ASD14720008
#	Creating user name:	WinNT
#	Creation time:	15. 06. 2019 21:31

#	Modifying user name:	WinNT
#	Modification time:	15. 06. 2019 21:31

#	Program:	/corina/corina34_cracker 3.40 0067  02.08.2006

@<TRIPOS>MOLECULE
ASD14720008
  52   55    0    0    0
SMALL
NO_CHARGES


@<TRIPOS>ATOM
   1 N1             1.0938     2.8421    -0.0301 N.3     
   2 C2             1.6876     1.7624    -0.8346 C.3     
   3 C3             2.3153     2.3780    -2.0855 C.3     
   4 C4             3.2103     3.5277    -1.6996 C.ar    
   5 C5             2.1479     3.6558     0.5839 C.3     
   6 C6             4.1345     3.9864    -2.6261 C.ar    
   7 C7             4.9709     5.0393    -2.3143 C.ar    
   8 C8             4.8863     5.6402    -1.0720 C.ar    
   9 C9             3.9676     5.1837    -0.1488 C.ar    
  10 C10            3.1276     4.1243    -0.4598 C.ar    
  11 C11            0.1856     2.3005     0.9895 C.3     
  12 C12           -0.1651     3.3840     1.9764 C.2     
  13 C13           -1.0714     1.7984     0.3269 C.ar    
  14 N14            0.1050     3.3917     3.2590 N.2     
  15 N15           -0.8115     4.5343     1.7109 N.pl3   
  16 N16           -0.9110     5.1798     2.8236 N.2     
  17 N17           -0.3565     4.4870     3.7563 N.2     
  18 C18           -2.2995     1.2653    -1.6599 C.ar    
  19 C19           -3.3821     0.8759    -0.8893 C.ar    
  20 C20           -3.3133     0.9521     0.4881 C.ar    
  21 C21           -2.1570     1.4141     1.0997 C.ar    
  22 C22           -1.1448     1.7261    -1.0509 C.ar    
  23 C23           -1.3084     4.9716     0.4039 C.3     
  24 C24           -2.6190     4.2480     0.0884 C.3     
  25 C25           -1.5531     6.4816     0.4304 C.3     
  26 C26           -0.2719     4.6417    -0.6721 C.3     
  27 O27           -2.0879     1.4896     2.4553 O.3     
  28 F28           -2.3679     1.1898    -3.0071 F       
  29 H29            2.4553     1.2521    -0.2530 H       
  30 H30            0.9124     1.0533    -1.1250 H       
  31 H31            2.9025     1.6212    -2.6057 H       
  32 H32            1.5268     2.7391    -2.7458 H       
  33 H33            1.6977     4.5215     1.0698 H       
  34 H34            2.6738     3.0605     1.3303 H       
  35 H35            4.2006     3.5171    -3.5966 H       
  36 H36            5.6896     5.3927    -3.0388 H       
  37 H37            5.5382     6.4649    -0.8243 H       
  38 H38            3.9024     5.6536     0.8214 H       
  39 H39            0.6746     1.4779     1.5115 H       
  40 H40           -4.2823     0.5166    -1.3657 H       
  41 H41           -4.1578     0.6483     1.0889 H       
  42 H42           -0.3012     2.0295    -1.6531 H       
  43 H43           -3.3746     4.5283     0.8224 H       
  44 H44           -2.9587     4.5296    -0.9083 H       
  45 H45           -2.4576     3.1707     0.1264 H       
  46 H46           -0.6193     6.9971     0.6552 H       
  47 H47           -1.9227     6.8069    -0.5420 H       
  48 H48           -2.2915     6.7167     1.1970 H       
  49 H49           -0.2964     3.5729    -0.8846 H       
  50 H50           -0.5018     5.1981    -1.5808 H       
  51 H51            0.7208     4.9190    -0.3176 H       
  52 H52           -1.6836     0.7164     2.8722 H       
@<TRIPOS>BOND
   1    1    2 1
   2    1    5 1
   3    1   11 1
   4    2    3 1
   5    2   29 1
   6    2   30 1
   7    3    4 1
   8    3   31 1
   9    3   32 1
  10    4    6 ar
  11    4   10 ar
  12    5   10 1
  13    5   33 1
  14    5   34 1
  15    6    7 ar
  16    6   35 1
  17    7    8 ar
  18    7   36 1
  19    8    9 ar
  20    8   37 1
  21    9   10 ar
  22    9   38 1
  23   11   12 1
  24   11   13 1
  25   11   39 1
  26   12   15 1
  27   12   14 2
  28   13   22 ar
  29   13   21 ar
  30   14   17 1
  31   15   16 1
  32   15   23 1
  33   16   17 2
  34   18   19 ar
  35   18   22 ar
  36   18   28 1
  37   19   20 ar
  38   19   40 1
  39   20   21 ar
  40   20   41 1
  41   21   27 1
  42   22   42 1
  43   23   24 1
  44   23   25 1
  45   23   26 1
  46   24   43 1
  47   24   44 1
  48   24   45 1
  49   25   46 1
  50   25   47 1
  51   25   48 1
  52   26   49 1
  53   26   50 1
  54   26   51 1
  55   27   52 1

#	End of record

