#	Name: ASD16040003
#	Creating user name:	WinNT
#	Creation time:	15. 06. 2019 21:31

#	Modifying user name:	WinNT
#	Modification time:	15. 06. 2019 21:31

#	Program:	/corina/corina34_cracker 3.40 0067  02.08.2006

@<TRIPOS>MOLECULE
ASD16040003
  51   54    0    0    0
SMALL
NO_CHARGES


@<TRIPOS>ATOM
   1 C1            -0.0173     1.4248     0.0099 C.3     
   2 O2             0.0021    -0.0041     0.0020 O.3     
   3 C3             0.6258    -0.6184     1.0415 C.ar    
   4 C4             1.2022     0.1383     2.0511 C.ar    
   5 C5             1.8353    -0.4886     3.1071 C.ar    
   6 C6             1.8951    -1.8689     3.1577 C.ar    
   7 C7             1.3217    -2.6255     2.1522 C.ar    
   8 C8             0.6822    -2.0036     1.0976 C.ar    
   9 C9             0.0517    -2.8289     0.0055 C.3     
  10 C10            1.0247    -2.9799    -1.1353 C.2     
  11 O11            2.1220    -2.4678    -1.0683 O.2     
  12 N12            0.6754    -3.6840    -2.2302 N.am    
  13 C13            1.6212    -3.8308    -3.3392 C.3     
  14 C14            2.8883    -4.5281    -2.8400 C.3     
  15 C15            2.5275    -5.9099    -2.2912 C.3     
  16 C16            1.8874    -6.7478    -3.3999 C.3     
  17 C17            0.6203    -6.0505    -3.8991 C.3     
  18 C18            0.9811    -4.6686    -4.4479 C.3     
  19 C19            1.9767    -2.4697    -3.8798 C.2     
  20 N20            2.5446    -1.4936    -3.2165 N.2     
  21 C21            2.6676    -0.4771    -4.1005 C.2     
  22 N22            2.1714    -0.8927    -5.2379 N.2     
  23 O23            1.7767    -2.0343    -5.1277 O.3     
  24 C24            3.2536     0.8575    -3.8311 C.2     
  25 C25            3.3384     1.8572    -4.8017 C.2     
  26 C26            3.8968     2.9838    -4.3636 C.2     
  27 S27            4.3411     2.8077    -2.6724 S.3     
  28 C28            3.7435     1.2099    -2.6295 C.2     
  29 H29            1.0053     1.8021     0.0021 H       
  30 H30           -0.5445     1.7859    -0.8732 H       
  31 H31           -0.5275     1.7763     0.9067 H       
  32 H32            1.1563     1.2166     2.0116 H       
  33 H33            2.2842     0.1001     3.8934 H       
  34 H34            2.3907    -2.3570     3.9838 H       
  35 H35            1.3700    -3.7036     2.1938 H       
  36 H36           -0.2054    -3.8133     0.3965 H       
  37 H37           -0.8510    -2.3321    -0.3501 H       
  38 H38           -0.2023    -4.0936    -2.2838 H       
  39 H39            3.5921    -4.6373    -3.6652 H       
  40 H40            3.3443    -3.9312    -2.0502 H       
  41 H41            3.4301    -6.4067    -1.9356 H       
  42 H42            1.8237    -5.8007    -1.4660 H       
  43 H43            2.5911    -6.8570    -4.2251 H       
  44 H44            1.6303    -7.7322    -3.0089 H       
  45 H45            0.1643    -6.6473    -4.6890 H       
  46 H46           -0.0835    -5.9412    -3.0739 H       
  47 H47            0.0785    -4.1718    -4.8036 H       
  48 H48            1.6849    -4.7778    -5.2731 H       
  49 H49            2.9846     1.7286    -5.8140 H       
  50 H50            4.0534     3.8718    -4.9579 H       
  51 H51            3.7583     0.5705    -1.7593 H       
@<TRIPOS>BOND
   1    1    2 1
   2    1   29 1
   3    1   30 1
   4    1   31 1
   5    2    3 1
   6    3    8 ar
   7    3    4 ar
   8    4    5 ar
   9    4   32 1
  10    5    6 ar
  11    5   33 1
  12    6    7 ar
  13    6   34 1
  14    7    8 ar
  15    7   35 1
  16    8    9 1
  17    9   10 1
  18    9   36 1
  19    9   37 1
  20   10   11 2
  21   10   12 am
  22   12   13 1
  23   12   38 1
  24   13   18 1
  25   13   14 1
  26   13   19 1
  27   14   15 1
  28   14   39 1
  29   14   40 1
  30   15   16 1
  31   15   41 1
  32   15   42 1
  33   16   17 1
  34   16   43 1
  35   16   44 1
  36   17   18 1
  37   17   45 1
  38   17   46 1
  39   18   47 1
  40   18   48 1
  41   19   23 1
  42   19   20 2
  43   20   21 1
  44   21   22 2
  45   21   24 1
  46   22   23 1
  47   24   28 2
  48   24   25 1
  49   25   26 2
  50   25   49 1
  51   26   27 1
  52   26   50 1
  53   27   28 1
  54   28   51 1

#	End of record

