#	Name: ASD10420013
#	Creating user name:	WinNT
#	Creation time:	15. 06. 2019 21:27

#	Modifying user name:	WinNT
#	Modification time:	15. 06. 2019 21:27

#	Program:	/corina/corina34_cracker 3.40 0067  02.08.2006

@<TRIPOS>MOLECULE
ASD10420013
  58   62    0    0    0
SMALL
NO_CHARGES


@<TRIPOS>ATOM
   1 C1            -0.0617     2.2444     0.0191 C.2     
   2 N2             0.3315     0.9333     0.0383 N.pl3   
   3 C3            -0.7922     0.1361     0.0435 C.2     
   4 C4            -1.9001     0.9243     0.0279 C.2     
   5 C5            -1.4704     2.2692     0.0174 C.2     
   6 C6             0.8973     3.2666     0.0106 C.2     
   7 C7             2.2229     2.9402     0.0216 C.2     
   8 C8             2.6002     1.5885     0.0413 C.2     
   9 C9             1.6608     0.6186     0.0492 C.2     
  10 C10           -2.3227     3.4581    -0.0006 C.2     
  11 N11           -2.5719     4.0912    -1.1640 N.am    
  12 C12           -3.4259     5.2880    -1.2045 C.3     
  13 C13           -2.6789     6.3938    -1.9576 C.3     
  14 N14           -2.2557     5.8881    -3.2703 N.3     
  15 C15           -1.3063     4.7757    -3.1320 C.3     
  16 C16           -1.9920     3.6071    -2.4261 C.3     
  17 O17           -2.8070     3.8757     1.0357 O.2     
  18 C18           -3.3299     0.4479     0.0269 C.3     
  19 C19           -3.8447     0.4066    -1.3888 C.ar    
  20 C20           -3.8769    -0.7914    -2.0775 C.ar    
  21 C21           -4.2897     1.5658    -1.9962 C.ar    
  22 C22           -4.7622     1.5294    -3.2951 C.ar    
  23 C23           -4.7906     0.3338    -3.9873 C.ar    
  24 C24           -4.3498    -0.8290    -3.3780 C.ar    
  25 F25           -4.3766    -1.9984    -4.0540 F       
  26 C26           -3.3969    -2.0559    -1.4130 C.3     
  27 C27           -0.7932    -1.3412     0.0623 C.ar    
  28 C28           -0.1229    -2.0557    -0.9327 C.ar    
  29 C29           -0.1275    -3.4349    -0.9088 C.ar    
  30 C30           -0.7943    -4.1104     0.0980 C.ar    
  31 C31           -1.4609    -3.4086     1.0868 C.ar    
  32 C32           -1.4596    -2.0292     1.0783 C.ar    
  33 Br33           3.5394     4.2976     0.0099 Br      
  34 H34            0.5907     4.3020    -0.0050 H       
  35 H35            3.6470     1.3228     0.0498 H       
  36 H36            1.9638    -0.4179     0.0643 H       
  37 H37           -4.3565     5.0564    -1.7225 H       
  38 H38           -3.6416     5.6184    -0.1884 H       
  39 H39           -3.3385     7.2509    -2.0934 H       
  40 H40           -1.8024     6.6961    -1.3845 H       
  41 H41           -3.0522     5.6165    -3.8271 H       
  42 H42           -0.9704     4.4593    -4.1195 H       
  43 H43           -0.4489     5.1006    -2.5426 H       
  44 H44           -1.2617     2.8249    -2.2191 H       
  45 H45           -2.7864     3.2121    -3.0593 H       
  46 H46           -3.3805    -0.5505     0.4612 H       
  47 H47           -3.9411     1.1318     0.6159 H       
  48 H48           -4.2686     2.5005    -1.4557 H       
  49 H49           -5.1097     2.4357    -3.7687 H       
  50 H50           -5.1604     0.3055    -5.0016 H       
  51 H51           -4.2473    -2.5868    -0.9850 H       
  52 H52           -2.9065    -2.6906    -2.1511 H       
  53 H53           -2.6898    -1.8051    -0.6224 H       
  54 H54            0.3976    -1.5296    -1.7193 H       
  55 H55            0.3903    -3.9887    -1.6780 H       
  56 H56           -0.7947    -5.1903     0.1119 H       
  57 H57           -1.9800    -3.9420     1.8694 H       
  58 H58           -1.9803    -1.4826     1.8507 H       
@<TRIPOS>BOND
   1    1    2 1
   2    1    6 1
   3    1    5 2
   4    2    3 1
   5    2    9 1
   6    3    4 2
   7    3   27 1
   8    4    5 1
   9    4   18 1
  10    5   10 1
  11    6    7 2
  12    6   34 1
  13    7    8 1
  14    7   33 1
  15    8    9 2
  16    8   35 1
  17    9   36 1
  18   10   11 am
  19   10   17 2
  20   11   12 1
  21   11   16 1
  22   12   13 1
  23   12   37 1
  24   12   38 1
  25   13   14 1
  26   13   39 1
  27   13   40 1
  28   14   15 1
  29   14   41 1
  30   15   16 1
  31   15   42 1
  32   15   43 1
  33   16   44 1
  34   16   45 1
  35   18   19 1
  36   18   46 1
  37   18   47 1
  38   19   20 ar
  39   19   21 ar
  40   20   26 1
  41   20   24 ar
  42   21   22 ar
  43   21   48 1
  44   22   23 ar
  45   22   49 1
  46   23   24 ar
  47   23   50 1
  48   24   25 1
  49   26   51 1
  50   26   52 1
  51   26   53 1
  52   27   28 ar
  53   27   32 ar
  54   28   29 ar
  55   28   54 1
  56   29   30 ar
  57   29   55 1
  58   30   31 ar
  59   30   56 1
  60   31   32 ar
  61   31   57 1
  62   32   58 1

#	End of record

