#	Name: ASD13010032
#	Creating user name:	WinNT
#	Creation time:	15. 06. 2019 21:30

#	Modifying user name:	WinNT
#	Modification time:	15. 06. 2019 21:30

#	Program:	/corina/corina34_cracker 3.40 0067  02.08.2006

@<TRIPOS>MOLECULE
ASD13010032
  42   45    0    0    0
SMALL
NO_CHARGES


@<TRIPOS>ATOM
   1 C1            -0.0166     1.3727     0.0096 C.ar    
   2 C2             0.0021    -0.0041     0.0020 C.ar    
   3 C3             1.2065    -0.6957    -0.0132 C.ar    
   4 C4             2.3946    -0.0227    -0.0205 C.ar    
   5 C5             1.1823     2.0793     0.0019 C.ar    
   6 N6             1.4975     3.4168     0.0054 N.pl3   
   7 C7             2.4010     1.3746    -0.0130 C.ar    
   8 C8             3.4599     2.3856    -0.0178 C.2     
   9 N9             2.8887     3.5598    -0.0076 N.2     
  10 C10            0.5774     4.4640     0.0195 C.ar    
  11 O11            4.7969     2.1452    -0.0313 O.3     
  12 C12            5.6373     3.2135    -0.0337 C.ar    
  13 C13            6.0517     3.7697    -1.2363 C.ar    
  14 C14            6.0784     3.7542     1.1664 C.ar    
  15 C15            6.9328     4.8412     1.1607 C.ar    
  16 C16            7.3480     5.3896    -0.0387 C.ar    
  17 C17            6.9062     4.8566    -1.2355 C.ar    
  18 C18           -1.2519     6.5456     0.0480 C.ar    
  19 C19           -1.5429     5.3665    -0.6450 C.ar    
  20 C20           -0.6324     4.3345    -0.6565 C.ar    
  21 C21            0.8682     5.6345     0.7143 C.ar    
  22 C22           -0.0380     6.6701     0.7308 C.ar    
  23 C23           -2.2247     7.6536     0.0622 C.2     
  24 O24           -3.2806     7.5426    -0.5288 O.2     
  25 O25           -1.9427     8.7892     0.7305 O.3     
  26 Cl26           5.4980     3.1007    -2.7395 Cl      
  27 Cl27           5.5572     3.0667     2.6728 Cl      
  28 C28            3.6948    -0.7845    -0.0360 C.3     
  29 H29           -0.9579     1.9021     0.0169 H       
  30 H30           -0.9289    -0.5515     0.0083 H       
  31 H31            1.2032    -1.7756    -0.0190 H       
  32 H32            7.2760     5.2625     2.0940 H       
  33 H33            8.0154     6.2387    -0.0406 H       
  34 H34            7.2292     5.2895    -2.1708 H       
  35 H35           -2.4795     5.2670    -1.1734 H       
  36 H36           -0.8567     3.4232    -1.1910 H       
  37 H37            1.8060     5.7299     1.2415 H       
  38 H38            0.1898     7.5794     1.2671 H       
  39 H39           -2.6113     9.4876     0.7111 H       
  40 H40            3.9990    -0.9630    -1.0673 H       
  41 H41            4.4628    -0.2029     0.4739 H       
  42 H42            3.5629    -1.7387     0.4743 H       
@<TRIPOS>BOND
   1    1    2 ar
   2    1    5 ar
   3    1   29 1
   4    2    3 ar
   5    2   30 1
   6    3    4 ar
   7    3   31 1
   8    4    7 ar
   9    4   28 1
  10    5    7 ar
  11    5    6 1
  12    6    9 1
  13    6   10 1
  14    7    8 1
  15    8    9 2
  16    8   11 1
  17   10   21 ar
  18   10   20 ar
  19   11   12 1
  20   12   14 ar
  21   12   13 ar
  22   13   17 ar
  23   13   26 1
  24   14   15 ar
  25   14   27 1
  26   15   16 ar
  27   15   32 1
  28   16   17 ar
  29   16   33 1
  30   17   34 1
  31   18   19 ar
  32   18   22 ar
  33   18   23 1
  34   19   20 ar
  35   19   35 1
  36   20   36 1
  37   21   22 ar
  38   21   37 1
  39   22   38 1
  40   23   24 2
  41   23   25 1
  42   25   39 1
  43   28   40 1
  44   28   41 1
  45   28   42 1

#	End of record

