#	Name: ASD13750007
#	Creating user name:	WinNT
#	Creation time:	15. 06. 2019 21:30

#	Modifying user name:	WinNT
#	Modification time:	15. 06. 2019 21:30

#	Program:	/corina/corina34_cracker 3.40 0067  02.08.2006

@<TRIPOS>MOLECULE
ASD13750007
  44   47    0    0    0
SMALL
NO_CHARGES


@<TRIPOS>ATOM
   1 C1            -0.0162     1.3461     0.0094 C.ar    
   2 O2             0.0021    -0.0041     0.0020 O.3     
   3 C3            -1.1277    -0.7289     0.0085 C.2     
   4 C4            -2.3960    -0.1241     0.0233 C.2     
   5 C5            -2.4930     1.2545     0.0316 C.2     
   6 C6            -1.2429     2.0325     0.0189 C.ar    
   7 C7            -3.8107     1.9271     0.0468 C.ar    
   8 C8            -4.6572     1.7854     1.1474 C.ar    
   9 C9            -5.8844     2.4156     1.1555 C.ar    
  10 C10           -6.2766     3.1867     0.0757 C.ar    
  11 C11           -5.4423     3.3308    -1.0187 C.ar    
  12 C12           -4.2102     2.7106    -1.0369 C.ar    
  13 C13            1.1673     2.0690     0.0020 C.ar    
  14 C14            1.1283     3.4539     0.0094 C.ar    
  15 C15           -0.0910     4.1269     0.0241 C.ar    
  16 C16           -1.2651     3.4290     0.0259 C.ar    
  17 C17           -0.1151     5.6336     0.0319 C.3     
  18 C18            0.1405     6.1404     1.4527 C.3     
  19 C19            0.1165     7.6472     1.4605 C.2     
  20 O20           -1.0513    -1.9449     0.0008 O.2     
  21 O21            2.2875     4.1604     0.0025 O.3     
  22 C22            0.3279     8.3373     2.6608 C.2     
  23 C23            0.3065     9.7026     2.6700 C.2     
  24 C24            0.0697    10.3960     1.4590 C.2     
  25 N25           -0.1294     9.6946     0.3244 N.am    
  26 N26           -0.0961     8.2958     0.3470 N.2     
  27 O27            0.0454    11.6163     1.4418 O.2     
  28 O28            0.5095    10.3862     3.8262 O.3     
  29 H29           -3.2885    -0.7322     0.0279 H       
  30 H30           -4.3523     1.1836     1.9907 H       
  31 H31           -6.5405     2.3065     2.0064 H       
  32 H32           -7.2384     3.6779     0.0869 H       
  33 H33           -5.7547     3.9335    -1.8587 H       
  34 H34           -3.5580     2.8275    -1.8898 H       
  35 H35            2.1165     1.5539    -0.0091 H       
  36 H36           -2.2080     3.9555     0.0411 H       
  37 H37            0.6601     6.0128    -0.6340 H       
  38 H38           -1.0897     5.9832    -0.3087 H       
  39 H39           -0.6346     5.7612     2.1187 H       
  40 H40            1.1151     5.7908     1.7934 H       
  41 H41            2.6154     4.3696    -0.8828 H       
  42 H42            0.5068     7.7917     3.5755 H       
  43 H43           -0.2928    10.1612    -0.5102 H       
  44 H44            0.4746    11.3474     3.7261 H       
@<TRIPOS>BOND
   1    1    2 1
   2    1   13 ar
   3    1    6 ar
   4    2    3 1
   5    3    4 1
   6    3   20 2
   7    4    5 2
   8    4   29 1
   9    5    6 1
  10    5    7 1
  11    6   16 ar
  12    7    8 ar
  13    7   12 ar
  14    8    9 ar
  15    8   30 1
  16    9   10 ar
  17    9   31 1
  18   10   11 ar
  19   10   32 1
  20   11   12 ar
  21   11   33 1
  22   12   34 1
  23   13   14 ar
  24   13   35 1
  25   14   15 ar
  26   14   21 1
  27   15   16 ar
  28   15   17 1
  29   16   36 1
  30   17   18 1
  31   17   37 1
  32   17   38 1
  33   18   19 1
  34   18   39 1
  35   18   40 1
  36   19   22 1
  37   19   26 2
  38   21   41 1
  39   22   23 2
  40   22   42 1
  41   23   24 1
  42   23   28 1
  43   24   25 am
  44   24   27 2
  45   25   26 1
  46   25   43 1
  47   28   44 1

#	End of record

