#	Name: ASD14640032
#	Creating user name:	WinNT
#	Creation time:	15. 06. 2019 21:31

#	Modifying user name:	WinNT
#	Modification time:	15. 06. 2019 21:31

#	Program:	/corina/corina34_cracker 3.40 0067  02.08.2006

@<TRIPOS>MOLECULE
ASD14640032
  55   58    0    0    0
SMALL
NO_CHARGES


@<TRIPOS>ATOM
   1 C1            -0.0166     1.3716     0.0096 C.ar    
   2 C2             0.0021    -0.0041     0.0020 C.ar    
   3 C3             1.2405     2.1964     0.0020 C.3     
   4 C4            -2.4038    -0.0439     0.0036 C.ar    
   5 C5             3.7154     2.1826     0.1225 C.3     
   6 C6            -2.5428     4.0310     0.0420 C.3     
   7 C7             4.9620     1.3342     0.3750 C.3     
   8 C8             4.8996     0.0914    -0.5186 C.3     
   9 C9             3.6827    -1.9671    -0.8826 C.3     
  10 C10            6.2133     2.1472     0.0369 C.3     
  11 C11            7.4415     1.3540     0.4020 C.ar    
  12 C12            7.9850     1.4667     1.6673 C.ar    
  13 C13            8.0202     0.5101    -0.5275 C.ar    
  14 C14            9.1153     0.7360     2.0029 C.ar    
  15 C15            9.1468    -0.2198    -0.1952 C.ar    
  16 C16            9.6973    -0.1064     1.0665 C.ar    
  17 C17           10.8159     0.0634     3.5221 C.3     
  18 C18           -1.2373     2.0442     0.0189 C.ar    
  19 C19            1.2825    -0.7928     0.0029 C.3     
  20 C20           -1.1948    -0.7093    -0.0036 C.ar    
  21 C21            2.4555     1.3598     0.4127 C.3     
  22 C22           -2.4278     1.3371     0.0143 C.ar    
  23 O23           -1.2593     3.4030     0.0330 O.3     
  24 C24            2.4669     0.0776    -0.4274 C.3     
  25 N25            3.7010    -0.6799    -0.1751 N.3     
  26 O26            9.6520     0.8454     3.2467 O.3     
  27 H27            1.4019     2.5922    -1.0007 H       
  28 H28            1.1269     3.0270     0.6987 H       
  29 H29           -3.3287    -0.6015    -0.0016 H       
  30 H30            3.7346     3.0567     0.7733 H       
  31 H31            3.7028     2.5065    -0.9182 H       
  32 H32           -3.0933     3.7200     0.9299 H       
  33 H33           -2.4175     5.1137     0.0530 H       
  34 H34           -3.0967     3.7384    -0.8500 H       
  35 H35            4.9920     1.0309     1.4215 H       
  36 H36            4.8510     0.3956    -1.5641 H       
  37 H37            5.7877    -0.5195    -0.3569 H       
  38 H38            3.5936    -1.7912    -1.9546 H       
  39 H39            4.6073    -2.5071    -0.6786 H       
  40 H40            2.8335    -2.5582    -0.5396 H       
  41 H41            6.2265     2.3665    -1.0307 H       
  42 H42            6.2030     3.0807     0.5995 H       
  43 H43            7.5303     2.1233     2.3943 H       
  44 H44            7.5915     0.4203    -1.5147 H       
  45 H45            9.5967    -0.8790    -0.9229 H       
  46 H46           10.5774    -0.6763     1.3254 H       
  47 H47           11.1408     0.2440     4.5467 H       
  48 H48           10.5816    -0.9936     3.3961 H       
  49 H49           11.6131     0.3435     2.8334 H       
  50 H50            1.4661    -1.1754     1.0069 H       
  51 H51            1.1862    -1.6317    -0.6864 H       
  52 H52           -1.1790    -1.7892    -0.0121 H       
  53 H53            2.3964     1.1110     1.4723 H       
  54 H54           -3.3711     1.8631     0.0217 H       
  55 H55            2.3818     0.3253    -1.4855 H       
@<TRIPOS>BOND
   1    1    2 ar
   2    1    3 1
   3    1   18 ar
   4    2   19 1
   5    2   20 ar
   6    3   21 1
   7    3   27 1
   8    3   28 1
   9    4   20 ar
  10    4   29 1
  11    4   22 ar
  12    5    7 1
  13    5   30 1
  14    5   31 1
  15    5   21 1
  16    6   23 1
  17    6   32 1
  18    6   33 1
  19    6   34 1
  20    7    8 1
  21    7   10 1
  22    7   35 1
  23    8   36 1
  24    8   37 1
  25    8   25 1
  26    9   38 1
  27    9   39 1
  28    9   40 1
  29    9   25 1
  30   10   41 1
  31   10   42 1
  32   10   11 1
  33   11   13 ar
  34   11   12 ar
  35   12   43 1
  36   12   14 ar
  37   13   44 1
  38   13   15 ar
  39   14   16 ar
  40   14   26 1
  41   15   45 1
  42   15   16 ar
  43   16   46 1
  44   17   26 1
  45   17   47 1
  46   17   48 1
  47   17   49 1
  48   18   22 ar
  49   18   23 1
  50   19   24 1
  51   19   50 1
  52   19   51 1
  53   20   52 1
  54   21   24 1
  55   21   53 1
  56   22   54 1
  57   24   25 1
  58   24   55 1

#	End of record

