#	Name: ASD10610026
#	Creating user name:	WinNT
#	Creation time:	15. 06. 2019 21:27

#	Modifying user name:	WinNT
#	Modification time:	15. 06. 2019 21:27

#	Program:	/corina/corina34_cracker 3.40 0067  02.08.2006

@<TRIPOS>MOLECULE
ASD10610026
  53   57    0    0    0
SMALL
NO_CHARGES


@<TRIPOS>ATOM
   1 C1            -0.0011     1.5113     0.0241 C.3     
   2 C2             0.1753    -0.0070    -0.0436 C.3     
   3 C3             1.4027     0.9029     0.0365 C.3     
   4 C4            -0.4425     2.2172    -1.2321 C.2     
   5 O5            -0.2313     1.7153    -2.3158 O.2     
   6 N6            -1.0720     3.4061    -1.1512 N.am    
   7 O7            -3.3256     4.9089    -3.4525 O.3     
   8 C8            -2.7669     3.6866    -2.9423 C.3     
   9 C9            -1.4033     4.1441    -2.3726 C.3     
  10 C10           -1.6660     5.6067    -2.0679 C.ar    
  11 C11           -2.8272     5.9607    -2.7458 C.ar    
  12 C12           -0.9861     6.5253    -1.2973 C.ar    
  13 C13           -1.4577     7.8185    -1.1819 C.ar    
  14 C14           -2.6245     8.1890    -1.8487 C.ar    
  15 C15           -3.3068     7.2603    -2.6284 C.ar    
  16 C16           -3.1392     9.5740    -1.7266 C.ar    
  17 C17           -3.2894    10.1617    -0.4608 C.ar    
  18 C18           -3.7737    11.4646    -0.3589 C.ar    
  19 C19           -4.1030    12.1704    -1.5017 C.ar    
  20 C20           -3.9543    11.5892    -2.7497 C.ar    
  21 C21           -3.4702    10.3000    -2.8669 C.ar    
  22 N22           -3.0249     9.8237     2.0070 N.2     
  23 N23           -2.6241     8.8712     2.7769 N.pl3   
  24 N24           -2.2835     7.8581     2.0596 N.2     
  25 N25           -2.4613     8.1469     0.8151 N.2     
  26 C26           -2.9352     9.4002     0.7613 C.2     
  27 C27           -2.5647     8.9321     4.2395 C.3     
  28 F28           -3.9218    12.0376     0.8556 F       
  29 Cl29          -4.3718    12.4874    -4.1755 Cl      
  30 N30           -0.5036     2.0787     1.2778 N.am    
  31 C31           -1.7519     1.7897     1.6957 C.2     
  32 O32           -2.4266     0.9898     1.0828 O.2     
  33 C33           -2.3093     2.4607     2.9246 C.3     
  34 F34           -3.6108     2.0028     3.1561 F       
  35 F35           -1.5047     2.1562     4.0278 F       
  36 F36           -2.3300     3.8461     2.7307 F       
  37 H37           -0.0825    -0.5837     0.8447 H       
  38 H38           -0.0279    -0.4953    -0.9967 H       
  39 H39            2.0070     1.0133    -0.8639 H       
  40 H40            1.9524     0.9249     0.9775 H       
  41 H41           -1.3056     3.7732    -0.2843 H       
  42 H42           -3.3961     3.2742    -2.1535 H       
  43 H43           -2.6266     2.9619    -3.7443 H       
  44 H44           -0.6142     4.0363    -3.1168 H       
  45 H45           -0.0828     6.2332    -0.7825 H       
  46 H46           -0.9256     8.5386    -0.5780 H       
  47 H47           -4.2105     7.5499    -3.1440 H       
  48 H48           -4.4785    13.1798    -1.4203 H       
  49 H49           -3.3524     9.8544    -3.8436 H       
  50 H50           -3.5108     8.5866     4.6562 H       
  51 H51           -1.7559     8.2949     4.5971 H       
  52 H52           -2.3832     9.9600     4.5532 H       
  53 H53            0.0622     2.6623     1.8072 H       
@<TRIPOS>BOND
   1    1    2 1
   2    1    3 1
   3    1    4 1
   4    1   30 1
   5    2    3 1
   6    2   37 1
   7    2   38 1
   8    3   39 1
   9    3   40 1
  10    4    5 2
  11    4    6 am
  12    6    9 1
  13    6   41 1
  14    7    8 1
  15    7   11 1
  16    8    9 1
  17    8   42 1
  18    8   43 1
  19    9   10 1
  20    9   44 1
  21   10   11 ar
  22   10   12 ar
  23   11   15 ar
  24   12   13 ar
  25   12   45 1
  26   13   14 ar
  27   13   46 1
  28   14   15 ar
  29   14   16 1
  30   15   47 1
  31   16   17 ar
  32   16   21 ar
  33   17   18 ar
  34   17   26 1
  35   18   19 ar
  36   18   28 1
  37   19   20 ar
  38   19   48 1
  39   20   21 ar
  40   20   29 1
  41   21   49 1
  42   22   23 1
  43   22   26 2
  44   23   24 1
  45   23   27 1
  46   24   25 2
  47   25   26 1
  48   27   50 1
  49   27   51 1
  50   27   52 1
  51   30   31 am
  52   30   53 1
  53   31   32 2
  54   31   33 1
  55   33   34 1
  56   33   35 1
  57   33   36 1

#	End of record

