#	Name: ASD10420104
#	Creating user name:	WinNT
#	Creation time:	15. 06. 2019 21:27

#	Modifying user name:	WinNT
#	Modification time:	15. 06. 2019 21:27

#	Program:	/corina/corina34_cracker 3.40 0067  02.08.2006

@<TRIPOS>MOLECULE
ASD10420104
  92   97    0    0    0
SMALL
NO_CHARGES


@<TRIPOS>ATOM
   1 N1            -0.0074     0.2799     0.3763 N.pl3   
   2 C2            -0.3090    -1.0454     0.2001 C.2     
   3 C3            -1.7056    -1.1620     0.0754 C.2     
   4 C4            -2.2368     0.1233     0.1806 C.2     
   5 C5            -1.1808     0.9990     0.3705 C.2     
   6 C6             1.2917     0.6803     0.5262 C.2     
   7 C7             2.3010    -0.2110     0.5048 C.2     
   8 C8             2.0293    -1.5891     0.3250 C.2     
   9 C9             0.7140    -2.0022     0.1718 C.2     
  10 C10           -1.2933     2.4493     0.5303 C.2     
  11 O11           -1.3962     3.1636    -0.4503 O.2     
  12 C12           -3.6962     0.4919     0.1059 C.3     
  13 C13           -4.3272     0.3226     1.4639 C.ar    
  14 C14           -4.5847     1.4306     2.2490 C.ar    
  15 C15           -4.6535    -0.9402     1.9214 C.ar    
  16 C16           -5.2326    -1.0971     3.1672 C.ar    
  17 C17           -5.4861     0.0086     3.9560 C.ar    
  18 C18           -2.4684    -2.4145    -0.1297 C.ar    
  19 C19           -2.4807    -3.3971     0.8605 C.ar    
  20 C20           -3.1933    -4.5620     0.6635 C.ar    
  21 C21           -3.8947    -4.7567    -0.5131 C.ar    
  22 C22           -3.8860    -3.7862    -1.4991 C.ar    
  23 C23           -3.1823    -2.6143    -1.3114 C.ar    
  24 C24           -4.2349     2.8079     1.7471 C.3     
  25 C25           -5.1644     1.2748     3.4964 C.ar    
  26 F26           -5.4115     2.3566     4.2670 F       
  27 C27            3.1307    -2.5725     0.3003 C.2     
  28 O28            3.6807    -2.8953     1.3355 O.2     
  29 N29            3.5263    -3.1121    -0.8696 N.am    
  30 C30            2.9495    -2.6508    -2.1398 C.3     
  31 C31            4.0888    -2.2491    -3.0817 C.3     
  32 C32            5.0651    -3.4192    -3.2229 C.3     
  33 C33            5.6644    -3.7537    -1.8551 C.3     
  34 C34            4.5470    -4.1685    -0.8997 C.3     
  35 N35           -1.2831     2.9943     1.7629 N.am    
  36 C36           -1.4963     4.4372     1.9521 C.3     
  37 C37           -0.3649     4.9857     2.8281 C.3     
  38 N38           -0.2856     4.2016     4.0678 N.3     
  39 C39            0.0558     2.8000     3.7909 C.3     
  40 C40           -1.0644     2.1609     2.9550 C.3     
  41 C41           -0.6465     6.4507     3.1676 C.3     
  42 C42            0.5233     7.0247     3.9246 C.2     
  43 N43            0.4982     8.3097     4.3306 N.am    
  44 O44            1.4874     6.3304     4.1685 O.2     
  45 C45            1.6355     8.8677     5.0664 C.3     
  46 C46            1.3539    10.3327     5.4060 C.3     
  47 O47            0.2469    10.4087     6.3065 O.3     
  48 C48           -0.1007    11.7409     6.6892 C.3     
  49 H49            1.5118     1.7287     0.6637 H       
  50 H50            3.3201     0.1261     0.6247 H       
  51 H51            0.4815    -3.0477     0.0330 H       
  52 H52           -3.7929     1.5297    -0.2129 H       
  53 H53           -4.1985    -0.1569    -0.6117 H       
  54 H54           -4.4564    -1.8050     1.3053 H       
  55 H55           -5.4871    -2.0843     3.5236 H       
  56 H56           -5.9391    -0.1141     4.9287 H       
  57 H57           -1.9333    -3.2465     1.7792 H       
  58 H58           -3.2034    -5.3237     1.4291 H       
  59 H59           -4.4510    -5.6702    -0.6627 H       
  60 H60           -4.4349    -3.9442    -2.4157 H       
  61 H61           -3.1765    -1.8573    -2.0817 H       
  62 H62           -5.0721     3.2102     1.1767 H       
  63 H63           -4.0252     3.4609     2.5942 H       
  64 H64           -3.3544     2.7486     1.1072 H       
  65 H65            2.3688    -3.4554    -2.5909 H       
  66 H66            2.3055    -1.7905    -1.9575 H       
  67 H67            3.6800    -1.9963    -4.0600 H       
  68 H68            4.6127    -1.3857    -2.6716 H       
  69 H69            4.5352    -4.2896    -3.6099 H       
  70 H70            5.8638    -3.1446    -3.9120 H       
  71 H71            6.3771    -4.5717    -1.9603 H       
  72 H72            6.1734    -2.8761    -1.4565 H       
  73 H73            4.9568    -4.3092     0.1005 H       
  74 H74            4.0993    -5.0994    -1.2476 H       
  75 H75           -1.4863     4.9388     0.9845 H       
  76 H76           -2.4543     4.6043     2.4444 H       
  77 H77            0.5802     4.9118     2.2899 H       
  78 H78            0.3709     4.6128     4.7143 H       
  79 H79            0.9950     2.7565     3.2394 H       
  80 H80            0.1603     2.2585     4.7312 H       
  81 H81           -1.9817     2.1134     3.5418 H       
  82 H82           -0.7687     1.1569     2.6506 H       
  83 H83           -0.7956     7.0149     2.2470 H       
  84 H84           -1.5441     6.5151     3.7826 H       
  85 H85           -0.2728     8.8650     4.1355 H       
  86 H86            1.7846     8.3035     5.9871 H       
  87 H87            2.5331     8.8033     4.4514 H       
  88 H88            2.2342    10.7728     5.8745 H       
  89 H89            1.1173    10.8784     4.4926 H       
  90 H90           -0.3674    12.3158     5.8024 H       
  91 H91           -0.9492    11.7129     7.3728 H       
  92 H92            0.7494    12.2102     7.1843 H       
@<TRIPOS>BOND
   1    1    2 1
   2    1    6 1
   3    1    5 1
   4    2    3 2
   5    2    9 1
   6    3    4 1
   7    3   18 1
   8    4    5 2
   9    4   12 1
  10    5   10 1
  11    6    7 2
  12    6   49 1
  13    7    8 1
  14    7   50 1
  15    8    9 2
  16    8   27 1
  17    9   51 1
  18   10   11 2
  19   10   35 am
  20   12   13 1
  21   12   52 1
  22   12   53 1
  23   13   14 ar
  24   13   15 ar
  25   14   24 1
  26   14   25 ar
  27   15   16 ar
  28   15   54 1
  29   16   17 ar
  30   16   55 1
  31   17   25 ar
  32   17   56 1
  33   18   19 ar
  34   18   23 ar
  35   19   20 ar
  36   19   57 1
  37   20   21 ar
  38   20   58 1
  39   21   22 ar
  40   21   59 1
  41   22   23 ar
  42   22   60 1
  43   23   61 1
  44   24   62 1
  45   24   63 1
  46   24   64 1
  47   25   26 1
  48   27   28 2
  49   27   29 am
  50   29   30 1
  51   29   34 1
  52   30   31 1
  53   30   65 1
  54   30   66 1
  55   31   32 1
  56   31   67 1
  57   31   68 1
  58   32   33 1
  59   32   69 1
  60   32   70 1
  61   33   34 1
  62   33   71 1
  63   33   72 1
  64   34   73 1
  65   34   74 1
  66   35   36 1
  67   35   40 1
  68   36   37 1
  69   36   75 1
  70   36   76 1
  71   37   38 1
  72   37   41 1
  73   37   77 1
  74   38   39 1
  75   38   78 1
  76   39   40 1
  77   39   79 1
  78   39   80 1
  79   40   81 1
  80   40   82 1
  81   41   42 1
  82   41   83 1
  83   41   84 1
  84   42   43 am
  85   42   44 2
  86   43   45 1
  87   43   85 1
  88   45   46 1
  89   45   86 1
  90   45   87 1
  91   46   47 1
  92   46   88 1
  93   46   89 1
  94   47   48 1
  95   48   90 1
  96   48   91 1
  97   48   92 1

#	End of record

