#	Name: ASD10160218
#	Creating user name:	WinNT
#	Creation time:	15. 06. 2019 21:25

#	Modifying user name:	WinNT
#	Modification time:	15. 06. 2019 21:25

#	Program:	/corina/corina34_cracker 3.40 0067  02.08.2006

@<TRIPOS>MOLECULE
ASD10160218
  38   40    0    0    0
SMALL
NO_CHARGES


@<TRIPOS>ATOM
   1 C1            -0.0179     1.4702     0.0101 C.2     
   2 C2             0.0021    -0.0041     0.0020 C.ar    
   3 C3             1.2225    -0.6896    -0.0133 C.ar    
   4 C4             1.2360    -2.0698    -0.0209 C.ar    
   5 C5             0.0415    -2.7777    -0.0133 C.ar    
   6 C6            -1.1747    -2.0994     0.0019 C.ar    
   7 C7            -1.1979    -0.7217     0.0154 C.ar    
   8 O8             1.0268     2.0925     0.0035 O.2     
   9 N9            -1.1941     2.1282     0.0193 N.am    
  10 S10           -1.2166     3.7840     0.0284 S.o2    
  11 O11           -2.5980     4.1155     0.0625 O.2     
  12 O12           -0.3511     4.1403     1.0975 O.2     
  13 C13           -0.4880     4.2553    -1.5646 C.3     
  14 O14            0.0593    -4.1348    -0.0213 O.3     
  15 N15            1.3045    -4.7734    -2.4268 N.ar    
  16 C16            1.8756    -5.0656    -3.5701 C.ar    
  17 C17            3.1131    -5.7028    -3.6292 C.ar    
  18 C18            3.7627    -6.0387    -2.4757 C.ar    
  19 C19            3.1467    -5.7229    -1.2498 C.ar    
  20 C20            3.7562    -6.0382    -0.0250 C.ar    
  21 C21            3.1351    -5.7197     1.1442 C.ar    
  22 C22            1.8959    -5.0816     1.1462 C.ar    
  23 C23            1.2673    -4.7570    -0.0366 C.ar    
  24 C24            1.8868    -5.0746    -1.2623 C.ar    
  25 F25            1.3034    -4.7783     2.3218 F       
  26 F26           -2.3338    -2.7934     0.0088 F       
  27 F27            2.3851    -0.0014    -0.0211 F       
  28 H28            2.1770    -2.5999    -0.0331 H       
  29 H29           -2.1417    -0.1969     0.0321 H       
  30 H30           -2.0275     1.6318     0.0205 H       
  31 H31           -1.0900     3.8446    -2.3752 H       
  32 H32           -0.4628     5.3420    -1.6453 H       
  33 H33            0.5266     3.8625    -1.6305 H       
  34 H34            1.3734    -4.8059    -4.4903 H       
  35 H35            3.5582    -5.9313    -4.5863 H       
  36 H36            4.7225    -6.5332    -2.5032 H       
  37 H37            4.7161    -6.5330    -0.0102 H       
  38 H38            3.6092    -5.9649     2.0831 H       
@<TRIPOS>BOND
   1    1    2 1
   2    1    8 2
   3    1    9 am
   4    2    3 ar
   5    2    7 ar
   6    3    4 ar
   7    3   27 1
   8    4    5 ar
   9    4   28 1
  10    5    6 ar
  11    5   14 1
  12    6    7 ar
  13    6   26 1
  14    7   29 1
  15    9   10 am
  16    9   30 1
  17   10   11 2
  18   10   12 2
  19   10   13 1
  20   13   31 1
  21   13   32 1
  22   13   33 1
  23   14   23 1
  24   15   16 ar
  25   15   24 ar
  26   16   17 ar
  27   16   34 1
  28   17   18 ar
  29   17   35 1
  30   18   19 ar
  31   18   36 1
  32   19   20 ar
  33   19   24 ar
  34   20   21 ar
  35   20   37 1
  36   21   22 ar
  37   21   38 1
  38   22   23 ar
  39   22   25 1
  40   23   24 ar

#	End of record

