#	Name: ASD10220020
#	Creating user name:	WinNT
#	Creation time:	15. 06. 2019 21:26

#	Modifying user name:	WinNT
#	Modification time:	15. 06. 2019 21:26

#	Program:	/corina/corina34_cracker 3.40 0067  02.08.2006

@<TRIPOS>MOLECULE
ASD10220020
  37   40    0    0    0
SMALL
NO_CHARGES


@<TRIPOS>ATOM
   1 C1             0.1126     1.4651     0.5816 C.2     
   2 C2             0.1001     0.0013     0.3614 C.ar    
   3 C3            -1.1022    -0.7277     0.5108 C.ar    
   4 C4            -2.3356     0.0046     0.8495 C.2     
   5 C5            -2.3813     1.4029     0.8183 C.2     
   6 C6            -1.2057     2.1987     0.4570 C.2     
   7 O7            -3.5381    -0.4323     1.2164 O.3     
   8 C8            -4.3846     0.5865     1.4297 C.2     
   9 C9            -3.7389     1.7720     1.2021 C.2     
  10 O10           -1.2813     3.3509     0.0803 O.2     
  11 O11            1.1379     2.0528     0.8561 O.2     
  12 C12           -4.2960     3.1295     1.3201 C.2     
  13 O13           -3.6321     4.0911     0.9810 O.2     
  14 C14           -5.6596     3.3241     1.8498 C.ar    
  15 C15           -6.4245     4.4173     1.4321 C.ar    
  16 C16           -7.6963     4.5949     1.9283 C.ar    
  17 C17           -8.2203     3.6890     2.8435 C.ar    
  18 C18           -7.4631     2.6005     3.2615 C.ar    
  19 C19           -6.1923     2.4126     2.7662 C.ar    
  20 O20           -9.4743     3.8679     3.3306 O.3     
  21 C21           -9.9506     2.8997     4.2675 C.3     
  22 C22            1.2683    -0.6698     0.0090 C.ar    
  23 C23            1.2453    -2.0405    -0.1782 C.ar    
  24 C24            0.0709    -2.7535    -0.0169 C.ar    
  25 C25           -1.1035    -2.1040     0.3270 C.ar    
  26 H26           -5.4161     0.4869     1.7339 H       
  27 H27           -6.0180     5.1217     0.7215 H       
  28 H28           -8.2877     5.4393     1.6065 H       
  29 H29           -7.8738     1.8991     3.9727 H       
  30 H30           -5.6049     1.5667     3.0912 H       
  31 H31           -9.2969     2.8858     5.1396 H       
  32 H32          -10.9629     3.1604     4.5764 H       
  33 H33           -9.9553     1.9145     3.8012 H       
  34 H34            2.1900    -0.1215    -0.1182 H       
  35 H35            2.1523    -2.5584    -0.4531 H       
  36 H36            0.0694    -3.8239    -0.1605 H       
  37 H37           -2.0171    -2.6663     0.4515 H       
@<TRIPOS>BOND
   1    1    2 1
   2    1   11 2
   3    1    6 1
   4    2    3 ar
   5    2   22 ar
   6    3    4 1
   7    3   25 ar
   8    4    5 2
   9    4    7 1
  10    5    6 1
  11    5    9 1
  12    6   10 2
  13    7    8 1
  14    8    9 2
  15    8   26 1
  16    9   12 1
  17   12   13 2
  18   12   14 1
  19   14   15 ar
  20   14   19 ar
  21   15   16 ar
  22   15   27 1
  23   16   17 ar
  24   16   28 1
  25   17   18 ar
  26   17   20 1
  27   18   19 ar
  28   18   29 1
  29   19   30 1
  30   20   21 1
  31   21   31 1
  32   21   32 1
  33   21   33 1
  34   22   23 ar
  35   22   34 1
  36   23   24 ar
  37   23   35 1
  38   24   25 ar
  39   24   36 1
  40   25   37 1

#	End of record

