#	Name: ASD13130002
#	Creating user name:	WinNT
#	Creation time:	15. 06. 2019 21:30

#	Modifying user name:	WinNT
#	Modification time:	15. 06. 2019 21:30

#	Program:	/corina/corina34_cracker 3.40 0067  02.08.2006

@<TRIPOS>MOLECULE
ASD13130002
  24   25    0    0    0
SMALL
NO_CHARGES


@<TRIPOS>ATOM
   1 Br1            0.0021    -0.0041     0.0020 Br      
   2 C2            -0.0236     1.8867     0.0124 C.ar    
   3 C3            -1.2305     2.5622     0.0333 C.ar    
   4 C4            -1.2488     3.9442     0.0414 C.ar    
   5 C5            -0.0611     4.6514     0.0286 C.ar    
   6 Se6           -0.0876     6.6112     0.0400 Du      
   7 Se7           -0.0609     7.0484     2.3590 Du      
   8 C8            -0.0875     9.0082     2.3705 C.ar    
   9 C9             1.1001     9.7155     2.3520 C.ar    
  10 C10            1.0819    11.0975     2.3600 C.ar    
  11 C11           -0.1250    11.7729     2.3867 C.ar    
  12 Br12          -0.1506    13.6637     2.3971 Br      
  13 C13           -1.3131    11.0647     2.4052 C.ar    
  14 C14           -1.2940     9.6828     2.3914 C.ar    
  15 C15            1.1454     3.9769     0.0081 C.ar    
  16 C16            1.1647     2.5948     0.0049 C.ar    
  17 H17           -2.1585     2.0097     0.0430 H       
  18 H18           -2.1911     4.4716     0.0574 H       
  19 H19            2.0424     9.1880     2.3315 H       
  20 H20            2.0098    11.6500     2.3459 H       
  21 H21           -2.2556    11.5917     2.4264 H       
  22 H22           -2.2216     9.1298     2.4015 H       
  23 H23            2.0731     4.5298    -0.0019 H       
  24 H24            2.1073     2.0678    -0.0073 H       
@<TRIPOS>BOND
   1    1    2 1
   2    2   16 ar
   3    2    3 ar
   4    3    4 ar
   5    3   17 1
   6    4    5 ar
   7    4   18 1
   8    5    6 1
   9    5   15 ar
  10    6    7 1
  11    7    8 1
  12    8   14 ar
  13    8    9 ar
  14    9   10 ar
  15    9   19 1
  16   10   11 ar
  17   10   20 1
  18   11   12 1
  19   11   13 ar
  20   13   14 ar
  21   13   21 1
  22   14   22 1
  23   15   16 ar
  24   15   23 1
  25   16   24 1

#	End of record

