#	Name: ASD15280008
#	Creating user name:	WinNT
#	Creation time:	15. 06. 2019 21:31

#	Modifying user name:	WinNT
#	Modification time:	15. 06. 2019 21:31

#	Program:	/corina/corina34_cracker 3.40 0067  02.08.2006

@<TRIPOS>MOLECULE
ASD15280008
  50   54    0    0    0
SMALL
NO_CHARGES


@<TRIPOS>ATOM
   1 O1            -0.0163     1.3543     0.0095 O.3     
   2 C2             0.0021    -0.0041     0.0020 C.ar    
   3 C3             0.0057    -0.6900    -1.2054 C.ar    
   4 C4             0.0244    -2.0683    -1.2171 C.ar    
   5 C5             0.0396    -2.7744    -0.0132 C.ar    
   6 C6             0.0359    -2.0814     1.1983 C.ar    
   7 C7             0.0230    -0.7030     1.2018 C.ar    
   8 C8             0.0592    -4.2528    -0.0214 C.2     
   9 N9             0.0699    -5.0190    -1.0794 N.2     
  10 N10            0.0862    -6.2634    -0.8671 N.2     
  11 C11            0.0909    -6.6681     0.3614 C.2     
  12 C12            0.1098    -8.1067     0.8097 C.3     
  13 N13            1.4970    -8.5548     0.9551 N.am    
  14 C14            1.7598    -9.8166     1.3493 C.2     
  15 O15            0.8458   -10.5827     1.5842 O.2     
  16 C16            3.1599   -10.2688     1.4960 C.ar    
  17 C17            4.2100    -9.3879     1.2321 C.ar    
  18 C18            5.5134    -9.8170     1.3780 C.ar    
  19 C19            5.7816   -11.1124     1.7771 C.ar    
  20 C20            4.7497   -12.0050     2.0347 C.ar    
  21 N21            4.9873   -13.3142     2.4112 N.am    
  22 C22            5.8134   -13.8252     3.2837 C.2     
  23 O23            5.7595   -15.0339     3.4013 O.2     
  24 C24            6.7953   -13.1587     4.1413 C.ar    
  25 C25            6.9202   -13.5448     5.4814 C.ar    
  26 C26            7.8457   -12.9284     6.2955 C.ar    
  27 C27            8.6582   -11.9260     5.7967 C.ar    
  28 C28            8.5420   -11.5349     4.4737 C.ar    
  29 C29            7.6179   -12.1419     3.6532 C.ar    
  30 S30            7.4567   -11.6343     1.9716 S.o2    
  31 O31            7.6110   -12.8038     1.1793 O.2     
  32 O32            8.2626   -10.4738     1.8199 O.2     
  33 C33            3.4323   -11.5720     1.9032 C.ar    
  34 S34            0.0801    -5.3030     1.3959 S.3     
  35 H35            0.8616     1.7596     0.0033 H       
  36 H36           -0.0065    -0.1429    -2.1365 H       
  37 H37            0.0268    -2.6011    -2.1565 H       
  38 H38            0.0477    -2.6244     2.1319 H       
  39 H39            0.0249    -0.1660     2.1388 H       
  40 H40           -0.4030    -8.1956     1.7674 H       
  41 H41           -0.3959    -8.7250     0.0680 H       
  42 H42            2.2263    -7.9434     0.7676 H       
  43 H43            4.0035    -8.3763     0.9151 H       
  44 H44            6.3282    -9.1367     1.1787 H       
  45 H45            4.4439   -13.9686     1.9450 H       
  46 H46            6.2898   -14.3269     5.8780 H       
  47 H47            7.9369   -13.2294     7.3287 H       
  48 H48            9.3829   -11.4483     6.4394 H       
  49 H49            9.1766   -10.7522     4.0850 H       
  50 H50            2.6192   -12.2511     2.1135 H       
@<TRIPOS>BOND
   1    1    2 1
   2    1   35 1
   3    2    7 ar
   4    2    3 ar
   5    3    4 ar
   6    3   36 1
   7    4    5 ar
   8    4   37 1
   9    5    6 ar
  10    5    8 1
  11    6    7 ar
  12    6   38 1
  13    7   39 1
  14    8   34 1
  15    8    9 2
  16    9   10 1
  17   10   11 2
  18   11   12 1
  19   11   34 1
  20   12   13 1
  21   12   40 1
  22   12   41 1
  23   13   14 am
  24   13   42 1
  25   14   15 2
  26   14   16 1
  27   16   33 ar
  28   16   17 ar
  29   17   18 ar
  30   17   43 1
  31   18   19 ar
  32   18   44 1
  33   19   30 1
  34   19   20 ar
  35   20   21 1
  36   20   33 ar
  37   21   22 am
  38   21   45 1
  39   22   23 2
  40   22   24 1
  41   24   29 ar
  42   24   25 ar
  43   25   26 ar
  44   25   46 1
  45   26   27 ar
  46   26   47 1
  47   27   28 ar
  48   27   48 1
  49   28   29 ar
  50   28   49 1
  51   29   30 1
  52   30   31 2
  53   30   32 2
  54   33   50 1

#	End of record

