#	Name: ASD11940001
#	Creating user name:	WinNT
#	Creation time:	15. 06. 2019 21:29

#	Modifying user name:	WinNT
#	Modification time:	15. 06. 2019 21:29

#	Program:	/corina/corina34_cracker 3.40 0067  02.08.2006

@<TRIPOS>MOLECULE
ASD11940001
   7    6    0    0    0
SMALL
NO_CHARGES


@<TRIPOS>ATOM
   1 C1            -0.0184     1.5028     0.0103 C.3     
   2 C2             0.0021    -0.0041     0.0020 C.2     
   3 O3             0.0204    -0.6193     1.0545 O.co2   
   4 O4             0.0003    -0.6079    -1.0571 O.co2   
   5 H5             1.0042     1.8801     0.0026 H       
   6 H6            -0.5455     1.8639    -0.8728 H       
   7 H7            -0.5286     1.8543     0.9071 H       
@<TRIPOS>BOND
   1    1    2 1
   2    1    5 1
   3    1    6 1
   4    1    7 1
   5    2    3 ar
   6    2    4 ar

#	End of record

