#	Name: ASD10420081
#	Creating user name:	WinNT
#	Creation time:	15. 06. 2019 21:27

#	Modifying user name:	WinNT
#	Modification time:	15. 06. 2019 21:27

#	Program:	/corina/corina34_cracker 3.40 0067  02.08.2006

@<TRIPOS>MOLECULE
ASD10420081
  48   51    0    0    0
SMALL
NO_CHARGES


@<TRIPOS>ATOM
   1 C1            -0.2803     1.6265     0.0580 C.2     
   2 C2            -0.1987     0.2228    -0.0775 C.2     
   3 C3             1.1181    -0.1124    -0.1199 C.2     
   4 N4             1.8809     1.0300    -0.0161 N.pl3   
   5 C5             3.2342     1.2131    -0.0094 C.2     
   6 C6             3.7632     2.4507     0.1054 C.2     
   7 C7             2.9267     3.5705     0.2194 C.2     
   8 C8             1.5731     3.3999     0.2135 C.2     
   9 C9             1.0442     2.1073     0.0939 C.2     
  10 C10           -1.5010     2.4256     0.1389 C.2     
  11 O11           -2.0060     2.6574     1.2216 O.2     
  12 O12           -2.0684     2.9067    -0.9871 O.3     
  13 C13            1.6476    -1.4852    -0.2555 C.ar    
  14 C14            2.5561    -1.7893    -1.2711 C.ar    
  15 C15            3.0464    -3.0729    -1.3920 C.ar    
  16 C16            2.6394    -4.0583    -0.5099 C.ar    
  17 C17            1.7393    -3.7637     0.4989 C.ar    
  18 C18            1.2459    -2.4827     0.6350 C.ar    
  19 C19           -1.3621    -0.7316    -0.1597 C.3     
  20 C20           -1.7131    -0.9725    -1.6053 C.ar    
  21 C21           -2.7296    -1.8500    -1.9324 C.ar    
  22 C22           -3.0520    -2.0708    -3.2605 C.ar    
  23 C23           -2.3556    -1.4120    -4.2598 C.ar    
  24 C24           -1.3397    -0.5351    -3.9303 C.ar    
  25 C25           -1.0221    -0.3114    -2.6034 C.ar    
  26 C26           -3.4862    -2.5666    -0.8439 C.3     
  27 F27           -4.0451    -2.9287    -3.5815 F       
  28 C28           -3.2603     3.6800    -0.8336 C.3     
  29 H29            3.8890     0.3586    -0.0966 H       
  30 H30            4.8357     2.5785     0.1097 H       
  31 H31            3.3505     4.5596     0.3115 H       
  32 H32            0.9157     4.2523     0.3005 H       
  33 H33            2.8740    -1.0213    -1.9608 H       
  34 H34            3.7492    -3.3096    -2.1772 H       
  35 H35            3.0258    -5.0618    -0.6094 H       
  36 H36            1.4256    -4.5376     1.1839 H       
  37 H37            0.5472    -2.2531     1.4258 H       
  38 H38           -1.0907    -1.6766     0.3107 H       
  39 H39           -2.2212    -0.3025     0.3561 H       
  40 H40           -2.6060    -1.5837    -5.2962 H       
  41 H41           -0.7964    -0.0212    -4.7095 H       
  42 H42           -0.2309     0.3775    -2.3467 H       
  43 H43           -4.3681    -1.9865    -0.5720 H       
  44 H44           -3.7938    -3.5493    -1.2015 H       
  45 H45           -2.8441    -2.6824     0.0293 H       
  46 H46           -4.0285     3.0725    -0.3551 H       
  47 H47           -3.0501     4.5529    -0.2156 H       
  48 H48           -3.6116     4.0044    -1.8132 H       
@<TRIPOS>BOND
   1    1    2 1
   2    1    9 2
   3    1   10 1
   4    2    3 2
   5    2   19 1
   6    3    4 1
   7    3   13 1
   8    4    5 1
   9    4    9 1
  10    5    6 2
  11    5   29 1
  12    6    7 1
  13    6   30 1
  14    7    8 2
  15    7   31 1
  16    8    9 1
  17    8   32 1
  18   10   11 2
  19   10   12 1
  20   12   28 1
  21   13   14 ar
  22   13   18 ar
  23   14   15 ar
  24   14   33 1
  25   15   16 ar
  26   15   34 1
  27   16   17 ar
  28   16   35 1
  29   17   18 ar
  30   17   36 1
  31   18   37 1
  32   19   20 1
  33   19   38 1
  34   19   39 1
  35   20   21 ar
  36   20   25 ar
  37   21   22 ar
  38   21   26 1
  39   22   23 ar
  40   22   27 1
  41   23   24 ar
  42   23   40 1
  43   24   25 ar
  44   24   41 1
  45   25   42 1
  46   26   43 1
  47   26   44 1
  48   26   45 1
  49   28   46 1
  50   28   47 1
  51   28   48 1

#	End of record

