#	Name: ASD17160006
#	Creating user name:	WinNT
#	Creation time:	15. 06. 2019 21:31

#	Modifying user name:	WinNT
#	Modification time:	15. 06. 2019 21:31

#	Program:	/corina/corina34_cracker 3.40 0067  02.08.2006

@<TRIPOS>MOLECULE
ASD17160006
  65   67    0    0    0
SMALL
NO_CHARGES


@<TRIPOS>ATOM
   1 C1            -0.0395     0.8420     0.1743 C.ar    
   2 C2             2.1242    -0.8785     0.3430 C.ar    
   3 C3             1.2398     1.3492     0.3064 C.ar    
   4 C4             4.4792    -1.1282     0.5615 C.3     
   5 C5            -1.8099     4.8715     4.1030 C.2     
   6 C6            -0.0650     4.0654     5.5275 C.ar    
   7 C7             1.8935     5.3774     6.0121 C.ar    
   8 C8            -5.1939     1.6922     2.7357 C.3     
   9 C9            -4.7765     3.1322     3.0410 C.3     
  10 C10           -5.4136     4.0755     2.0187 C.3     
  11 C11           -5.2455     3.5119     4.4470 C.3     
  12 C12           -3.2530     3.2490     2.9626 C.3     
  13 N13           -2.8039     2.8854     1.6164 N.am    
  14 C14           -1.7466     2.0649     1.4574 C.2     
  15 O15           -1.2237     1.5550     2.4256 O.2     
  16 C16           -1.2142     1.7809     0.0765 C.3     
  17 C17           -0.2430    -0.5246     0.1260 C.ar    
  18 C18            0.8366    -1.3891     0.2100 C.ar    
  19 C19            2.3212     0.4922     0.3907 C.ar    
  20 O20            3.1870    -1.7230     0.4263 O.3     
  21 O21            0.6382    -2.7337     0.1622 O.3     
  22 C22           -0.7103    -3.1860     0.0242 C.3     
  23 N23           -2.8533     4.6278     3.2550 N.pl3   
  24 N24           -1.3831     6.1084     4.2870 N.2     
  25 C25           -1.9105     7.1224     3.5592 C.1     
  26 N26           -2.3527     7.9725     2.9491 N.1     
  27 N27           -1.2072     3.8349     4.7615 N.pl3   
  28 C28            0.7530     5.1412     5.2518 C.ar    
  29 C29            2.2344     4.5577     7.0450 C.ar    
  30 C30            1.4230     3.4568     7.3671 C.ar    
  31 C31            0.2619     3.2043     6.5955 C.ar    
  32 C32           -0.5419     2.0963     6.9137 C.ar    
  33 C33           -0.1644     1.3051     7.9623 C.ar    
  34 C34            0.9892     1.6083     8.6809 C.ar    
  35 N35            1.7369     2.6428     8.3808 N.ar    
  36 H36            1.3947     2.4174     0.3433 H       
  37 H37            5.2356    -1.9111     0.6170 H       
  38 H38            4.6780    -0.4914    -0.3005 H       
  39 H39            4.5098    -0.5284     1.4711 H       
  40 H40            2.5201     6.2256     5.7790 H       
  41 H41           -4.8598     1.4217     1.7341 H       
  42 H42           -4.7400     1.0202     3.4640 H       
  43 H43           -6.2793     1.6090     2.7916 H       
  44 H44           -6.4990     3.9922     2.0745 H       
  45 H45           -5.1163     5.1013     2.2362 H       
  46 H46           -5.0795     3.8049     1.0171 H       
  47 H47           -4.7916     2.8399     5.1753 H       
  48 H48           -4.9481     4.5378     4.6645 H       
  49 H49           -6.3309     3.4287     4.5028 H       
  50 H50           -2.7991     2.5770     3.6910 H       
  51 H51           -3.2676     3.2352     0.8395 H       
  52 H52           -0.8960     2.7136    -0.3892 H       
  53 H53           -1.9970     1.3218    -0.5274 H       
  54 H54           -1.2434    -0.9183     0.0231 H       
  55 H55            3.3195     0.8910     0.4942 H       
  56 H56           -1.3003    -2.8328     0.8699 H       
  57 H57           -1.1318    -2.7947    -0.9016 H       
  58 H58           -0.7272    -4.2756    -0.0008 H       
  59 H59           -3.3293     5.3677     2.8465 H       
  60 H60           -1.5743     2.9394     4.6955 H       
  61 H61            0.5058     5.8063     4.4376 H       
  62 H62            3.1248     4.7589     7.6222 H       
  63 H63           -1.4337     1.8763     6.3455 H       
  64 H64           -0.7601     0.4460     8.2333 H       
  65 H65            1.2760     0.9743     9.5069 H       
@<TRIPOS>BOND
   1    1   17 ar
   2    1    3 ar
   3    1   16 1
   4    2   20 1
   5    2   18 ar
   6    2   19 ar
   7    3   19 ar
   8    3   36 1
   9    4   37 1
  10    4   38 1
  11    4   39 1
  12    4   20 1
  13    5   23 1
  14    5   24 2
  15    5   27 1
  16    6   28 ar
  17    6   27 1
  18    6   31 ar
  19    7   28 ar
  20    7   40 1
  21    7   29 ar
  22    8   41 1
  23    8   42 1
  24    8   43 1
  25    8    9 1
  26    9   10 1
  27    9   11 1
  28    9   12 1
  29   10   44 1
  30   10   45 1
  31   10   46 1
  32   11   47 1
  33   11   48 1
  34   11   49 1
  35   12   13 1
  36   12   50 1
  37   12   23 1
  38   13   14 am
  39   13   51 1
  40   14   16 1
  41   14   15 2
  42   16   52 1
  43   16   53 1
  44   17   18 ar
  45   17   54 1
  46   18   21 1
  47   19   55 1
  48   21   22 1
  49   22   56 1
  50   22   57 1
  51   22   58 1
  52   23   59 1
  53   24   25 1
  54   25   26 3
  55   27   60 1
  56   28   61 1
  57   29   62 1
  58   29   30 ar
  59   30   31 ar
  60   30   35 ar
  61   31   32 ar
  62   32   63 1
  63   32   33 ar
  64   33   64 1
  65   33   34 ar
  66   34   35 ar
  67   34   65 1

#	End of record

