#	Name: ASD15110001
#	Creating user name:	WinNT
#	Creation time:	15. 06. 2019 21:31

#	Modifying user name:	WinNT
#	Modification time:	15. 06. 2019 21:31

#	Program:	/corina/corina34_cracker 3.40 0067  02.08.2006

@<TRIPOS>MOLECULE
ASD15110001
  48   51    0    0    0
SMALL
NO_CHARGES


@<TRIPOS>ATOM
   1 C1             0.6912     1.3755    -1.7628 C.ar    
   2 C2             0.7006    -0.0030    -1.7465 C.ar    
   3 C3             1.5703    -0.6810    -0.8990 C.ar    
   4 C4             2.4337     0.0511    -0.0652 C.ar    
   5 C5             2.4132     1.4477    -0.0918 C.ar    
   6 C6             1.5418     2.0995    -0.9413 C.ar    
   7 O7             1.8394   -10.3100    -5.3814 O.3     
   8 C8             3.3479    -0.6838     0.8258 C.2     
   9 C9             3.3103    -2.0933     0.7968 C.2     
  10 C10            2.4459    -2.7352    -0.0386 C.2     
  11 C11            2.4267    -4.2130    -0.0487 C.ar    
  12 C12            1.2159    -4.8992     0.0616 C.ar    
  13 C13            1.2050    -6.2786     0.0510 C.ar    
  14 C14            2.3906    -6.9820    -0.0682 C.ar    
  15 C15            3.5941    -6.3081    -0.1780 C.ar    
  16 C16            3.6186    -4.9288    -0.1745 C.ar    
  17 O17            4.1154    -0.0906     1.5668 O.2     
  18 N18            1.5969    -2.0588    -0.8653 N.pl3   
  19 C19            2.3710    -8.4888    -0.0781 C.3     
  20 C20            2.2288    -8.9801    -1.4956 C.ar    
  21 C21            0.9711    -9.1849    -2.0322 C.ar    
  22 C22            0.8380    -9.6302    -3.3331 C.ar    
  23 C23            1.9677    -9.8715    -4.1015 C.ar    
  24 C24            3.2285    -9.6648    -3.5609 C.ar    
  25 C25            3.3562    -9.2198    -2.2593 C.ar    
  26 C26            4.2270    -2.8898     1.6891 C.3     
  27 F27            3.2410     2.1556     0.7075 F       
  28 C28            3.0455   -10.5374    -6.1132 C.3     
  29 F29            3.8123   -11.5073    -5.4586 F       
  30 F30            2.7321   -10.9823    -7.4020 F       
  31 F31            3.7729    -9.3452    -6.1954 F       
  32 H32            0.0170     1.8971    -2.4260 H       
  33 H33            0.0330    -0.5558    -2.3908 H       
  34 H34            1.5221     3.1790    -0.9657 H       
  35 H35            0.2899    -4.3513     0.1554 H       
  36 H36            0.2691    -6.8107     0.1363 H       
  37 H37            4.5154    -6.8631    -0.2752 H       
  38 H38            4.5586    -4.4040    -0.2602 H       
  39 H39            0.9989    -2.5588    -1.4426 H       
  40 H40            3.3012    -8.8670     0.3460 H       
  41 H41            1.5295    -8.8452     0.5161 H       
  42 H42            0.0920    -8.9969    -1.4337 H       
  43 H43           -0.1446    -9.7907    -3.7516 H       
  44 H44            4.1094    -9.8522    -4.1569 H       
  45 H45            4.3375    -9.0548    -1.8394 H       
  46 H46            5.1255    -3.1630     1.1358 H       
  47 H47            4.5026    -2.2891     2.5558 H       
  48 H48            3.7159    -3.7935     2.0210 H       
@<TRIPOS>BOND
   1    1    2 ar
   2    1    6 ar
   3    1   32 1
   4    2    3 ar
   5    2   33 1
   6    3    4 ar
   7    3   18 1
   8    4    5 ar
   9    4    8 1
  10    5    6 ar
  11    5   27 1
  12    6   34 1
  13    7   23 1
  14    7   28 1
  15    8    9 1
  16    8   17 2
  17    9   10 2
  18    9   26 1
  19   10   18 1
  20   10   11 1
  21   11   12 ar
  22   11   16 ar
  23   12   13 ar
  24   12   35 1
  25   13   14 ar
  26   13   36 1
  27   14   15 ar
  28   14   19 1
  29   15   16 ar
  30   15   37 1
  31   16   38 1
  32   18   39 1
  33   19   20 1
  34   19   40 1
  35   19   41 1
  36   20   25 ar
  37   20   21 ar
  38   21   22 ar
  39   21   42 1
  40   22   23 ar
  41   22   43 1
  42   23   24 ar
  43   24   25 ar
  44   24   44 1
  45   25   45 1
  46   26   46 1
  47   26   47 1
  48   26   48 1
  49   28   29 1
  50   28   30 1
  51   28   31 1

#	End of record

