#	Name: ASD10160179
#	Creating user name:	WinNT
#	Creation time:	15. 06. 2019 21:25

#	Modifying user name:	WinNT
#	Modification time:	15. 06. 2019 21:25

#	Program:	/corina/corina34_cracker 3.40 0067  02.08.2006

@<TRIPOS>MOLECULE
ASD10160179
  38   40    0    0    0
SMALL
NO_CHARGES


@<TRIPOS>ATOM
   1 C1            -0.0327     1.4702     0.0132 C.2     
   2 C2            -0.0088    -0.0042     0.0043 C.ar    
   3 C3             1.2061    -0.6859    -0.1327 C.ar    
   4 C4             1.2232    -2.0663    -0.1405 C.ar    
   5 C5             0.0380    -2.7777    -0.0132 C.ar    
   6 C6            -1.1725    -2.1035     0.1234 C.ar    
   7 C7            -1.1988    -0.7257     0.1385 C.ar    
   8 O8             1.0040     2.0958    -0.0986 O.2     
   9 N9            -1.2042     2.1244     0.1397 N.am    
  10 S10           -1.2311     3.7801     0.1497 S.o2    
  11 O11           -2.6032     4.1073     0.3218 O.2     
  12 O12           -0.2639     4.1404     1.1265 O.2     
  13 C13           -0.6674     4.2520    -1.5086 C.3     
  14 F14           -2.3227    -2.8013     0.2469 F       
  15 F15            2.3598     0.0059    -0.2575 F       
  16 O16            0.0593    -4.1353    -0.0222 O.3     
  17 C17           -0.1513    -4.7668    -1.2021 C.ar    
  18 N18           -0.0405    -6.0842    -1.2578 N.ar    
  19 C19           -0.2394    -6.7325    -2.3938 C.ar    
  20 C20           -0.5673    -6.0144    -3.5330 C.ar    
  21 C21           -0.6749    -4.6358    -3.4382 C.ar    
  22 N22           -0.4680    -4.0516    -2.2695 N.ar    
  23 C23           -0.8011    -6.7168    -4.8456 C.3     
  24 C24           -2.1758    -6.5564    -5.4977 C.3     
  25 C25           -0.9587    -5.8468    -6.0942 C.3     
  26 H26            2.1599    -2.5934    -0.2461 H       
  27 H27           -2.1379    -0.2039     0.2493 H       
  28 H28           -2.0317     1.6254     0.2249 H       
  29 H29           -1.3462     3.8385    -2.2545 H       
  30 H30           -0.6540     5.3387    -1.5923 H       
  31 H31            0.3368     3.8623    -1.6756 H       
  32 H32           -0.1472    -7.8078    -2.4330 H       
  33 H33           -0.9288    -4.0463    -4.3068 H       
  34 H34           -0.2983    -7.6770    -4.9610 H       
  35 H35           -2.5773    -7.4109    -6.0425 H       
  36 H36           -2.9112    -5.9428    -4.9773 H       
  37 H37           -0.8932    -4.7663    -5.9663 H       
  38 H38           -0.5594    -6.2344    -7.0315 H       
@<TRIPOS>BOND
   1    1    2 1
   2    1    8 2
   3    1    9 am
   4    2    3 ar
   5    2    7 ar
   6    3    4 ar
   7    3   15 1
   8    4    5 ar
   9    4   26 1
  10    5    6 ar
  11    5   16 1
  12    6    7 ar
  13    6   14 1
  14    7   27 1
  15    9   10 am
  16    9   28 1
  17   10   11 2
  18   10   12 2
  19   10   13 1
  20   13   29 1
  21   13   30 1
  22   13   31 1
  23   16   17 1
  24   17   18 ar
  25   17   22 ar
  26   18   19 ar
  27   19   20 ar
  28   19   32 1
  29   20   21 ar
  30   20   23 1
  31   21   22 ar
  32   21   33 1
  33   23   24 1
  34   23   25 1
  35   23   34 1
  36   24   25 1
  37   24   35 1
  38   24   36 1
  39   25   37 1
  40   25   38 1

#	End of record

