#	Name: ASD10410226
#	Creating user name:	WinNT
#	Creation time:	15. 06. 2019 21:27

#	Modifying user name:	WinNT
#	Modification time:	15. 06. 2019 21:27

#	Program:	/corina/corina34_cracker 3.40 0067  02.08.2006

@<TRIPOS>MOLECULE
ASD10410226
  53   57    0    0    0
SMALL
NO_CHARGES


@<TRIPOS>ATOM
   1 C1            -0.0184     1.3915    -0.0792 C.ar    
   2 C2            -0.0058     0.0095     0.0246 C.ar    
   3 C3             1.2029    -0.6700     0.1136 C.ar    
   4 C4             2.3932     0.0328     0.0986 C.ar    
   5 C5             2.3796     1.4179    -0.0054 C.ar    
   6 C6             1.1708     2.0950    -0.0943 C.ar    
   7 O7            -1.1773    -0.6820     0.0397 O.3     
   8 F8             1.2148    -2.0171     0.2152 F       
   9 N9             3.5841     2.1307    -0.0202 N.pl3   
  10 C10            3.6696     3.3412    -0.7072 C.2     
  11 N11            4.7074     4.1428    -0.7083 N.2     
  12 N12            2.7077     3.8668    -1.4749 N.2     
  13 C13            3.1151     5.0143    -1.9734 C.2     
  14 N14            4.3777     5.2402    -1.5201 N.pl3   
  15 C15            5.1805     6.3369    -1.8039 C.2     
  16 N16            2.3909     5.8409    -2.8103 N.pl3   
  17 N17            6.3735     6.5111    -1.3520 N.2     
  18 C18           -2.3820     0.0807    -0.0550 C.3     
  19 C19           -3.5865    -0.8623    -0.0220 C.3     
  20 N20           -3.6505    -1.5293     1.2852 N.3     
  21 C21           -4.9211    -2.2604     1.4437 C.3     
  22 C22           -4.5674    -3.7326     1.7419 C.3     
  23 C23           -3.1218    -3.6391     2.2974 C.3     
  24 C24           -2.5341    -2.4849     1.4477 C.3     
  25 S25            4.7149     7.6809    -2.8372 S.3     
  26 C26            6.2766     8.4496    -2.5635 C.ar    
  27 C27            7.0297     7.6294    -1.7171 C.ar    
  28 C28            6.8054     9.6474    -3.0380 C.ar    
  29 C29            8.0750    10.0367    -2.6731 C.ar    
  30 C30            8.8308     9.2349    -1.8305 C.ar    
  31 C31            8.3282     8.0491    -1.3579 C.ar    
  32 H32           -0.9581     1.9186    -0.1529 H       
  33 H33            3.3330    -0.4947     0.1681 H       
  34 H34            1.1600     3.1719    -0.1755 H       
  35 H35            4.3594     1.7826     0.4474 H       
  36 H36            1.4935     5.5911    -3.0811 H       
  37 H37            2.7797     6.6711    -3.1273 H       
  38 H38           -2.4402     0.7738     0.7843 H       
  39 H39           -2.3848     0.6411    -0.9899 H       
  40 H40           -4.5002    -0.2903    -0.1832 H       
  41 H41           -3.4833    -1.6111    -0.8074 H       
  42 H42           -5.4896    -1.8403     2.2734 H       
  43 H43           -5.5022    -2.1977     0.5237 H       
  44 H44           -5.2421    -4.1470     2.4910 H       
  45 H45           -4.5916    -4.3274     0.8288 H       
  46 H46           -3.1265    -3.3812     3.3564 H       
  47 H47           -2.5767    -4.5673     2.1255 H       
  48 H48           -2.2084    -2.8567     0.4762 H       
  49 H49           -1.7035    -2.0125     1.9721 H       
  50 H50            6.2183    10.2726    -3.6944 H       
  51 H51            8.4822    10.9660    -3.0432 H       
  52 H52            9.8259     9.5449    -1.5474 H       
  53 H53            8.9283     7.4352    -0.7026 H       
@<TRIPOS>BOND
   1    1    2 ar
   2    1    6 ar
   3    1   32 1
   4    2    3 ar
   5    2    7 1
   6    3    4 ar
   7    3    8 1
   8    4    5 ar
   9    4   33 1
  10    5    6 ar
  11    5    9 1
  12    6   34 1
  13    7   18 1
  14    9   10 1
  15    9   35 1
  16   10   11 2
  17   10   12 1
  18   11   14 1
  19   12   13 2
  20   13   14 1
  21   13   16 1
  22   14   15 1
  23   15   17 2
  24   15   25 1
  25   16   36 1
  26   16   37 1
  27   17   27 1
  28   18   19 1
  29   18   38 1
  30   18   39 1
  31   19   20 1
  32   19   40 1
  33   19   41 1
  34   20   21 1
  35   20   24 1
  36   21   22 1
  37   21   42 1
  38   21   43 1
  39   22   23 1
  40   22   44 1
  41   22   45 1
  42   23   24 1
  43   23   46 1
  44   23   47 1
  45   24   48 1
  46   24   49 1
  47   25   26 1
  48   26   27 ar
  49   26   28 ar
  50   27   31 ar
  51   28   29 ar
  52   28   50 1
  53   29   30 ar
  54   29   51 1
  55   30   31 ar
  56   30   52 1
  57   31   53 1

#	End of record

