#	Name: ASD10610010
#	Creating user name:	WinNT
#	Creation time:	15. 06. 2019 21:27

#	Modifying user name:	WinNT
#	Modification time:	15. 06. 2019 21:27

#	Program:	/corina/corina34_cracker 3.40 0067  02.08.2006

@<TRIPOS>MOLECULE
ASD10610010
  24   24    0    0    0
SMALL
NO_CHARGES


@<TRIPOS>ATOM
   1 C1            -0.0184     1.5028     0.0103 C.2     
   2 C2             0.0021    -0.0041     0.0020 C.3     
   3 O3             1.0236     2.1234     0.0037 O.2     
   4 N4            -1.1946     2.1607     0.0195 N.am    
   5 C5            -1.2145     3.6256     0.0275 C.3     
   6 C6            -1.0888     4.1294     1.4667 C.3     
   7 C7            -2.5117     4.1136    -0.5642 C.ar    
   8 C8            -2.4981     5.1496    -1.4829 C.ar    
   9 C9            -3.6991     5.5909    -2.0213 C.ar    
  10 C10           -4.8716     4.9715    -1.6140 C.ar    
  11 C11           -4.8055     3.9429    -0.6921 C.ar    
  12 N12           -3.6461     3.5458    -0.2053 N.ar    
  13 F13           -1.3315     5.7236    -1.8500 F       
  14 Br14          -6.5396     5.5273    -2.3102 Br      
  15 H15            0.0168    -0.3729     1.0276 H       
  16 H16           -0.8878    -0.3767    -0.5053 H       
  17 H17            0.8920    -0.3525    -0.5222 H       
  18 H18           -2.0280     1.6644     0.0207 H       
  19 H19           -0.3805     4.0035    -0.5638 H       
  20 H20           -1.1036     5.2193     1.4727 H       
  21 H21           -1.9228     3.7515     2.0581 H       
  22 H22           -0.1506     3.7764     1.8947 H       
  23 H23           -3.7202     6.3971    -2.7396 H       
  24 H24           -5.7142     3.4561    -0.3699 H       
@<TRIPOS>BOND
   1    1    2 1
   2    1    3 2
   3    1    4 am
   4    2   15 1
   5    2   16 1
   6    2   17 1
   7    4    5 1
   8    4   18 1
   9    5    6 1
  10    5    7 1
  11    5   19 1
  12    6   20 1
  13    6   21 1
  14    6   22 1
  15    7    8 ar
  16    7   12 ar
  17    8    9 ar
  18    8   13 1
  19    9   10 ar
  20    9   23 1
  21   10   11 ar
  22   10   14 1
  23   11   12 ar
  24   11   24 1

#	End of record

