#	Name: ASD15200002
#	Creating user name:	WinNT
#	Creation time:	15. 06. 2019 21:31

#	Modifying user name:	WinNT
#	Modification time:	15. 06. 2019 21:31

#	Program:	/corina/corina34_cracker 3.40 0067  02.08.2006

@<TRIPOS>MOLECULE
ASD15200002
  58   62    0    0    0
SMALL
NO_CHARGES


@<TRIPOS>ATOM
   1 C1            -3.4850     2.5066     0.1656 C.3     
   2 C2            -1.5477     3.9043     0.7004 C.2     
   3 C3            -2.2823     4.4291     1.8712 C.ar    
   4 C4            -2.9039    -2.0043    -5.4594 C.ar    
   5 C5            -1.6450     4.5359     3.1084 C.ar    
   6 C6            -3.6145     4.8254     1.7429 C.ar    
   7 C7            -1.6933    -1.8930    -6.1511 C.ar    
   8 C8            -4.2941     5.3148     2.8392 C.ar    
   9 C9            -3.6580     5.4130     4.0640 C.ar    
  10 C10           -1.4128     1.0547    -1.3680 C.3     
  11 C11           -1.4732     2.5944    -1.3662 C.3     
  12 C12           -3.4233     0.9741     0.1659 C.3     
  13 C13           -3.3535    -0.3400    -1.8982 C.2     
  14 C14           -2.6852    -0.7360    -3.1716 C.2     
  15 C15           -3.4103    -1.5319    -4.1612 C.2     
  16 C16           -4.7116    -1.9931    -4.0661 C.2     
  17 C17           -3.9580    -2.7216    -6.0473 C.ar    
  18 C18           -2.3360     5.0268     4.1968 C.ar    
  19 C19           -1.5801    -2.4954    -7.3913 C.ar    
  20 C20            0.5502    -1.1425    -6.3898 C.3     
  21 C21           -3.7530    -3.2967    -7.3030 C.ar    
  22 C22           -4.9521    -4.2275    -9.2347 C.2     
  23 C23           -6.5775    -5.2186    -8.2111 C.2     
  24 C24           -7.8318    -6.0236    -7.9882 C.3     
  25 N25           -2.7519     0.5309    -1.0639 N.am    
  26 N26           -2.1468     3.0338    -0.1361 N.am    
  27 N27           -5.0244    -2.6884    -5.1739 N.pl3   
  28 N28           -2.5915    -3.1640    -7.9188 N.ar    
  29 N29           -4.7850    -4.0174    -7.9140 N.pl3   
  30 N30           -6.0332    -4.9465    -9.3968 N.2     
  31 N31           -5.8530    -4.6665    -7.2732 N.2     
  32 O32           -4.4392    -0.8020    -1.6134 O.2     
  33 O33           -0.4036     4.2579     0.4923 O.2     
  34 O34           -1.5378    -0.3972    -3.3867 O.2     
  35 O35           -0.6493    -1.2066    -5.6158 O.3     
  36 H36           -4.1908     2.8442    -0.5933 H       
  37 H37           -3.8049     2.8601     1.1458 H       
  38 H38           -0.6132     4.2344     3.2135 H       
  39 H39           -4.1120     4.7496     0.7873 H       
  40 H40           -5.3248     5.6221     2.7412 H       
  41 H41           -4.1945     5.7968     4.9191 H       
  42 H42           -1.0958     0.7011    -2.3491 H       
  43 H43           -0.7064     0.7146    -0.6108 H       
  44 H44           -0.4621     3.0002    -1.3982 H       
  45 H45           -2.0361     2.9394    -2.2336 H       
  46 H46           -2.8606     0.6308     1.0340 H       
  47 H47           -4.4340     0.5674     0.2009 H       
  48 H48           -5.3739    -1.8213    -3.2305 H       
  49 H49           -1.8441     5.1096     5.1547 H       
  50 H50           -0.6515    -2.4180    -7.9372 H       
  51 H51            0.9229    -2.1515    -6.5665 H       
  52 H52            0.3412    -0.6600    -7.3446 H       
  53 H53            1.3014    -0.5673    -5.8487 H       
  54 H54           -4.3089    -3.8624   -10.0218 H       
  55 H55           -7.5725    -7.0760    -7.8731 H       
  56 H56           -8.3335    -5.6723    -7.0865 H       
  57 H57           -8.4967    -5.9047    -8.8437 H       
  58 H58           -5.8830    -3.1096    -5.3361 H       
@<TRIPOS>BOND
   1    1   36 1
   2    1   37 1
   3    1   12 1
   4    1   26 1
   5    2   26 am
   6    2    3 1
   7    2   33 2
   8    3    5 ar
   9    3    6 ar
  10    4   17 ar
  11    4    7 ar
  12    4   15 1
  13    5   18 ar
  14    5   38 1
  15    6    8 ar
  16    6   39 1
  17    7   19 ar
  18    7   35 1
  19    8    9 ar
  20    8   40 1
  21    9   18 ar
  22    9   41 1
  23   10   25 1
  24   10   42 1
  25   10   43 1
  26   10   11 1
  27   11   26 1
  28   11   44 1
  29   11   45 1
  30   12   46 1
  31   12   47 1
  32   12   25 1
  33   13   25 am
  34   13   32 2
  35   13   14 1
  36   14   15 1
  37   14   34 2
  38   15   16 2
  39   16   27 1
  40   16   48 1
  41   17   21 ar
  42   17   27 1
  43   18   49 1
  44   19   28 ar
  45   19   50 1
  46   20   51 1
  47   20   52 1
  48   20   53 1
  49   20   35 1
  50   21   29 1
  51   21   28 ar
  52   22   30 2
  53   22   54 1
  54   22   29 1
  55   23   30 1
  56   23   24 1
  57   23   31 2
  58   24   55 1
  59   24   56 1
  60   24   57 1
  61   27   58 1
  62   29   31 1

#	End of record

