#	Name: ASD10370004
#	Creating user name:	WinNT
#	Creation time:	15. 06. 2019 21:26

#	Modifying user name:	WinNT
#	Modification time:	15. 06. 2019 21:26

#	Program:	/corina/corina34_cracker 3.40 0067  02.08.2006

@<TRIPOS>MOLECULE
ASD10370004
  44   45    0    0    0
SMALL
NO_CHARGES


@<TRIPOS>ATOM
   1 C1             0.0054     1.4530    -0.1373 C.2     
   2 C2             0.0167     0.0199    -0.4811 C.2     
   3 C3            -1.1473    -0.5949    -0.7478 C.2     
   4 N4            -2.3433     0.0707    -0.7150 N.pl3   
   5 C5            -2.4655     1.3208    -0.1325 C.ar    
   6 C6            -1.3094     2.0558     0.1805 C.ar    
   7 C7            -3.7130     1.8597     0.1534 C.ar    
   8 C8            -3.8051     3.1106     0.7321 C.ar    
   9 C9            -2.6619     3.8372     1.0313 C.ar    
  10 C10           -1.4141     3.3146     0.7615 C.ar    
  11 N11            1.1128     2.1626    -0.1087 N.2     
  12 N12            1.0512     3.5603    -0.1819 N.pl3   
  13 C13            2.1675     4.2906    -0.0275 C.2     
  14 C14            2.1257     5.6675    -0.2006 C.2     
  15 C15            3.3657     6.4462    -0.1783 C.2     
  16 C16            0.8417     6.3411    -0.4053 C.2     
  17 O17            0.8098     7.6570    -0.6998 O.3     
  18 O18           -0.1962     5.7139    -0.3099 O.2     
  19 C19           -0.4980     8.2586    -0.8895 C.3     
  20 C20           -0.3336     9.7449    -1.2135 C.3     
  21 O21            3.3251     7.7839    -0.3465 O.3     
  22 O22            4.4323     5.8866    -0.0082 O.2     
  23 C23            4.5927     8.4913    -0.3128 C.3     
  24 C24            4.3476     9.9872    -0.5198 C.3     
  25 Cl25          -5.3668     3.7802     1.0878 Cl      
  26 H26            0.9469    -0.5276    -0.5183 H       
  27 H27           -1.1396    -1.6460    -0.9960 H       
  28 H28           -3.1257    -0.3443    -1.1107 H       
  29 H29           -4.6091     1.3023    -0.0764 H       
  30 H30           -2.7487     4.8147     1.4822 H       
  31 H31           -0.5250     3.8814     0.9955 H       
  32 H32            1.9719     1.7180    -0.0370 H       
  33 H33            0.2022     4.0005    -0.3441 H       
  34 H34            3.0978     3.8068     0.2313 H       
  35 H35           -1.0104     7.7617    -1.7133 H       
  36 H36           -1.0845     8.1483     0.0226 H       
  37 H37           -1.3153    10.1965    -1.3559 H       
  38 H38            0.1789    10.2418    -0.3897 H       
  39 H39            0.2529     9.8552    -2.1256 H       
  40 H40            5.0722     8.3319     0.6530 H       
  41 H41            5.2394     8.1159    -1.1059 H       
  42 H42            3.8681    10.1466    -1.4856 H       
  43 H43            3.7009    10.3626     0.2732 H       
  44 H44            5.2992    10.5182    -0.4946 H       
@<TRIPOS>BOND
   1    1    2 1
   2    1   11 2
   3    1    6 1
   4    2    3 2
   5    2   26 1
   6    3    4 1
   7    3   27 1
   8    4    5 1
   9    4   28 1
  10    5    6 ar
  11    5    7 ar
  12    6   10 ar
  13    7    8 ar
  14    7   29 1
  15    8    9 ar
  16    8   25 1
  17    9   10 ar
  18    9   30 1
  19   10   31 1
  20   11   12 1
  21   11   32 1
  22   12   13 1
  23   12   33 1
  24   13   14 2
  25   13   34 1
  26   14   15 1
  27   14   16 1
  28   15   21 1
  29   15   22 2
  30   16   17 1
  31   16   18 2
  32   17   19 1
  33   19   20 1
  34   19   35 1
  35   19   36 1
  36   20   37 1
  37   20   38 1
  38   20   39 1
  39   21   23 1
  40   23   24 1
  41   23   40 1
  42   23   41 1
  43   24   42 1
  44   24   43 1
  45   24   44 1

#	End of record

