#	Name: ASD10610017
#	Creating user name:	WinNT
#	Creation time:	15. 06. 2019 21:27

#	Modifying user name:	WinNT
#	Modification time:	15. 06. 2019 21:27

#	Program:	/corina/corina34_cracker 3.40 0067  02.08.2006

@<TRIPOS>MOLECULE
ASD10610017
  57   60    0    0    0
SMALL
NO_CHARGES


@<TRIPOS>ATOM
   1 C1            -0.2376     1.6100    -0.1754 C.ar    
   2 C2            -0.3276     0.2194    -0.1848 C.ar    
   3 C3             0.8339    -0.5429    -0.1160 C.ar    
   4 C4             2.0743     0.0719    -0.0376 C.ar    
   5 C5             2.1580     1.4477    -0.0347 C.ar    
   6 C6             0.9990     2.2120    -0.1011 C.ar    
   7 C7             3.4740     2.1784     0.0315 C.3     
   8 C8            -1.6522    -0.4430    -0.2671 C.ar    
   9 C9            -1.8755    -1.4455    -1.2080 C.ar    
  10 C10           -3.1107    -2.0596    -1.2812 C.ar    
  11 C11           -4.1287    -1.6819    -0.4223 C.ar    
  12 C12           -3.9170    -0.6872     0.5152 C.ar    
  13 C13           -2.6798    -0.0678     0.6030 C.ar    
  14 Cl14          -5.1995    -0.2189     1.5875 Cl      
  15 O15           -2.4705     0.9093     1.5239 O.3     
  16 C16           -1.9920     0.5000     2.8068 C.3     
  17 C17           -1.8180     1.7285     3.7019 C.3     
  18 N18            3.3482     3.3187     0.9426 N.am    
  19 C19            2.8638     4.4923     0.4903 C.2     
  20 O20            2.6178     4.6328    -0.6889 O.2     
  21 C21            2.6278     5.6300     1.4500 C.3     
  22 N22            3.5885     5.7377     2.5508 N.am    
  23 C23            2.0602     6.9306     0.8779 C.3     
  24 C24            1.1772     6.0225     1.7374 C.3     
  25 C25            4.9054     5.8501     2.2873 C.2     
  26 C26            5.9025     5.8519     3.4173 C.3     
  27 O27            5.2881     5.9497     1.1408 O.2     
  28 F28            7.1954     5.9786     2.8982 F       
  29 F29            5.6360     6.9265     4.2726 F       
  30 F30            5.8016     4.6524     4.1302 F       
  31 C31            4.5783     1.2512     0.5348 C.3     
  32 C32            3.2894    -0.8142     0.0506 C.3     
  33 C33            4.5521    -0.0319    -0.3041 C.3     
  34 Cl34          -3.3877    -3.3089    -2.4543 Cl      
  35 F35           -0.8963     2.6042     3.1180 F       
  36 F36           -3.0490     2.3769     3.8485 F       
  37 H37           -1.1323     2.2124    -0.2305 H       
  38 H38            0.7691    -1.6209    -0.1233 H       
  39 H39            1.0688     3.2897    -0.0945 H       
  40 H40            3.7347     2.5401    -0.9631 H       
  41 H41           -1.0838    -1.7421    -1.8800 H       
  42 H42           -5.0923    -2.1656    -0.4847 H       
  43 H43           -2.7102    -0.1822     3.2617 H       
  44 H44           -1.0329    -0.0052     2.6926 H       
  45 H45           -1.4530     1.4164     4.6804 H       
  46 H46            3.6135     3.2291     1.8713 H       
  47 H47            3.2767     5.7281     3.4693 H       
  48 H48            2.4013     7.8663     1.3209 H       
  49 H49            1.8575     6.9633    -0.1925 H       
  50 H50            0.3935     5.4580     1.2322 H       
  51 H51            0.9376     6.3611     2.7454 H       
  52 H52            5.5462     1.7407     0.4268 H       
  53 H53            4.4042     1.0081     1.5829 H       
  54 H54            3.3795    -1.2007     1.0658 H       
  55 H55            3.1770    -1.6483    -0.6421 H       
  56 H56            4.5406     0.2227    -1.3639 H       
  57 H57            5.4324    -0.6346    -0.0805 H       
@<TRIPOS>BOND
   1    1    2 ar
   2    1    6 ar
   3    1   37 1
   4    2    3 ar
   5    2    8 1
   6    3    4 ar
   7    3   38 1
   8    4    5 ar
   9    4   32 1
  10    5    6 ar
  11    5    7 1
  12    6   39 1
  13    7   18 1
  14    7   31 1
  15    7   40 1
  16    8    9 ar
  17    8   13 ar
  18    9   10 ar
  19    9   41 1
  20   10   11 ar
  21   10   34 1
  22   11   12 ar
  23   11   42 1
  24   12   13 ar
  25   12   14 1
  26   13   15 1
  27   15   16 1
  28   16   17 1
  29   16   43 1
  30   16   44 1
  31   17   35 1
  32   17   36 1
  33   17   45 1
  34   18   19 am
  35   18   46 1
  36   19   20 2
  37   19   21 1
  38   21   22 1
  39   21   23 1
  40   21   24 1
  41   22   25 am
  42   22   47 1
  43   23   24 1
  44   23   48 1
  45   23   49 1
  46   24   50 1
  47   24   51 1
  48   25   26 1
  49   25   27 2
  50   26   28 1
  51   26   29 1
  52   26   30 1
  53   31   33 1
  54   31   52 1
  55   31   53 1
  56   32   33 1
  57   32   54 1
  58   32   55 1
  59   33   56 1
  60   33   57 1

#	End of record

