#	Name: ASD11200002
#	Creating user name:	WinNT
#	Creation time:	15. 06. 2019 21:29

#	Modifying user name:	WinNT
#	Modification time:	15. 06. 2019 21:29

#	Program:	/corina/corina34_cracker 3.40 0067  02.08.2006

@<TRIPOS>MOLECULE
ASD11200002
  72   75    0    0    0
SMALL
NO_CHARGES


@<TRIPOS>ATOM
   1 C1            -0.0167     1.3768     0.0096 C.ar    
   2 C2             0.0021    -0.0041     0.0020 C.ar    
   3 C3             1.2082    -0.6806    -0.0127 C.ar    
   4 C4             2.3984     0.0229    -0.0198 C.ar    
   5 C5             2.3860     1.4042    -0.0127 C.ar    
   6 C6             1.1770     2.0860     0.0020 C.ar    
   7 C7            -1.2931    -0.7745     0.0102 C.3     
   8 F8            -1.7064    -1.0058    -1.3061 F       
   9 F9            -1.1036    -1.9982     0.6614 F       
  10 F10           -2.2715    -0.0348     0.6831 F       
  11 N11            1.1612     3.4879     0.0088 N.pl3   
  12 C12            1.6115     4.2942    -0.9973 C.2     
  13 C13            1.4287     5.5767    -0.6230 C.2     
  14 C14            0.8448     5.5639     0.6597 C.2     
  15 C15            0.6876     4.2740     1.0201 C.2     
  16 C16            0.0985     3.7846     2.3179 C.3     
  17 C17            1.7841     6.7997    -1.4286 C.3     
  18 N18            0.7406     7.0448    -2.4330 N.3     
  19 C19           -0.5317     7.4053    -1.7931 C.3     
  20 C20            0.4982    10.5039    -4.9083 C.3     
  21 N21            0.5910     9.1656    -5.5070 N.3     
  22 C22            0.1703     8.1315    -4.5522 C.3     
  23 C23            1.1613     8.0789    -3.3877 C.3     
  24 C24           -0.1932     9.0879    -6.7467 C.3     
  25 C25            0.4207     9.9892    -7.7868 C.2     
  26 C26            1.2895     9.4919    -8.6856 C.2     
  27 O27            1.8648    10.2429    -9.6307 O.3     
  28 C28            1.6169    11.5626    -9.7557 C.ar    
  29 C29            0.7251    12.1896    -8.8707 C.ar    
  30 C30            0.0813    11.3675    -7.8278 C.2     
  31 O31           -0.7021    11.8529    -7.0297 O.2     
  32 C32            2.2319    12.3153   -10.7490 C.ar    
  33 C33            1.9626    13.6629   -10.8561 C.ar    
  34 C34            1.0811    14.2811    -9.9809 C.ar    
  35 C35            0.4607    13.5530    -8.9896 C.ar    
  36 C36            2.6332    14.4736   -11.9351 C.3     
  37 C37            0.8012    15.7558   -10.1154 C.3     
  38 C38            2.2098     3.8307    -2.3005 C.3     
  39 H39           -0.9589     1.9046     0.0169 H       
  40 H40            1.2204    -1.7605    -0.0182 H       
  41 H41            3.3388    -0.5081    -0.0306 H       
  42 H42            3.3161     1.9531    -0.0179 H       
  43 H43            0.5704     6.4289     1.2454 H       
  44 H44           -0.9787     3.6619     2.2046 H       
  45 H45            0.5473     2.8272     2.5826 H       
  46 H46            0.3006     4.5107     3.1054 H       
  47 H47            1.8602     7.6618    -0.7659 H       
  48 H48            2.7395     6.6404    -1.9286 H       
  49 H49           -0.3969     8.3106    -1.2011 H       
  50 H50           -1.2867     7.5813    -2.5594 H       
  51 H51           -0.8554     6.5916    -1.1442 H       
  52 H52            1.1430    10.5550    -4.0310 H       
  53 H53            0.8154    11.2504    -5.6365 H       
  54 H54           -0.5328    10.6992    -4.6134 H       
  55 H55           -0.8235     8.3697    -4.1731 H       
  56 H56            0.1458     7.1634    -5.0525 H       
  57 H57            1.1857     9.0470    -2.8874 H       
  58 H58            2.1551     7.8407    -3.7669 H       
  59 H59           -0.1952     8.0608    -7.1116 H       
  60 H60           -1.2171     9.4054    -6.5495 H       
  61 H61            1.5330     8.4407    -8.6418 H       
  62 H62            2.9201    11.8451   -11.4358 H       
  63 H63           -0.2255    14.0353    -8.3091 H       
  64 H64            2.0166    14.4627   -12.8339 H       
  65 H65            2.7585    15.5008   -11.5929 H       
  66 H66            3.6094    14.0435   -12.1590 H       
  67 H67           -0.0447    15.9054   -10.7863 H       
  68 H68            0.5660    16.1718    -9.1357 H       
  69 H69            1.6800    16.2569   -10.5213 H       
  70 H70            1.4188     3.7096    -3.0407 H       
  71 H71            2.9281     4.5704    -2.6540 H       
  72 H72            2.7151     2.8768    -2.1494 H       
@<TRIPOS>BOND
   1    1    2 ar
   2    1    6 ar
   3    1   39 1
   4    2    3 ar
   5    2    7 1
   6    3    4 ar
   7    3   40 1
   8    4    5 ar
   9    4   41 1
  10    5    6 ar
  11    5   42 1
  12    6   11 1
  13    7    8 1
  14    7    9 1
  15    7   10 1
  16   11   12 1
  17   11   15 1
  18   12   13 2
  19   12   38 1
  20   13   14 1
  21   13   17 1
  22   14   15 2
  23   14   43 1
  24   15   16 1
  25   16   44 1
  26   16   45 1
  27   16   46 1
  28   17   18 1
  29   17   47 1
  30   17   48 1
  31   18   19 1
  32   18   23 1
  33   19   49 1
  34   19   50 1
  35   19   51 1
  36   20   21 1
  37   20   52 1
  38   20   53 1
  39   20   54 1
  40   21   22 1
  41   21   24 1
  42   22   23 1
  43   22   55 1
  44   22   56 1
  45   23   57 1
  46   23   58 1
  47   24   25 1
  48   24   59 1
  49   24   60 1
  50   25   26 2
  51   25   30 1
  52   26   27 1
  53   26   61 1
  54   27   28 1
  55   28   29 ar
  56   28   32 ar
  57   29   30 1
  58   29   35 ar
  59   30   31 2
  60   32   33 ar
  61   32   62 1
  62   33   34 ar
  63   33   36 1
  64   34   35 ar
  65   34   37 1
  66   35   63 1
  67   36   64 1
  68   36   65 1
  69   36   66 1
  70   37   67 1
  71   37   68 1
  72   37   69 1
  73   38   70 1
  74   38   71 1
  75   38   72 1

#	End of record

