#	Name: ASD10030003
#	Creating user name:	WinNT
#	Creation time:	15. 06. 2019 21:24

#	Modifying user name:	WinNT
#	Modification time:	15. 06. 2019 21:24

#	Program:	/corina/corina34_cracker 3.40 0067  02.08.2006

@<TRIPOS>MOLECULE
ASD10030003
  24   24    0    0    0
SMALL
NO_CHARGES


@<TRIPOS>ATOM
   1 C1            -0.0172     1.4136     0.0098 C.2     
   2 C2             0.0021    -0.0041     0.0020 C.2     
   3 C3             1.1811    -0.6636    -0.0128 C.2     
   4 C4             1.2010    -2.1330    -0.0209 C.ar    
   5 C5             2.4218    -2.8186    -0.0362 C.ar    
   6 C6             2.4340    -4.1989    -0.0433 C.ar    
   7 O7             3.6178    -4.8682    -0.0577 O.3     
   8 C8             4.8091    -4.0790    -0.0649 C.3     
   9 C9             1.2325    -4.9075    -0.0351 C.ar    
  10 O10            1.2474    -6.2656    -0.0416 O.3     
  11 C11            0.0216    -4.2287    -0.0199 C.ar    
  12 C12            0.0000    -2.8511    -0.0074 C.ar    
  13 O13            1.0280     2.0361     0.0032 O.2     
  14 O14           -1.1947     2.0723     0.0190 O.3     
  15 H15           -0.9258    -0.5567     0.0079 H       
  16 H16            2.1089    -0.1109    -0.0187 H       
  17 H17            3.3514    -2.2689    -0.0429 H       
  18 H18            5.6795    -4.7351    -0.0763 H       
  19 H19            4.8200    -3.4456    -0.9518 H       
  20 H20            4.8366    -3.4545     0.8280 H       
  21 H21            1.2601    -6.6630     0.8399 H       
  22 H22           -0.9059    -4.7819    -0.0140 H       
  23 H23           -0.9434    -2.3257     0.0086 H       
  24 H24           -1.1067     3.0352     0.0238 H       
@<TRIPOS>BOND
   1    1    2 1
   2    1   13 2
   3    1   14 1
   4    2    3 2
   5    2   15 1
   6    3    4 1
   7    3   16 1
   8    4    5 ar
   9    4   12 ar
  10    5    6 ar
  11    5   17 1
  12    6    7 1
  13    6    9 ar
  14    7    8 1
  15    8   18 1
  16    8   19 1
  17    8   20 1
  18    9   10 1
  19    9   11 ar
  20   10   21 1
  21   11   12 ar
  22   11   22 1
  23   12   23 1
  24   14   24 1

#	End of record

