#	Name: ASD11000323
#	Creating user name:	WinNT
#	Creation time:	15. 06. 2019 21:29

#	Modifying user name:	WinNT
#	Modification time:	15. 06. 2019 21:29

#	Program:	/corina/corina34_cracker 3.40 0067  02.08.2006

@<TRIPOS>MOLECULE
ASD11000323
  54   57    0    0    0
SMALL
NO_CHARGES


@<TRIPOS>ATOM
   1 C1            -0.0162     1.3209     0.0168 C.ar    
   2 N2             0.0012    -0.0047     0.0220 N.ar    
   3 C3             1.1428    -0.6682     0.0151 C.ar    
   4 C4             2.3459     0.0503     0.0021 C.ar    
   5 C5             2.2822     1.4502    -0.0031 C.ar    
   6 N6             1.0994     2.0371     0.0045 N.ar    
   7 N7            -1.2352     1.9766     0.0186 N.pl3   
   8 C8            -1.2797     3.3714     0.1320 C.ar    
   9 C9            -2.2604     4.0919    -0.5370 C.ar    
  10 C10           -2.3038     5.4676    -0.4242 C.ar    
  11 C11           -1.3683     6.1297     0.3572 C.ar    
  12 C12           -0.3884     5.4107     1.0259 C.ar    
  13 C13           -0.3467     4.0346     0.9183 C.ar    
  14 O14           -1.4115     7.4844     0.4674 O.3     
  15 C15           -0.4174     8.1005     1.2885 C.3     
  16 F16           -0.5247     7.6134     2.5956 F       
  17 F17            0.8533     7.8048     0.7835 F       
  18 C18            3.6436    -0.6478    -0.0056 C.2     
  19 C19            4.7859     0.0584    -0.0180 C.2     
  20 C20            6.0835    -0.6397    -0.0257 C.ar    
  21 C21            7.2737     0.0931    -0.0387 C.ar    
  22 C22            8.4849    -0.5642    -0.0458 C.ar    
  23 C23            8.5241    -1.9525    -0.0401 C.ar    
  24 C24            7.3442    -2.6850    -0.0272 C.ar    
  25 C25            6.1282    -2.0367    -0.0142 C.ar    
  26 O26            9.7207    -2.5962    -0.0477 O.3     
  27 C27            9.6889    -4.0248    -0.0412 C.3     
  28 C28           11.0981    -4.5587    -0.0510 C.ar    
  29 C29           11.7548    -4.7983     1.1416 C.ar    
  30 C30           13.0475    -5.2880     1.1325 C.ar    
  31 C31           13.6833    -5.5384    -0.0691 C.ar    
  32 C32           13.0263    -5.2996    -1.2617 C.ar    
  33 C33           11.7321    -4.8140    -1.2526 C.ar    
  34 H34            1.1493    -1.7482     0.0198 H       
  35 H35            3.1869     2.0401    -0.0127 H       
  36 H36           -2.0586     1.4698    -0.0588 H       
  37 H37           -2.9886     3.5766    -1.1457 H       
  38 H38           -3.0662     6.0281    -0.9447 H       
  39 H39            0.3396     5.9270     1.6340 H       
  40 H40            0.4135     3.4746     1.4426 H       
  41 H41           -0.5656     9.1804     1.2899 H       
  42 H42            3.6761    -1.7273    -0.0011 H       
  43 H43            4.7533     1.1379    -0.0225 H       
  44 H44            7.2442     1.1727    -0.0435 H       
  45 H45            9.4051     0.0011    -0.0562 H       
  46 H46            7.3797    -3.7644    -0.0232 H       
  47 H47            5.2112    -2.6071     0.0007 H       
  48 H48            9.1748    -4.3727     0.8548 H       
  49 H49            9.1594    -4.3804    -0.9251 H       
  50 H50           11.2580    -4.6026     2.0803 H       
  51 H51           13.5608    -5.4745     2.0643 H       
  52 H52           14.6935    -5.9203    -0.0761 H       
  53 H53           13.5232    -5.4949    -2.2005 H       
  54 H54           11.2175    -4.6309    -2.1843 H       
@<TRIPOS>BOND
   1    1    2 ar
   2    1    6 ar
   3    1    7 1
   4    2    3 ar
   5    3    4 ar
   6    3   34 1
   7    4    5 ar
   8    4   18 1
   9    5    6 ar
  10    5   35 1
  11    7    8 1
  12    7   36 1
  13    8    9 ar
  14    8   13 ar
  15    9   10 ar
  16    9   37 1
  17   10   11 ar
  18   10   38 1
  19   11   12 ar
  20   11   14 1
  21   12   13 ar
  22   12   39 1
  23   13   40 1
  24   14   15 1
  25   15   16 1
  26   15   17 1
  27   15   41 1
  28   18   19 2
  29   18   42 1
  30   19   20 1
  31   19   43 1
  32   20   21 ar
  33   20   25 ar
  34   21   22 ar
  35   21   44 1
  36   22   23 ar
  37   22   45 1
  38   23   24 ar
  39   23   26 1
  40   24   25 ar
  41   24   46 1
  42   25   47 1
  43   26   27 1
  44   27   28 1
  45   27   48 1
  46   27   49 1
  47   28   29 ar
  48   28   33 ar
  49   29   30 ar
  50   29   50 1
  51   30   31 ar
  52   30   51 1
  53   31   32 ar
  54   31   52 1
  55   32   33 ar
  56   32   53 1
  57   33   54 1

#	End of record

