#	Name: ASD12660001
#	Creating user name:	WinNT
#	Creation time:	15. 06. 2019 21:30

#	Modifying user name:	WinNT
#	Modification time:	15. 06. 2019 21:30

#	Program:	/corina/corina34_cracker 3.40 0067  02.08.2006

@<TRIPOS>MOLECULE
ASD12660001
  35   35    0    0    0
SMALL
NO_CHARGES


@<TRIPOS>ATOM
   1 P1            -0.0198     1.6058     0.0109 P.3     
   2 O2             1.2424    -2.6136    -0.3698 O.3     
   3 O3            -0.1679    -3.5834     2.7304 O.3     
   4 O4             0.9767    -5.5515     1.5896 O.3     
   5 O5             0.0021    -0.0041     0.0020 O.3     
   6 O6             1.4112    -4.9781    -2.8087 O.2     
   7 O7             1.4907     2.1630    -0.0006 O.3     
   8 O8            -0.7984     2.1391    -1.2935 O.3     
   9 O9            -0.7125     2.0831     1.2285 O.2     
  10 O10            5.4502    -6.2103    -4.9342 O.2     
  11 N11            2.6210    -4.4507    -1.0254 N.am    
  12 N12            3.3428    -5.7776    -4.3926 N.am    
  13 C13            0.9177    -3.1298     1.9194 C.3     
  14 C14            0.3953    -2.2689     0.7479 C.3     
  15 C15            1.6122    -4.3239     1.2272 C.3     
  16 C16            1.4272    -4.0432    -0.2806 C.3     
  17 C17            0.5294    -0.7812     1.0790 C.3     
  18 C18            2.5045    -4.9058    -2.2887 C.2     
  19 C19            3.7326    -5.3249    -3.0549 C.3     
  20 C20            4.2822    -6.2026    -5.2605 C.2     
  21 H21            1.6316    -2.5655     2.5193 H       
  22 H22           -0.6430    -2.5174     0.5280 H       
  23 H23            2.6707    -4.3522     1.4855 H       
  24 H24            0.5480    -4.5639    -0.6601 H       
  25 H25            1.5812    -0.5347     1.2240 H       
  26 H26           -0.0246    -0.5607     1.9915 H       
  27 H27            3.4954    -4.3928    -0.6095 H       
  28 H28            0.1034    -4.1290     3.4814 H       
  29 H29            1.3727    -6.3344     1.1830 H       
  30 H30            4.2304    -6.1383    -2.5268 H       
  31 H31            4.4132    -4.4780    -3.1419 H       
  32 H32            2.4086    -5.7714    -4.6536 H       
  33 H33            2.0052     1.8889    -0.7720 H       
  34 H34           -0.8503     3.1028    -1.3539 H       
  35 H35            3.9948    -6.5363    -6.2467 H       
@<TRIPOS>BOND
   1    1    5 1
   2    1    7 1
   3    1    8 1
   4    1    9 2
   5    2   14 1
   6    2   16 1
   7    3   28 1
   8    3   13 1
   9    4   29 1
  10    4   15 1
  11    5   17 1
  12    6   18 2
  13    7   33 1
  14    8   34 1
  15   10   20 2
  16   11   18 am
  17   11   27 1
  18   11   16 1
  19   12   19 1
  20   12   20 am
  21   12   32 1
  22   13   14 1
  23   13   21 1
  24   13   15 1
  25   14   17 1
  26   14   22 1
  27   15   23 1
  28   15   16 1
  29   16   24 1
  30   17   25 1
  31   17   26 1
  32   18   19 1
  33   19   30 1
  34   19   31 1
  35   20   35 1

#	End of record

