#	Name: ASD11000155
#	Creating user name:	WinNT
#	Creation time:	15. 06. 2019 21:28

#	Modifying user name:	WinNT
#	Modification time:	15. 06. 2019 21:28

#	Program:	/corina/corina34_cracker 3.40 0067  02.08.2006

@<TRIPOS>MOLECULE
ASD11000155
  52   55    0    0    0
SMALL
NO_CHARGES


@<TRIPOS>ATOM
   1 C1            -0.1274     1.3615     0.0414 C.ar    
   2 C2            -0.1053    -0.0203     0.0391 C.ar    
   3 C3             1.1038    -0.6927    -0.0147 C.ar    
   4 C4             2.2896     0.0203    -0.0660 C.ar    
   5 C5             2.2650     1.4021    -0.0635 C.ar    
   6 C6             1.0571     2.0724    -0.0099 C.ar    
   7 C7             1.0317     3.5792    -0.0078 C.3     
   8 N8             1.0837     4.0665     1.3728 N.am    
   9 C9             0.0023     4.2946     2.1379 C.2     
  10 C10            2.3235     4.3625     2.1003 C.3     
  11 C11            1.9243     4.4123     3.5918 C.3     
  12 C12            0.4262     4.7810     3.5062 C.3     
  13 N13            0.2439     6.2346     3.6143 N.3     
  14 C14           -1.1345     6.6182     3.2835 C.3     
  15 C15           -1.2502     8.1440     3.2646 C.3     
  16 C16           -0.8624     8.6975     4.6386 C.3     
  17 C17            0.5594     8.2434     4.9803 C.3     
  18 C18            0.6227     6.7146     4.9495 C.3     
  19 C19           -0.9167    10.2032     4.6087 C.ar    
  20 C20           -1.7679    10.8803     5.4624 C.ar    
  21 C21           -1.8195    12.2605     5.4369 C.ar    
  22 C22           -1.0163    12.9673     4.5537 C.ar    
  23 C23           -0.1631    12.2856     3.6981 C.ar    
  24 C24           -0.1111    10.9055     3.7315 C.ar    
  25 O25           -1.1462     4.1343     1.7827 O.2     
  26 O26           -1.0655    14.3251     4.5264 O.3     
  27 F27            1.1267    -2.0435    -0.0166 F       
  28 H28           -1.0707     1.8862     0.0788 H       
  29 H29           -1.0308    -0.5754     0.0795 H       
  30 H30            3.2334    -0.5031    -0.1076 H       
  31 H31            3.1898     1.9585    -0.1032 H       
  32 H32            1.8921     3.9579    -0.5595 H       
  33 H33            0.1141     3.9277    -0.4818 H       
  34 H34            3.0569     3.5739     1.9322 H       
  35 H35            2.7251     5.3256     1.7850 H       
  36 H36            2.0576     3.4389     4.0639 H       
  37 H37            2.4873     5.1812     4.1209 H       
  38 H38           -0.1360     4.2661     4.2852 H       
  39 H39           -1.3961     6.2219     2.3023 H       
  40 H40           -1.8143     6.2116     4.0322 H       
  41 H41           -0.5808     8.5504     2.5065 H       
  42 H42           -2.2770     8.4283     3.0343 H       
  43 H43           -1.5556     8.3220     5.3914 H       
  44 H44            1.2573     8.6513     4.2492 H       
  45 H45            0.8254     8.5986     5.9759 H       
  46 H46           -0.0654     6.3076     5.6904 H       
  47 H47            1.6372     6.3884     5.1783 H       
  48 H48           -2.3932    10.3296     6.1495 H       
  49 H49           -2.4847    12.7889     6.1037 H       
  50 H50            0.4631    12.8336     3.0096 H       
  51 H51            0.5564    10.3745     3.0689 H       
  52 H52           -0.4410    14.7535     5.1277 H       
@<TRIPOS>BOND
   1    1    2 ar
   2    1    6 ar
   3    1   28 1
   4    2    3 ar
   5    2   29 1
   6    3    4 ar
   7    3   27 1
   8    4    5 ar
   9    4   30 1
  10    5    6 ar
  11    5   31 1
  12    6    7 1
  13    7    8 1
  14    7   32 1
  15    7   33 1
  16    8   10 1
  17    8    9 am
  18    9   12 1
  19    9   25 2
  20   10   11 1
  21   10   34 1
  22   10   35 1
  23   11   12 1
  24   11   36 1
  25   11   37 1
  26   12   13 1
  27   12   38 1
  28   13   14 1
  29   13   18 1
  30   14   15 1
  31   14   39 1
  32   14   40 1
  33   15   16 1
  34   15   41 1
  35   15   42 1
  36   16   17 1
  37   16   19 1
  38   16   43 1
  39   17   18 1
  40   17   44 1
  41   17   45 1
  42   18   46 1
  43   18   47 1
  44   19   20 ar
  45   19   24 ar
  46   20   21 ar
  47   20   48 1
  48   21   22 ar
  49   21   49 1
  50   22   23 ar
  51   22   26 1
  52   23   24 ar
  53   23   50 1
  54   24   51 1
  55   26   52 1

#	End of record

