#	Name: ASD10100004
#	Creating user name:	WinNT
#	Creation time:	15. 06. 2019 21:24

#	Modifying user name:	WinNT
#	Modification time:	15. 06. 2019 21:24

#	Program:	/corina/corina34_cracker 3.40 0067  02.08.2006

@<TRIPOS>MOLECULE
ASD10100004
  42   44    0    0    0
SMALL
NO_CHARGES


@<TRIPOS>ATOM
   1 C1            -4.5680     3.6579     2.1106 C.ar    
   2 C2            -4.9749     4.3230     0.9691 C.ar    
   3 C3            -5.7201     5.4826     1.0734 C.ar    
   4 C4            -6.0589     5.9768     2.3191 C.ar    
   5 C5            -5.6528     5.3112     3.4606 C.ar    
   6 C6            -4.9064     4.1523     3.3563 C.ar    
   7 S7            -3.6243     2.1759     1.9776 S.o2    
   8 O8            -3.4297     1.7037     3.3036 O.2     
   9 O9            -4.2385     1.3992     0.9583 O.2     
  10 N10           -2.1279     2.5971     1.4069 N.am    
  11 C11            0.2332     5.2179     3.5782 C.2     
  12 N12           -0.9198     4.7725     4.1094 N.am    
  13 C13           -1.7067     3.9196     3.4244 C.2     
  14 C14           -1.3169     3.4923     2.1424 C.2     
  15 C15           -0.1410     3.9553     1.6175 C.2     
  16 N16            0.6304     4.8255     2.3539 N.am    
  17 O17           -2.7502     3.5203     3.9134 O.2     
  18 O18            0.9250     5.9912     4.2126 O.2     
  19 C19            1.8908     5.3277     1.8014 C.3     
  20 C20            3.0139     4.4003     2.1885 C.ar    
  21 C21            3.3461     3.3375     1.3693 C.ar    
  22 C22            4.3762     2.4869     1.7244 C.ar    
  23 C23            5.0744     2.6992     2.8984 C.ar    
  24 C24            4.7428     3.7626     3.7171 C.ar    
  25 C25            3.7155     4.6158     3.3599 C.ar    
  26 N26            0.2661     3.5551     0.3653 N.pl3   
  27 H27           -4.7102     3.9369    -0.0042 H       
  28 H28           -6.0374     6.0026     0.1816 H       
  29 H29           -6.6405     6.8831     2.4006 H       
  30 H30           -5.9172     5.6975     4.4339 H       
  31 H31           -4.5888     3.6325     4.2481 H       
  32 H32           -1.8077     2.2299     0.5681 H       
  33 H33           -1.1870     5.0679     4.9938 H       
  34 H34            1.8176     5.3760     0.7149 H       
  35 H35            2.0896     6.3238     2.1968 H       
  36 H36            2.8006     3.1716     0.4521 H       
  37 H37            4.6353     1.6561     1.0848 H       
  38 H38            5.8787     2.0342     3.1762 H       
  39 H39            5.2881     3.9283     4.6345 H       
  40 H40            3.4589     5.4487     3.9977 H       
  41 H41           -0.2858     2.9493    -0.1535 H       
  42 H42            1.1050     3.8789     0.0016 H       
@<TRIPOS>BOND
   1    1    2 ar
   2    1    6 ar
   3    1    7 1
   4    2    3 ar
   5    2   27 1
   6    3    4 ar
   7    3   28 1
   8    4    5 ar
   9    4   29 1
  10    5    6 ar
  11    5   30 1
  12    6   31 1
  13    7    8 2
  14    7    9 2
  15    7   10 am
  16   10   14 1
  17   10   32 1
  18   11   12 am
  19   11   16 am
  20   11   18 2
  21   12   13 am
  22   12   33 1
  23   13   14 1
  24   13   17 2
  25   14   15 2
  26   15   16 1
  27   15   26 1
  28   16   19 1
  29   19   20 1
  30   19   34 1
  31   19   35 1
  32   20   21 ar
  33   20   25 ar
  34   21   22 ar
  35   21   36 1
  36   22   23 ar
  37   22   37 1
  38   23   24 ar
  39   23   38 1
  40   24   25 ar
  41   24   39 1
  42   25   40 1
  43   26   41 1
  44   26   42 1

#	End of record

