#	Name: ASD10610166
#	Creating user name:	WinNT
#	Creation time:	15. 06. 2019 21:28

#	Modifying user name:	WinNT
#	Modification time:	15. 06. 2019 21:28

#	Program:	/corina/corina34_cracker 3.40 0067  02.08.2006

@<TRIPOS>MOLECULE
ASD10610166
  42   44    0    0    0
SMALL
NO_CHARGES


@<TRIPOS>ATOM
   1 C1            -0.0184     1.5028     0.0103 C.2     
   2 C2             0.0021    -0.0041     0.0020 C.3     
   3 O3             1.0236     2.1234     0.0037 O.2     
   4 N4            -1.1946     2.1607     0.0195 N.am    
   5 C5            -1.2145     3.6256     0.0275 C.3     
   6 C6            -1.0888     4.1294     1.4667 C.3     
   7 C7            -2.5117     4.1136    -0.5642 C.ar    
   8 C8            -2.4950     5.1504    -1.4832 C.ar    
   9 C9            -3.6912     5.5947    -2.0243 C.ar    
  10 C10           -4.8746     4.9723    -1.6163 C.ar    
  11 C11           -4.8058     3.9359    -0.6871 C.ar    
  12 N12           -3.6450     3.5438    -0.2034 N.ar    
  13 F13           -1.3263     5.7220    -1.8473 F       
  14 C14           -6.1820     5.4082    -2.1629 C.ar    
  15 C15           -7.0803     4.4625    -2.6812 C.ar    
  16 C16           -8.3067     4.8844    -3.1919 C.ar    
  17 C17           -8.6319     6.2285    -3.1856 C.ar    
  18 C18           -7.7445     7.1603    -2.6738 C.ar    
  19 C19           -6.5270     6.7565    -2.1592 C.ar    
  20 N20           -7.4682     2.0304    -3.1384 N.2     
  21 N21           -6.8108     0.9357    -2.9646 N.pl3   
  22 N22           -5.6768     1.2020    -2.4168 N.2     
  23 N23           -5.5899     2.4754    -2.2307 N.2     
  24 C24           -6.7264     3.0225    -2.6860 C.2     
  25 C25           -7.2808    -0.4023    -3.3323 C.3     
  26 F26           -9.1770     3.9808    -3.6932 F       
  27 Cl27          -8.1664     8.8442    -2.6726 Cl      
  28 H28            0.0168    -0.3729     1.0276 H       
  29 H29           -0.8878    -0.3767    -0.5053 H       
  30 H30            0.8920    -0.3525    -0.5222 H       
  31 H31           -2.0280     1.6644     0.0207 H       
  32 H32           -0.3805     4.0035    -0.5638 H       
  33 H33           -1.9228     3.7515     2.0581 H       
  34 H34           -0.1506     3.7764     1.8947 H       
  35 H35           -1.1036     5.2193     1.4727 H       
  36 H36           -3.7087     6.4012    -2.7425 H       
  37 H37           -5.7127     3.4470    -0.3632 H       
  38 H38           -9.5825     6.5532    -3.5822 H       
  39 H39           -5.8413     7.4880    -1.7579 H       
  40 H40           -6.9736    -0.6273    -4.3536 H       
  41 H41           -6.8504    -1.1380    -2.6529 H       
  42 H42           -8.3681    -0.4370    -3.2639 H       
@<TRIPOS>BOND
   1    1    2 1
   2    1    3 2
   3    1    4 am
   4    2   28 1
   5    2   29 1
   6    2   30 1
   7    4    5 1
   8    4   31 1
   9    5    6 1
  10    5    7 1
  11    5   32 1
  12    6   33 1
  13    6   34 1
  14    6   35 1
  15    7    8 ar
  16    7   12 ar
  17    8    9 ar
  18    8   13 1
  19    9   10 ar
  20    9   36 1
  21   10   11 ar
  22   10   14 1
  23   11   12 ar
  24   11   37 1
  25   14   15 ar
  26   14   19 ar
  27   15   16 ar
  28   15   24 1
  29   16   17 ar
  30   16   26 1
  31   17   18 ar
  32   17   38 1
  33   18   19 ar
  34   18   27 1
  35   19   39 1
  36   20   21 1
  37   20   24 2
  38   21   22 1
  39   21   25 1
  40   22   23 2
  41   23   24 1
  42   25   40 1
  43   25   41 1
  44   25   42 1

#	End of record

