#	Name: ASD14280003
#	Creating user name:	WinNT
#	Creation time:	15. 06. 2019 21:31

#	Modifying user name:	WinNT
#	Modification time:	15. 06. 2019 21:31

#	Program:	/corina/corina34_cracker 3.40 0067  02.08.2006

@<TRIPOS>MOLECULE
ASD14280003
  46   48    0    0    0
SMALL
NO_CHARGES


@<TRIPOS>ATOM
   1 C1             1.2599     0.5214     0.5369 C.ar    
   2 C2             1.1332    -0.8530     0.5551 C.ar    
   3 C3             2.0444    -1.6458    -0.1284 C.ar    
   4 C4             3.0951    -1.0456    -0.8388 C.ar    
   5 C5             3.2142     0.3463    -0.8514 C.ar    
   6 C6             2.2981     1.1219    -0.1648 C.ar    
   7 C7             4.0681    -1.8791    -1.5675 C.2     
   8 O8             4.0114    -3.0902    -1.4868 O.2     
   9 O9             5.0207    -1.2980    -2.3231 O.3     
  10 N10            1.9166    -3.0340    -0.1089 N.am    
  11 C11            0.6962    -3.5970    -0.0082 C.2     
  12 C12            0.5472    -5.0940    -0.0971 C.3     
  13 O13           -0.2822    -2.8988     0.1540 O.2     
  14 N14           -0.8664    -5.4531     0.0403 N.am    
  15 S15           -3.2658    -5.9884    -0.4746 S.3     
  16 C16           -2.8050    -6.0411     1.2387 C.2     
  17 C17           -1.3799    -5.6918     1.2356 C.2     
  18 C18           -1.6487    -5.5367    -1.0418 C.2     
  19 C19           -3.5901    -6.3372     2.3059 C.2     
  20 C20           -3.0670    -6.1788     3.6683 C.ar    
  21 C21           -3.3133    -7.1638     4.6393 C.ar    
  22 C22           -2.8140    -7.0031     5.9212 C.ar    
  23 C23           -2.0771    -5.8788     6.2426 C.ar    
  24 C24           -1.8316    -4.9043     5.2894 C.ar    
  25 C25           -2.3147    -5.0483     4.0068 C.ar    
  26 O26           -4.0374    -8.2673     4.3228 O.3     
  27 C27           -4.2470    -9.2257     5.3619 C.3     
  28 O28           -0.7198    -5.6270     2.2562 O.2     
  29 O29            2.4134     2.4767    -0.1766 O.3     
  30 S30           -1.1777    -5.2596    -2.6643 S.2     
  31 H31            0.5455     1.1336     1.0672 H       
  32 H32            0.3236    -1.3123     1.1027 H       
  33 H33            4.0204     0.8156    -1.3957 H       
  34 H34            5.6361    -1.8859    -2.7821 H       
  35 H35            2.7059    -3.5947    -0.1677 H       
  36 H36            0.9177    -5.4393    -1.0623 H       
  37 H37            1.1209    -5.5642     0.7016 H       
  38 H38           -4.5995    -6.6894     2.1526 H       
  39 H39           -3.0011    -7.7576     6.6710 H       
  40 H40           -1.6904    -5.7592     7.2439 H       
  41 H41           -1.2552    -4.0294     5.5514 H       
  42 H42           -2.1168    -4.2882     3.2655 H       
  43 H43           -3.2843    -9.5977     5.7126 H       
  44 H44           -4.7777    -8.7545     6.1892 H       
  45 H45           -4.8388   -10.0559     4.9764 H       
  46 H46            2.9556     2.8316     0.5411 H       
@<TRIPOS>BOND
   1    1    2 ar
   2    1    6 ar
   3    1   31 1
   4    2    3 ar
   5    2   32 1
   6    3    4 ar
   7    3   10 1
   8    4    5 ar
   9    4    7 1
  10    5    6 ar
  11    5   33 1
  12    6   29 1
  13    7    8 2
  14    7    9 1
  15    9   34 1
  16   10   11 am
  17   10   35 1
  18   11   12 1
  19   11   13 2
  20   12   14 1
  21   12   36 1
  22   12   37 1
  23   14   18 am
  24   14   17 am
  25   15   16 1
  26   15   18 1
  27   16   17 1
  28   16   19 2
  29   17   28 2
  30   18   30 2
  31   19   20 1
  32   19   38 1
  33   20   21 ar
  34   20   25 ar
  35   21   22 ar
  36   21   26 1
  37   22   23 ar
  38   22   39 1
  39   23   24 ar
  40   23   40 1
  41   24   25 ar
  42   24   41 1
  43   25   42 1
  44   26   27 1
  45   27   43 1
  46   27   44 1
  47   27   45 1
  48   29   46 1

#	End of record

