#	Name: ASD11000002
#	Creating user name:	WinNT
#	Creation time:	15. 06. 2019 21:28

#	Modifying user name:	WinNT
#	Modification time:	15. 06. 2019 21:28

#	Program:	/corina/corina34_cracker 3.40 0067  02.08.2006

@<TRIPOS>MOLECULE
ASD11000002
  48   50    0    0    0
SMALL
NO_CHARGES


@<TRIPOS>ATOM
   1 C1            -0.0167     1.3829     0.0096 C.ar    
   2 C2             0.0021    -0.0041     0.0020 C.ar    
   3 C3             1.2143    -0.6810    -0.0127 C.ar    
   4 C4             2.3954     0.0357    -0.0196 C.ar    
   5 C5             2.3742     1.4095    -0.0124 C.ar    
   6 C6             1.1709     2.0907     0.0021 C.ar    
   7 O7            -1.1652    -0.7000     0.0094 O.3     
   8 C8             3.7203    -0.6984    -0.0342 C.3     
   9 C9             4.3768    -0.4789    -1.4008 C.3     
  10 N10            5.1201     0.7703    -1.4231 N.3     
  11 C11            4.3384     1.9955    -1.3899 C.3     
  12 C12            3.6764     2.1835    -0.0206 C.3     
  13 C13            6.0831     0.7902    -2.5322 C.3     
  14 C14            5.3283     0.7919    -3.8631 C.3     
  15 C15            6.3313     0.8126    -5.0182 C.3     
  16 C16            5.5765     0.8143    -6.3491 C.3     
  17 C17            6.5644     0.8347    -7.4869 C.ar    
  18 C18            7.0314    -0.3530    -8.0182 C.ar    
  19 C19            7.9376    -0.3343    -9.0618 C.ar    
  20 C20            8.3766     0.8720    -9.5745 C.ar    
  21 C21            7.9090     2.0597    -9.0439 C.ar    
  22 C22            6.9994     2.0410    -8.0031 C.ar    
  23 O23            3.4138     3.5705     0.2012 O.3     
  24 H24           -0.9593     1.9100     0.0170 H       
  25 H25            1.2338    -1.7608    -0.0184 H       
  26 H26            1.1589     3.1707     0.0081 H       
  27 H27           -1.5115    -0.8966    -0.8718 H       
  28 H28            4.3664    -0.3060     0.7511 H       
  29 H29            3.5520    -1.7634     0.1257 H       
  30 H30            5.0573    -1.3047    -1.6084 H       
  31 H31            3.6043    -0.4501    -2.1692 H       
  32 H32            4.9928     2.8438    -1.5911 H       
  33 H33            3.5665     1.9492    -2.1581 H       
  34 H34            4.3347     1.8041     0.7609 H       
  35 H35            6.6990     1.6868    -2.4627 H       
  36 H36            6.7196    -0.0930    -2.4767 H       
  37 H37            4.7124    -0.1047    -3.9327 H       
  38 H38            4.6919     1.6751    -3.9186 H       
  39 H39            6.9472     1.7092    -4.9487 H       
  40 H40            6.9678    -0.0706    -4.9627 H       
  41 H41            4.9606    -0.0823    -6.4187 H       
  42 H42            4.9401     1.6975    -6.4047 H       
  43 H43            6.6884    -1.2955    -7.6176 H       
  44 H44            8.3030    -1.2622    -9.4764 H       
  45 H45            9.0852     0.8866   -10.3895 H       
  46 H46            8.2522     3.0023    -9.4442 H       
  47 H47            6.6341     2.9690    -7.5885 H       
  48 H48            2.9943     3.7604     1.0515 H       
@<TRIPOS>BOND
   1    1    2 ar
   2    1    6 ar
   3    1   24 1
   4    2    3 ar
   5    2    7 1
   6    3    4 ar
   7    3   25 1
   8    4    5 ar
   9    4    8 1
  10    5    6 ar
  11    5   12 1
  12    6   26 1
  13    7   27 1
  14    8    9 1
  15    8   28 1
  16    8   29 1
  17    9   10 1
  18    9   30 1
  19    9   31 1
  20   10   11 1
  21   10   13 1
  22   11   12 1
  23   11   32 1
  24   11   33 1
  25   12   23 1
  26   12   34 1
  27   13   14 1
  28   13   35 1
  29   13   36 1
  30   14   15 1
  31   14   37 1
  32   14   38 1
  33   15   16 1
  34   15   39 1
  35   15   40 1
  36   16   17 1
  37   16   41 1
  38   16   42 1
  39   17   18 ar
  40   17   22 ar
  41   18   19 ar
  42   18   43 1
  43   19   20 ar
  44   19   44 1
  45   20   21 ar
  46   20   45 1
  47   21   22 ar
  48   21   46 1
  49   22   47 1
  50   23   48 1

#	End of record

