#	Name: ASD14170006
#	Creating user name:	WinNT
#	Creation time:	15. 06. 2019 21:30

#	Modifying user name:	WinNT
#	Modification time:	15. 06. 2019 21:30

#	Program:	/corina/corina34_cracker 3.40 0067  02.08.2006

@<TRIPOS>MOLECULE
ASD14170006
  45   47    0    0    0
SMALL
NO_CHARGES


@<TRIPOS>ATOM
   1 C1             0.3627     1.8747     0.0296 C.2     
   2 C2             0.3880     0.4896    -0.2232 C.2     
   3 C3             1.5539    -0.0076     0.3299 C.2     
   4 N4             2.2061     1.0338     0.8935 N.pl3   
   5 N5             1.4436     2.1899     0.6918 N.2     
   6 N6             1.9770    -1.3334     0.3100 N.am    
   7 C7             3.4902     0.9641     1.5952 C.3     
   8 C8            -0.7219     2.8303    -0.3965 C.3     
   9 F9            -1.6953     2.9075     0.6053 F       
  10 F10           -0.1695     4.0980    -0.6087 F       
  11 F11           -1.3076     2.3724    -1.5816 F       
  12 C12           -0.6444    -0.2911    -0.9480 C.ar    
  13 C13           -0.8788    -0.0529    -2.3011 C.ar    
  14 C14           -1.8401    -0.7816    -2.9713 C.ar    
  15 C15           -2.5716    -1.7485    -2.3013 C.ar    
  16 C16           -2.3421    -1.9886    -0.9564 C.ar    
  17 C17           -1.3788    -1.2688    -0.2794 C.ar    
  18 F18           -3.5121    -2.4592    -2.9613 F       
  19 C19            3.1595    -1.6551    -0.2511 C.2     
  20 N20            3.5938    -2.9307    -0.2233 N.am    
  21 O21            3.8344    -0.7945    -0.7824 O.2     
  22 C22            4.8674    -3.2480    -0.7141 C.ar    
  23 C23            6.6415    -2.8676    -2.2821 C.ar    
  24 C24            7.3834    -3.8758    -1.6843 C.ar    
  25 C25            6.8632    -4.5731    -0.6040 C.ar    
  26 C26            5.6083    -4.2606    -0.1195 C.ar    
  27 C27            5.3866    -2.5540    -1.7987 C.ar    
  28 O28            8.6189    -4.1844    -2.1612 O.3     
  29 C29            9.3270    -5.2333    -1.4976 C.3     
  30 H30            1.4209    -2.0259     0.7000 H       
  31 H31            4.3030     1.0748     0.8774 H       
  32 H32            3.5452     1.7648     2.3327 H       
  33 H33            3.5779     0.0007     2.0976 H       
  34 H34           -0.3092     0.7009    -2.8241 H       
  35 H35           -2.0227    -0.5975    -4.0197 H       
  36 H36           -2.9150    -2.7432    -0.4379 H       
  37 H37           -1.1971    -1.4600     0.7679 H       
  38 H38            3.0247    -3.6290     0.1365 H       
  39 H39            7.0472    -2.3250    -3.1232 H       
  40 H40            7.4411    -5.3582    -0.1392 H       
  41 H41            5.2035    -4.8034     0.7218 H       
  42 H42            4.8089    -1.7692    -2.2644 H       
  43 H43            9.4752    -4.9663    -0.4512 H       
  44 H44            8.7505    -6.1563    -1.5589 H       
  45 H45           10.2955    -5.3774    -1.9764 H       
@<TRIPOS>BOND
   1    1    2 1
   2    1    5 2
   3    1    8 1
   4    2    3 2
   5    2   12 1
   6    3    4 1
   7    3    6 1
   8    4    5 1
   9    4    7 1
  10    6   19 am
  11    6   30 1
  12    7   31 1
  13    7   32 1
  14    7   33 1
  15    8    9 1
  16    8   10 1
  17    8   11 1
  18   12   13 ar
  19   12   17 ar
  20   13   14 ar
  21   13   34 1
  22   14   15 ar
  23   14   35 1
  24   15   16 ar
  25   15   18 1
  26   16   17 ar
  27   16   36 1
  28   17   37 1
  29   19   20 am
  30   19   21 2
  31   20   22 1
  32   20   38 1
  33   22   27 ar
  34   22   26 ar
  35   23   24 ar
  36   23   27 ar
  37   23   39 1
  38   24   25 ar
  39   24   28 1
  40   25   26 ar
  41   25   40 1
  42   26   41 1
  43   27   42 1
  44   28   29 1
  45   29   43 1
  46   29   44 1
  47   29   45 1

#	End of record

