#	Name: ASD10420140
#	Creating user name:	WinNT
#	Creation time:	15. 06. 2019 21:27

#	Modifying user name:	WinNT
#	Modification time:	15. 06. 2019 21:27

#	Program:	/corina/corina34_cracker 3.40 0067  02.08.2006

@<TRIPOS>MOLECULE
ASD10420140
  24   25    0    0    0
SMALL
NO_CHARGES


@<TRIPOS>ATOM
   1 C1            -0.0168     1.3888     0.0097 C.ar    
   2 C2             0.0021    -0.0041     0.0020 C.ar    
   3 C3             1.1794    -0.6886    -0.0124 C.ar    
   4 C4             2.3926     0.0162    -0.0201 C.ar    
   5 C5             2.3747     1.4327    -0.0129 C.ar    
   6 C6             1.1408     2.1052     0.0025 C.ar    
   7 C7             3.6323    -0.6594    -0.0345 C.ar    
   8 C8             4.8010     0.0714    -0.0413 C.ar    
   9 C9             4.7703     1.4630    -0.0337 C.ar    
  10 C10            3.5894     2.1400    -0.0197 C.ar    
  11 S11            1.0923     3.8665     0.0118 S.o2    
  12 O12            0.9405     4.2566     1.3697 O.2     
  13 O13            2.1696     4.3019    -0.8062 O.2     
  14 O14           -0.1854     4.2857    -0.7012 O.3     
  15 N15            3.6740    -2.0519    -0.0413 N.pl3   
  16 H16           -0.9638     1.9080     0.0170 H       
  17 H17           -0.9304    -0.5490     0.0080 H       
  18 H18            1.1792    -1.7686    -0.0175 H       
  19 H19            5.7514    -0.4416    -0.0523 H       
  20 H20            5.6988     2.0147    -0.0389 H       
  21 H21            3.5858     3.2200    -0.0146 H       
  22 H22           -0.3112     5.2431    -0.7523 H       
  23 H23            2.8488    -2.5619    -0.0362 H       
  24 H24            4.5281    -2.5116    -0.0512 H       
@<TRIPOS>BOND
   1    1    2 ar
   2    1    6 ar
   3    1   16 1
   4    2    3 ar
   5    2   17 1
   6    3    4 ar
   7    3   18 1
   8    4    5 ar
   9    4    7 ar
  10    5    6 ar
  11    5   10 ar
  12    6   11 1
  13    7    8 ar
  14    7   15 1
  15    8    9 ar
  16    8   19 1
  17    9   10 ar
  18    9   20 1
  19   10   21 1
  20   11   12 2
  21   11   13 2
  22   11   14 1
  23   14   22 1
  24   15   23 1
  25   15   24 1

#	End of record

