#	Name: ASD16720003
#	Creating user name:	WinNT
#	Creation time:	15. 06. 2019 21:31

#	Modifying user name:	WinNT
#	Modification time:	15. 06. 2019 21:31

#	Program:	/corina/corina34_cracker 3.40 0067  02.08.2006

@<TRIPOS>MOLECULE
ASD16720003
  19   20    0    0    0
SMALL
NO_CHARGES


@<TRIPOS>ATOM
   1 C1            -0.0172     1.4147     0.0098 C.ar    
   2 C2             0.0021    -0.0041     0.0020 C.ar    
   3 C3             1.1981     2.1217     0.0020 C.ar    
   4 C4             2.3152     0.0046    -0.0200 C.ar    
   5 C5            -1.2543     2.0846     0.0311 C.ar    
   6 C6             2.3616     1.4058    -0.0129 C.ar    
   7 C7            -2.3943     1.3319     0.0433 C.ar    
   8 C8            -2.3072    -0.0594     0.0347 C.ar    
   9 C9             3.5847    -0.7612    -0.0356 C.2     
  10 N10            1.1694    -0.6489    -0.0121 N.ar    
  11 N11           -1.1533    -0.6797     0.0093 N.ar    
  12 O12            4.6475    -0.1745    -0.0422 O.2     
  13 O13            3.5588    -2.1075    -0.0426 O.3     
  14 H14            1.2115     3.2016     0.0073 H       
  15 H15           -1.3013     3.1636     0.0378 H       
  16 H16            3.3130     1.9170    -0.0196 H       
  17 H17           -3.3607     1.8135     0.0643 H       
  18 H18           -3.2164    -0.6422     0.0445 H       
  19 H19            4.4118    -2.5630    -0.0528 H       
@<TRIPOS>BOND
   1    1    2 ar
   2    1    3 ar
   3    1    5 ar
   4    2   10 ar
   5    2   11 ar
   6    3    6 ar
   7    3   14 1
   8    4    9 1
   9    4    6 ar
  10    4   10 ar
  11    5   15 1
  12    5    7 ar
  13    6   16 1
  14    7    8 ar
  15    7   17 1
  16    8   11 ar
  17    8   18 1
  18    9   12 2
  19    9   13 1
  20   13   19 1

#	End of record

