#	Name: ASD13490060
#	Creating user name:	WinNT
#	Creation time:	15. 06. 2019 21:30

#	Modifying user name:	WinNT
#	Modification time:	15. 06. 2019 21:30

#	Program:	/corina/corina34_cracker 3.40 0067  02.08.2006

@<TRIPOS>MOLECULE
ASD13490060
  59   63    0    0    0
SMALL
NO_CHARGES


@<TRIPOS>ATOM
   1 C1            -0.0155     1.4973     0.0129 C.2     
   2 C2             0.0070    -0.0057     0.0047 C.3     
   3 C3             0.2476    -0.5314    -1.4101 C.3     
   4 N4             1.1381     2.1894     0.0030 N.am    
   5 C5             1.3493     0.2929    -2.0817 C.3     
   6 C6             2.3441     1.4862    -0.1194 C.ar    
   7 C7             2.4816     0.5350    -1.1200 C.ar    
   8 C8             3.3934     1.7349     0.7532 C.ar    
   9 C9             3.6606    -0.1785    -1.2349 C.ar    
  10 C10            4.7055     0.0679    -0.3588 C.ar    
  11 C11            4.5726     1.0244     0.6302 C.ar    
  12 O12           -1.0753     2.0869     0.0235 O.2     
  13 C13            1.1336     3.6499     0.1175 C.3     
  14 C14            1.1822     4.2711    -1.2798 C.3     
  15 N15           -1.2774    -0.5108     0.4960 N.pl3   
  16 N16           -1.4471    -1.5724     1.2026 N.2     
  17 N17           -2.6936    -1.7396     1.4719 N.2     
  18 C18           -3.3955    -0.7361     0.9156 C.2     
  19 C19           -2.4846     0.0635     0.2880 C.2     
  20 C20           -4.8649    -0.5356     0.9767 C.ar    
  21 C21           -5.6679    -1.4465     1.6689 C.ar    
  22 C22           -7.0389    -1.2542     1.7230 C.ar    
  23 C23           -7.6116    -0.1575     1.0899 C.ar    
  24 C24           -6.8124     0.7465     0.4021 C.ar    
  25 C25           -5.4459     0.5637     0.3493 C.ar    
  26 N26           -8.9998     0.0365     1.1452 N.pl3   
  27 C27           -9.6477     1.1930     1.4941 C.2     
  28 C28          -10.9680     0.9400     1.4141 C.2     
  29 N29          -11.1273    -0.3343     1.0274 N.2     
  30 C30           -9.9557    -0.8843     0.8575 C.2     
  31 C31          -12.0750     1.9192     1.7086 C.3     
  32 O32           -5.1052    -2.5186     2.2869 O.3     
  33 C33           -4.6980    -2.3443     3.6455 C.3     
  34 F34           -7.8188    -2.1325     2.3906 F       
  35 F35            3.7934    -1.1148    -2.1998 F       
  36 F36            0.1271     3.7701    -2.0498 F       
  37 F37            1.0648     5.6614    -1.1764 F       
  38 F38            2.3990     3.9500    -1.8909 F       
  39 H39            0.8048    -0.3569     0.6592 H       
  40 H40            0.5539    -1.5763    -1.3621 H       
  41 H41           -0.6720    -0.4489    -1.9894 H       
  42 H42            1.7239    -0.2465    -2.9516 H       
  43 H43            0.9384     1.2499    -2.4034 H       
  44 H44            3.2893     2.4817     1.5264 H       
  45 H45            5.6264    -0.4890    -0.4489 H       
  46 H46            5.3913     1.2168     1.3078 H       
  47 H47            0.2252     3.9716     0.6268 H       
  48 H48            2.0041     3.9722     0.6889 H       
  49 H49           -2.6867     0.9693    -0.2643 H       
  50 H50           -7.2614     1.5972    -0.0889 H       
  51 H51           -4.8269     1.2711    -0.1826 H       
  52 H52           -9.1876     2.1277     1.7789 H       
  53 H53           -9.7766    -1.9019     0.5430 H       
  54 H54          -12.3395     2.4537     0.7962 H       
  55 H55          -12.9469     1.3809     2.0800 H       
  56 H56          -11.7392     2.6312     2.4625 H       
  57 H57           -4.2662    -3.2735     4.0175 H       
  58 H58           -3.9542    -1.5495     3.7027 H       
  59 H59           -5.5629    -2.0769     4.2526 H       
@<TRIPOS>BOND
   1    1    2 1
   2    1    4 am
   3    1   12 2
   4    2    3 1
   5    2   15 1
   6    2   39 1
   7    3    5 1
   8    3   40 1
   9    3   41 1
  10    4    6 1
  11    4   13 1
  12    5    7 1
  13    5   42 1
  14    5   43 1
  15    6    7 ar
  16    6    8 ar
  17    7    9 ar
  18    8   11 ar
  19    8   44 1
  20    9   10 ar
  21    9   35 1
  22   10   11 ar
  23   10   45 1
  24   11   46 1
  25   13   14 1
  26   13   47 1
  27   13   48 1
  28   14   36 1
  29   14   37 1
  30   14   38 1
  31   15   16 1
  32   15   19 1
  33   16   17 2
  34   17   18 1
  35   18   19 2
  36   18   20 1
  37   19   49 1
  38   20   21 ar
  39   20   25 ar
  40   21   22 ar
  41   21   32 1
  42   22   23 ar
  43   22   34 1
  44   23   24 ar
  45   23   26 1
  46   24   25 ar
  47   24   50 1
  48   25   51 1
  49   26   27 1
  50   26   30 1
  51   27   28 2
  52   27   52 1
  53   28   29 1
  54   28   31 1
  55   29   30 2
  56   30   53 1
  57   31   54 1
  58   31   55 1
  59   31   56 1
  60   32   33 1
  61   33   57 1
  62   33   58 1
  63   33   59 1

#	End of record

