#	Name: ASD14580002
#	Creating user name:	WinNT
#	Creation time:	15. 06. 2019 21:31

#	Modifying user name:	WinNT
#	Modification time:	15. 06. 2019 21:31

#	Program:	/corina/corina34_cracker 3.40 0067  02.08.2006

@<TRIPOS>MOLECULE
ASD14580002
  27   29    0    0    0
SMALL
NO_CHARGES


@<TRIPOS>ATOM
   1 C1             0.0634     1.4555    -0.4065 C.2     
   2 C2             0.0736    -0.0078    -0.3641 C.ar    
   3 C3             1.2390    -0.6100     0.1363 C.ar    
   4 Se4            2.3995     0.9215     0.5798 Du      
   5 N5             1.0962     2.2056     0.0034 N.am    
   6 C6            -0.9565    -0.8873    -0.7701 C.ar    
   7 C7            -0.8034    -2.2475    -0.6709 C.ar    
   8 C8             0.3615    -2.8029    -0.1714 C.ar    
   9 C9             1.3885    -1.9631     0.2338 C.ar    
  10 C10            1.1986     3.5885     0.0095 C.ar    
  11 C11            0.1568     4.3598     0.5365 C.ar    
  12 C12            0.2471     5.7167     0.5477 C.ar    
  13 C13            1.4033     6.3499     0.0223 C.ar    
  14 C14            2.4538     5.5581    -0.5096 C.ar    
  15 C15            2.3453     4.2024    -0.5062 C.ar    
  16 O16           -0.9251     2.0162    -0.8380 O.2     
  17 N17            1.5010     7.6707     0.0281 N.2     
  18 N18            2.4186     8.1682    -0.3890 N.1     
  19 N19            3.3361     8.6657    -0.8061 N.pl3   
  20 H20           -1.8773    -0.4827    -1.1637 H       
  21 H21           -1.6066    -2.8962    -0.9881 H       
  22 H22            0.4695    -3.8749    -0.0978 H       
  23 H23            2.3048    -2.3792     0.6258 H       
  24 H24           -0.7224     3.8758     0.9354 H       
  25 H25           -0.5583     6.3102     0.9546 H       
  26 H26            3.3379     6.0301    -0.9122 H       
  27 H27            3.1456     3.5976    -0.9066 H       
@<TRIPOS>BOND
   1    1    2 1
   2    1    5 am
   3    1   16 2
   4    2    3 ar
   5    2    6 ar
   6    3    4 1
   7    3    9 ar
   8    4    5 1
   9    5   10 1
  10    6    7 ar
  11    6   20 1
  12    7    8 ar
  13    7   21 1
  14    8    9 ar
  15    8   22 1
  16    9   23 1
  17   10   11 ar
  18   10   15 ar
  19   11   12 ar
  20   11   24 1
  21   12   13 ar
  22   12   25 1
  23   13   14 ar
  24   13   17 1
  25   14   15 ar
  26   14   26 1
  27   15   27 1
  28   17   18 2
  29   18   19 2

#	End of record

