#	Name: ASD16840001
#	Creating user name:	WinNT
#	Creation time:	15. 06. 2019 21:31

#	Modifying user name:	WinNT
#	Modification time:	15. 06. 2019 21:31

#	Program:	/corina/corina34_cracker 3.40 0067  02.08.2006

@<TRIPOS>MOLECULE
ASD16840001
  62   64    0    0    0
SMALL
NO_CHARGES


@<TRIPOS>ATOM
   1 O1             0.0021    -0.0041     0.0020 O.2     
   2 C2            -0.0144     1.2136     0.0087 C.2     
   3 N3            -1.1875     1.8781     0.0291 N.am    
   4 C4            -1.2048     3.2239     0.0370 C.2     
   5 O5            -2.2701     3.8096     0.0554 O.2     
   6 C6             1.1980     1.9446     0.0011 C.2     
   7 C7             2.5226     1.2262    -0.0165 C.3     
   8 C8             1.1515     3.2940     0.0092 C.2     
   9 N9            -0.0598     3.9303     0.0252 N.am    
  10 C10           -0.1102     5.3944     0.0341 C.3     
  11 O11           -0.9164     5.8629     1.1371 O.3     
  12 C12           -0.8295     5.9155    -1.2298 C.3     
  13 C13           -1.6340     7.1354    -0.7279 C.3     
  14 O14           -1.2041     8.3259    -1.3912 O.3     
  15 C15           -1.3056     7.2071     0.7798 C.3     
  16 C16           -2.5418     7.6326     1.5745 C.3     
  17 O17           -2.2059     7.7341     2.9598 O.3     
  18 P18           -3.2692     8.1608     4.0909 P.3     
  19 O19           -4.4448     7.2639     4.0264 O.2     
  20 O20           -3.7389     9.6802     3.8401 O.3     
  21 O21           -2.5839     8.0437     5.5431 O.3     
  22 P22           -3.1559     7.9203     7.0430 P.3     
  23 O23           -3.5902     6.3965     7.3282 O.3     
  24 O24           -4.3320     8.8055     7.1969 O.2     
  25 O25           -2.0142     8.3580     8.0904 O.3     
  26 O26            1.6941     7.3136    10.2825 O.3     
  27 C27            0.3537     7.7434    10.5288 C.3     
  28 C28           -0.6262     6.7380     9.9184 C.3     
  29 O29           -1.9643     7.1992    10.1155 O.3     
  30 C30           -0.4503     5.3778    10.5967 C.3     
  31 C31            0.1308     9.1170     9.8886 C.3     
  32 N32            1.0149    10.1040    10.5227 N.3     
  33 C33           -1.3297     9.5318    10.0919 C.3     
  34 O34           -1.5673    10.7796     9.4373 O.3     
  35 C35           -2.2451     8.4566     9.4972 C.3     
  36 H36           -2.0224     1.3842     0.0379 H       
  37 H37            2.3521     0.1497    -0.0213 H       
  38 H38            3.0781     1.5101    -0.9103 H       
  39 H39            3.0958     1.4994     0.8695 H       
  40 H40            2.0661     3.8684     0.0039 H       
  41 H41            0.8964     5.8077     0.0975 H       
  42 H42           -0.1039     6.2204    -1.9838 H       
  43 H43           -1.4996     5.1541    -1.6291 H       
  44 H44           -2.7016     6.9782    -0.8814 H       
  45 H45           -1.3314     8.3100    -2.3496 H       
  46 H46           -0.4829     7.8999     0.9565 H       
  47 H47           -2.8906     8.6002     1.2135 H       
  48 H48           -3.3300     6.8909     1.4452 H       
  49 H49           -3.0183    10.3244     3.8683 H       
  50 H50           -2.8674     5.7594     7.2451 H       
  51 H51            1.9051     6.4482    10.6587 H       
  52 H52            0.1845     7.8106    11.6035 H       
  53 H53           -0.4288     6.6401     8.8509 H       
  54 H54           -0.6481     5.4758    11.6641 H       
  55 H55           -1.1481     4.6621    10.1620 H       
  56 H56            0.5707     5.0266    10.4471 H       
  57 H57            0.3506     9.0623     8.8224 H       
  58 H58            0.8857    11.0187    10.1166 H       
  59 H59            0.8724    10.1283    11.5213 H       
  60 H60           -1.5341     9.6349    11.1576 H       
  61 H61           -2.4742    11.1034     9.5250 H       
  62 H62           -3.2860     8.7256     9.6768 H       
@<TRIPOS>BOND
   1    1    2 2
   2    2    6 1
   3    2    3 am
   4    3    4 am
   5    3   36 1
   6    4    9 am
   7    4    5 2
   8    6    7 1
   9    6    8 2
  10    7   37 1
  11    7   38 1
  12    7   39 1
  13    8   40 1
  14    8    9 1
  15    9   10 1
  16   10   11 1
  17   10   12 1
  18   10   41 1
  19   11   15 1
  20   12   13 1
  21   12   42 1
  22   12   43 1
  23   13   14 1
  24   13   44 1
  25   13   15 1
  26   14   45 1
  27   15   16 1
  28   15   46 1
  29   16   47 1
  30   16   48 1
  31   16   17 1
  32   17   18 1
  33   18   21 1
  34   18   19 2
  35   18   20 1
  36   20   49 1
  37   21   22 1
  38   22   25 1
  39   22   24 2
  40   22   23 1
  41   23   50 1
  42   25   35 1
  43   26   51 1
  44   26   27 1
  45   27   52 1
  46   27   28 1
  47   27   31 1
  48   28   30 1
  49   28   53 1
  50   28   29 1
  51   29   35 1
  52   30   54 1
  53   30   55 1
  54   30   56 1
  55   31   32 1
  56   31   57 1
  57   31   33 1
  58   32   58 1
  59   32   59 1
  60   33   60 1
  61   33   34 1
  62   33   35 1
  63   34   61 1
  64   35   62 1

#	End of record

