#	Name: ASD14510001
#	Creating user name:	WinNT
#	Creation time:	15. 06. 2019 21:31

#	Modifying user name:	WinNT
#	Modification time:	15. 06. 2019 21:31

#	Program:	/corina/corina34_cracker 3.40 0067  02.08.2006

@<TRIPOS>MOLECULE
ASD14510001
  62   65    0    0    0
SMALL
NO_CHARGES


@<TRIPOS>ATOM
   1 C1             0.5114     1.8658    -0.0983 C.ar    
   2 C2             0.6076     0.4629    -0.1274 C.ar    
   3 C3             1.8335    -0.1278    -0.1461 C.ar    
   4 C4             2.9982     0.6374    -0.1364 C.ar    
   5 C5             2.9436     1.9974    -0.1079 C.ar    
   6 C6             1.6966     2.6442    -0.0890 C.ar    
   7 C7             1.6078     4.0481    -0.0595 C.ar    
   8 C8             0.3921     4.6513    -0.0397 C.ar    
   9 C9            -0.7908     3.8903    -0.0481 C.ar    
  10 C10           -0.7365     2.5070    -0.0842 C.ar    
  11 C11           -2.1015     4.5723    -0.0256 C.2     
  12 O12           -3.1268     3.9192    -0.0328 O.2     
  13 N13           -2.1603     5.9185     0.0030 N.am    
  14 C14           -3.4598     6.5946     0.0254 C.3     
  15 C15           -3.2461     8.1093     0.0557 C.3     
  16 N16           -4.5491     8.7873     0.0782 N.3     
  17 C17           -6.6793     9.0940     1.2481 C.3     
  18 C18           -5.2687     8.5033     1.3264 C.3     
  19 C19           -4.3940    10.2326    -0.1307 C.3     
  20 C20           -5.7754    10.8810    -0.2575 C.3     
  21 C21           -6.5839    10.5980     1.0057 C.3     
  22 N22           -7.9368    11.1800     0.8843 N.3     
  23 C23           -5.9607    11.2852     2.1955 C.2     
  24 N24           -6.6834    12.3905     2.4744 N.am    
  25 C25           -7.7850    12.5139     1.5112 C.3     
  26 O26           -4.9780    10.9087     2.7984 O.2     
  27 C27           -8.3131    11.2965    -0.4557 C.ar    
  28 C28           -8.3524    10.1705    -1.2677 C.ar    
  29 C29           -8.7260    10.2896    -2.5940 C.ar    
  30 C30           -9.0600    11.5307    -3.1113 C.ar    
  31 C31           -9.0207    12.6521    -2.3041 C.ar    
  32 C32           -8.6543    12.5380    -0.9771 C.ar    
  33 F33           -8.7649     9.1955    -3.3855 F       
  34 H34           -0.2868    -0.1425    -0.1345 H       
  35 H35            1.9047    -1.2053    -0.1685 H       
  36 H36            3.9588     0.1440    -0.1513 H       
  37 H37            3.8551     2.5767    -0.1007 H       
  38 H38            2.5072     4.6459    -0.0523 H       
  39 H39            0.3323     5.7294    -0.0168 H       
  40 H40           -1.6471     1.9264    -0.0948 H       
  41 H41           -1.3423     6.4397     0.0087 H       
  42 H42           -4.0249     6.3252    -0.8669 H       
  43 H43           -4.0137     6.2880     0.9126 H       
  44 H44           -2.6810     8.3787     0.9480 H       
  45 H45           -2.6922     8.4160    -0.8315 H       
  46 H46           -7.2242     8.6272     0.4276 H       
  47 H47           -7.2038     8.9091     2.1855 H       
  48 H48           -5.3339     7.4249     1.4710 H       
  49 H49           -4.7335     8.9505     2.1641 H       
  50 H50           -3.8650    10.6675     0.7173 H       
  51 H51           -3.8248    10.4088    -1.0433 H       
  52 H52           -5.6617    11.9578    -0.3830 H       
  53 H53           -6.2940    10.4663    -1.1219 H       
  54 H54           -6.5030    13.0084     3.2000 H       
  55 H55           -7.5389    13.2582     0.7538 H       
  56 H56           -8.7041    12.7926     2.0266 H       
  57 H57           -8.0914     9.2033    -0.8642 H       
  58 H58           -9.3511    11.6222    -4.1473 H       
  59 H59           -9.2812    13.6183    -2.7104 H       
  60 H60           -8.6287    13.4144    -0.3465 H       
  61 Cl61           8.9588    18.6183     8.2000 Cl      
  62 H62            8.9588    19.9883     8.2000 H       
@<TRIPOS>BOND
   1    1    2 ar
   2    1    6 ar
   3    1   10 ar
   4    2    3 ar
   5    2   34 1
   6    3    4 ar
   7    3   35 1
   8    4    5 ar
   9    4   36 1
  10    5    6 ar
  11    5   37 1
  12    6    7 ar
  13    7    8 ar
  14    7   38 1
  15    8    9 ar
  16    8   39 1
  17    9   10 ar
  18    9   11 1
  19   10   40 1
  20   11   12 2
  21   11   13 am
  22   13   14 1
  23   13   41 1
  24   14   15 1
  25   14   42 1
  26   14   43 1
  27   15   16 1
  28   15   44 1
  29   15   45 1
  30   16   19 1
  31   16   18 1
  32   17   18 1
  33   17   21 1
  34   17   46 1
  35   17   47 1
  36   18   48 1
  37   18   49 1
  38   19   20 1
  39   19   50 1
  40   19   51 1
  41   20   21 1
  42   20   52 1
  43   20   53 1
  44   21   23 1
  45   21   22 1
  46   22   25 1
  47   22   27 1
  48   23   24 am
  49   23   26 2
  50   24   25 1
  51   24   54 1
  52   25   55 1
  53   25   56 1
  54   27   28 ar
  55   27   32 ar
  56   28   29 ar
  57   28   57 1
  58   29   30 ar
  59   29   33 1
  60   30   31 ar
  61   30   58 1
  62   31   32 ar
  63   31   59 1
  64   32   60 1
  65   61   62 1

#	End of record

