#	Name: ASD12010002
#	Creating user name:	WinNT
#	Creation time:	15. 06. 2019 21:29

#	Modifying user name:	WinNT
#	Modification time:	15. 06. 2019 21:29

#	Program:	/corina/corina34_cracker 3.40 0067  02.08.2006

@<TRIPOS>MOLECULE
ASD12010002
  42   44    0    0    0
SMALL
NO_CHARGES


@<TRIPOS>ATOM
   1 C1            -0.0168     1.3905     0.0097 C.ar    
   2 C2             0.0021    -0.0041     0.0020 C.ar    
   3 C3             1.2417    -0.6852    -0.0135 C.ar    
   4 N4             2.3767     0.0094    -0.0215 N.ar    
   5 C5             2.3765     1.3258    -0.0152 C.ar    
   6 C6             1.1972     2.0549     0.0017 C.ar    
   7 C7            -1.2323    -0.7993     0.0100 C.2     
   8 N8            -1.1058    -2.1472     0.0020 N.am    
   9 C9             0.1303    -2.7230    -0.0126 C.2     
  10 N10            1.2434    -2.0324    -0.0204 N.2     
  11 O11           -2.3269    -0.2672     0.0238 O.2     
  12 N12            0.2120    -4.0911    -0.0194 N.pl3   
  13 C13            1.5221    -4.7466    -0.0350 C.3     
  14 C14            1.5106    -6.1687     0.5544 C.3     
  15 N15            2.3880    -6.5354    -0.5742 N.am    
  16 C16            1.8651    -5.4143    -1.3791 C.3     
  17 C17            3.3003    -7.5047    -0.7852 C.2     
  18 O18            3.9523    -7.5711    -1.9614 O.3     
  19 O19            3.5344    -8.3188     0.0860 O.2     
  20 C20            4.9210    -8.6412    -2.1186 C.3     
  21 C21            4.2193    -9.9916    -1.9607 C.3     
  22 C22            5.5549    -8.5552    -3.5084 C.3     
  23 C23            6.0096    -8.5044    -1.0522 C.3     
  24 H24           -0.9496     1.9348     0.0171 H       
  25 H25            3.3197     1.8518    -0.0217 H       
  26 H26            1.2259     3.1346     0.0064 H       
  27 H27           -1.8985    -2.7063     0.0069 H       
  28 H28           -0.5976    -4.6254    -0.0139 H       
  29 H29            2.3181    -4.1147     0.3589 H       
  30 H30            1.9934    -6.2444     1.5287 H       
  31 H31            0.5325    -6.6488     0.5245 H       
  32 H32            0.9911    -5.6727    -1.9769 H       
  33 H33            2.6309    -4.8875    -1.9485 H       
  34 H34            3.4437   -10.0891    -2.7204 H       
  35 H35            4.9465   -10.7950    -2.0788 H       
  36 H36            3.7677   -10.0529    -0.9706 H       
  37 H37            6.0548    -7.5932    -3.6209 H       
  38 H38            6.2821    -9.3585    -3.6265 H       
  39 H39            4.7793    -8.6527    -4.2681 H       
  40 H40            5.5580    -8.5657    -0.0620 H       
  41 H41            6.7368    -9.3078    -1.1702 H       
  42 H42            6.5095    -7.5424    -1.1646 H       
@<TRIPOS>BOND
   1    1    2 ar
   2    1    6 ar
   3    1   24 1
   4    2    3 ar
   5    2    7 1
   6    3    4 ar
   7    3   10 1
   8    4    5 ar
   9    5    6 ar
  10    5   25 1
  11    6   26 1
  12    7    8 am
  13    7   11 2
  14    8    9 1
  15    8   27 1
  16    9   10 2
  17    9   12 1
  18   12   13 1
  19   12   28 1
  20   13   14 1
  21   13   16 1
  22   13   29 1
  23   14   15 1
  24   14   30 1
  25   14   31 1
  26   15   16 1
  27   15   17 am
  28   16   32 1
  29   16   33 1
  30   17   18 1
  31   17   19 2
  32   18   20 1
  33   20   21 1
  34   20   22 1
  35   20   23 1
  36   21   34 1
  37   21   35 1
  38   21   36 1
  39   22   37 1
  40   22   38 1
  41   22   39 1
  42   23   40 1
  43   23   41 1
  44   23   42 1

#	End of record

