#	Name: ASD13680002
#	Creating user name:	WinNT
#	Creation time:	15. 06. 2019 21:30

#	Modifying user name:	WinNT
#	Modification time:	15. 06. 2019 21:30

#	Program:	/corina/corina34_cracker 3.40 0067  02.08.2006

@<TRIPOS>MOLECULE
ASD13680002
  32   34    0    0    0
SMALL
NO_CHARGES


@<TRIPOS>ATOM
   1 S1            -0.0217     1.7491     0.0117 S.3     
   2 C2             0.0021    -0.0041     0.0020 C.2     
   3 C3             1.2391    -0.4665    -0.0123 C.2     
   4 C4             2.2693     0.5524    -0.0166 C.2     
   5 C5             1.7349     1.8394    -0.0046 C.2     
   6 C6             3.6926     0.4176    -0.0305 C.2     
   7 N7             4.4509     1.5313    -0.0314 N.am    
   8 C8             3.8619     2.7654    -0.0187 C.2     
   9 N9             2.5596     2.9042    -0.0077 N.2     
  10 C10            4.7154     3.9714    -0.0195 C.ar    
  11 C11            4.1350     5.2412    -0.0067 C.ar    
  12 C12            4.9378     6.3630    -0.0075 C.ar    
  13 C13            6.3152     6.2320    -0.0210 C.ar    
  14 C14            6.8969     4.9766    -0.0342 C.ar    
  15 C15            6.1060     3.8464    -0.0273 C.ar    
  16 N16            7.1703     7.4403    -0.0218 N.pl3   
  17 O17            6.6611     8.5467    -0.0107 O.2     
  18 O18            8.3831     7.3281    -0.0337 O.2     
  19 O19            4.2109    -0.6855    -0.0410 O.2     
  20 C20            1.5548    -1.9400    -0.0227 C.3     
  21 C21           -1.2302    -0.8715     0.0099 C.3     
  22 H22            5.4180     1.4574    -0.0407 H       
  23 H23            3.0601     5.3449     0.0035 H       
  24 H24            4.4902     7.3459     0.0020 H       
  25 H25            7.9726     4.8813    -0.0451 H       
  26 H26            6.5613     2.8671    -0.0323 H       
  27 H27            1.6213    -2.2900    -1.0529 H       
  28 H28            2.5058    -2.1114     0.4814 H       
  29 H29            0.7654    -2.4843     0.4957 H       
  30 H30           -2.1188    -0.2403     0.0219 H       
  31 H31           -1.2404    -1.4964    -0.8832 H       
  32 H32           -1.2227    -1.5053     0.8967 H       
@<TRIPOS>BOND
   1    1    2 1
   2    1    5 1
   3    2    3 2
   4    2   21 1
   5    3    4 1
   6    3   20 1
   7    4    6 1
   8    4    5 2
   9    5    9 1
  10    6    7 am
  11    6   19 2
  12    7    8 1
  13    7   22 1
  14    8    9 2
  15    8   10 1
  16   10   11 ar
  17   10   15 ar
  18   11   12 ar
  19   11   23 1
  20   12   13 ar
  21   12   24 1
  22   13   14 ar
  23   13   16 1
  24   14   15 ar
  25   14   25 1
  26   15   26 1
  27   16   17 2
  28   16   18 2
  29   20   27 1
  30   20   28 1
  31   20   29 1
  32   21   30 1
  33   21   31 1
  34   21   32 1

#	End of record

