#	Name: ASD15280006
#	Creating user name:	WinNT
#	Creation time:	15. 06. 2019 21:31

#	Modifying user name:	WinNT
#	Modification time:	15. 06. 2019 21:31

#	Program:	/corina/corina34_cracker 3.40 0067  02.08.2006

@<TRIPOS>MOLECULE
ASD15280006
  56   61    0    0    0
SMALL
NO_CHARGES


@<TRIPOS>ATOM
   1 O1             0.0021    -0.0041     0.0020 O.2     
   2 C2            -0.0144     1.2113     0.0087 C.2     
   3 N3             1.1435     1.9010     0.0013 N.am    
   4 C4             2.4220     1.1859    -0.0147 C.3     
   5 C5             3.5540     2.1806    -0.0202 C.ar    
   6 C6             4.0708     2.6590    -1.2149 C.ar    
   7 N7             5.0636     3.5313    -1.1849 N.ar    
   8 C8             5.5645     3.9487    -0.0299 C.ar    
   9 N9             5.0929     3.5108     1.1298 N.ar    
  10 C10            4.0974     2.6418     1.1695 C.ar    
  11 C11            6.6780     4.9272    -0.0353 C.ar    
  12 C12            7.1837     5.4033    -1.2499 C.ar    
  13 C13            8.2085     6.3043    -1.2725 C.ar    
  14 C14            8.7651     6.7622    -0.0814 C.ar    
  15 N15            9.7798     7.6454     0.2076 N.pl3   
  16 H16           10.3055     8.1247    -0.4518 H       
  17 C17            9.9373     7.7478     1.5631 C.2     
  18 C18            9.0531     6.9550     2.1882 C.2     
  19 C19            8.2644     6.2903     1.1473 C.ar    
  20 C20            7.2140     5.3744     1.1656 C.ar    
  21 C21           -1.3048     1.9331     0.0187 C.ar    
  22 C22           -1.3247     3.3288     0.0207 C.ar    
  23 C23           -2.5338     3.9938     0.0241 C.ar    
  24 C24           -3.7203     3.2857     0.0311 C.ar    
  25 C25           -3.7195     1.8972     0.0390 C.ar    
  26 N26           -4.8900     1.1617     0.0714 N.am    
  27 C27           -6.0033     1.2808    -0.6003 C.2     
  28 O28           -6.8487     0.4427    -0.3537 O.2     
  29 C29           -6.3849     2.2740    -1.6061 C.ar    
  30 C30           -7.0472     1.8631    -2.7694 C.ar    
  31 C31           -7.4172     2.7905    -3.7191 C.ar    
  32 C32           -7.1380     4.1325    -3.5321 C.ar    
  33 C33           -6.4811     4.5498    -2.3870 C.ar    
  34 C34           -6.1052     3.6307    -1.4332 C.ar    
  35 S35           -5.2550     4.1580     0.0195 S.o2    
  36 O36           -6.0044     3.6735     1.1254 O.2     
  37 O37           -4.9393     5.5302    -0.1716 O.2     
  38 C38           -2.5015     1.2215     0.0206 C.ar    
  39 H39            1.1303     2.8709     0.0067 H       
  40 H40            2.4967     0.5553     0.8712 H       
  41 H41            2.4797     0.5648    -0.9086 H       
  42 H42            3.6673     2.3226    -2.1585 H       
  43 H43            3.7148     2.2921     2.1170 H       
  44 H44            6.7589     5.0538    -2.1793 H       
  45 H45            8.5891     6.6629    -2.2175 H       
  46 H46           10.6659     8.3737     2.0568 H       
  47 H47            8.9438     6.8304     3.2554 H       
  48 H48            6.8231     5.0124     2.1050 H       
  49 H49           -0.3990     3.8851     0.0198 H       
  50 H50           -2.5529     5.0737     0.0216 H       
  51 H51           -4.8826     0.4273     0.7050 H       
  52 H52           -7.2688     0.8172    -2.9225 H       
  53 H53           -7.9276     2.4679    -4.6145 H       
  54 H54           -7.4321     4.8545    -4.2794 H       
  55 H55           -6.2633     5.5976    -2.2417 H       
  56 H56           -2.4853     0.1417     0.0118 H       
@<TRIPOS>BOND
   1    1    2 2
   2    2    3 am
   3    2   21 1
   4    3    4 1
   5    3   39 1
   6    4    5 1
   7    4   40 1
   8    4   41 1
   9    5   10 ar
  10    5    6 ar
  11    6    7 ar
  12    6   42 1
  13    7    8 ar
  14    8    9 ar
  15    8   11 1
  16    9   10 ar
  17   10   43 1
  18   11   20 ar
  19   11   12 ar
  20   12   13 ar
  21   12   44 1
  22   13   14 ar
  23   13   45 1
  24   14   19 ar
  25   14   15 1
  26   15   16 1
  27   15   17 1
  28   17   18 2
  29   17   46 1
  30   18   19 1
  31   18   47 1
  32   19   20 ar
  33   20   48 1
  34   21   38 ar
  35   21   22 ar
  36   22   23 ar
  37   22   49 1
  38   23   24 ar
  39   23   50 1
  40   24   35 1
  41   24   25 ar
  42   25   26 1
  43   25   38 ar
  44   26   27 am
  45   26   51 1
  46   27   28 2
  47   27   29 1
  48   29   34 ar
  49   29   30 ar
  50   30   31 ar
  51   30   52 1
  52   31   32 ar
  53   31   53 1
  54   32   33 ar
  55   32   54 1
  56   33   34 ar
  57   33   55 1
  58   34   35 1
  59   35   36 2
  60   35   37 2
  61   38   56 1

#	End of record

