#	Name: ASD10160377
#	Creating user name:	WinNT
#	Creation time:	15. 06. 2019 21:25

#	Modifying user name:	WinNT
#	Modification time:	15. 06. 2019 21:25

#	Program:	/corina/corina34_cracker 3.40 0067  02.08.2006

@<TRIPOS>MOLECULE
ASD10160377
  43   44    0    0    0
SMALL
NO_CHARGES


@<TRIPOS>ATOM
   1 C1            -0.0167     1.3806     0.0096 C.ar    
   2 C2             0.0021    -0.0041     0.0020 C.ar    
   3 C3             1.2193    -0.6643    -0.0131 C.ar    
   4 C4             2.3889     0.1019    -0.0202 C.ar    
   5 C5             2.2848     1.4913    -0.0117 C.ar    
   6 N6             1.1047     2.0756     0.0027 N.ar    
   7 O7             5.0843     0.0411    -0.0456 O.3     
   8 B8             3.7970    -0.5923    -0.0368 Du      
   9 O9             4.0784    -1.9991    -0.0460 O.3     
  10 C10            5.2132    -2.1505     0.8326 C.3     
  11 C11            5.8952    -0.7671     0.8329 C.3     
  12 C12            7.3220    -0.8761     0.2914 C.3     
  13 C13            5.9030    -0.1769     2.2445 C.3     
  14 C14            4.7496    -2.5165     2.2440 C.3     
  15 C15            6.1686    -3.2157     0.2910 C.3     
  16 C16           -1.3383     2.1046     0.0198 C.3     
  17 C17           -1.7788     2.3418     1.4657 C.3     
  18 C18           -0.7925     3.2902     2.1503 C.3     
  19 C19           -3.1765     2.9642     1.4775 C.3     
  20 Cl20          -1.4835    -0.9021     0.0119 Cl      
  21 H21            1.2641    -1.7434    -0.0190 H       
  22 H22            3.1805     2.0948    -0.0166 H       
  23 H23            7.7693     0.1167     0.2438 H       
  24 H24            7.9138    -1.5100     0.9518 H       
  25 H25            7.2993    -1.3127    -0.7070 H       
  26 H26            4.8815    -0.1214     2.6207 H       
  27 H27            6.4978    -0.8123     2.9007 H       
  28 H28            6.3352     0.8234     2.2177 H       
  29 H29            4.2193    -3.4685     2.2168 H       
  30 H30            5.6156    -2.6017     2.9003 H       
  31 H31            4.0834    -1.7402     2.6204 H       
  32 H32            6.5012    -2.9315    -0.7074 H       
  33 H33            7.0316    -3.2994     0.9514 H       
  34 H34            5.6534    -4.1751     0.2429 H       
  35 H35           -1.2318     3.0625    -0.4894 H       
  36 H36           -2.0870     1.5015    -0.4938 H       
  37 H37           -1.7996     1.3918     1.9997 H       
  38 H38           -1.1063     3.4592     3.1803 H       
  39 H39            0.2032     2.8468     2.1419 H       
  40 H40           -0.7717     4.2402     1.6163 H       
  41 H41           -3.8792     2.2886     0.9897 H       
  42 H42           -3.4903     3.1332     2.5075 H       
  43 H43           -3.1557     3.9142     0.9435 H       
@<TRIPOS>BOND
   1    1    2 ar
   2    1    6 ar
   3    1   16 1
   4    2    3 ar
   5    2   20 1
   6    3    4 ar
   7    3   21 1
   8    4    5 ar
   9    4    8 1
  10    5    6 ar
  11    5   22 1
  12    7    8 1
  13    7   11 1
  14    8    9 1
  15    9   10 1
  16   10   11 1
  17   10   14 1
  18   10   15 1
  19   11   12 1
  20   11   13 1
  21   12   23 1
  22   12   24 1
  23   12   25 1
  24   13   26 1
  25   13   27 1
  26   13   28 1
  27   14   29 1
  28   14   30 1
  29   14   31 1
  30   15   32 1
  31   15   33 1
  32   15   34 1
  33   16   17 1
  34   16   35 1
  35   16   36 1
  36   17   18 1
  37   17   19 1
  38   17   37 1
  39   18   38 1
  40   18   39 1
  41   18   40 1
  42   19   41 1
  43   19   42 1
  44   19   43 1

#	End of record

