#	Name: ASD10420047
#	Creating user name:	WinNT
#	Creation time:	15. 06. 2019 21:27

#	Modifying user name:	WinNT
#	Modification time:	15. 06. 2019 21:27

#	Program:	/corina/corina34_cracker 3.40 0067  02.08.2006

@<TRIPOS>MOLECULE
ASD10420047
  38   38    0    0    0
SMALL
NO_CHARGES


@<TRIPOS>ATOM
   1 N1            -0.0859     1.3291    -0.0256 N.am    
   2 C2             0.0925    -0.1305     0.0071 C.3     
   3 C3             1.0750    -0.5257    -1.1004 C.3     
   4 N4             2.3112     0.2546    -0.9553 N.3     
   5 C5             2.0579     1.6912    -1.1284 C.3     
   6 C6             1.1156     2.1773    -0.0220 C.3     
   7 C7            -1.3177     1.8747    -0.0635 C.2     
   8 O8            -2.2952     1.1611    -0.1722 O.2     
   9 O9            -1.4652     3.2104     0.0191 O.3     
  10 C10           -1.2534    -0.8183    -0.2304 C.3     
  11 C11           -1.0621    -2.3360    -0.2048 C.3     
  12 O12           -2.3344    -2.9783    -0.3091 O.3     
  13 C13           -2.8209     3.7282    -0.0283 C.3     
  14 C14           -3.6276     3.1527     1.1374 C.3     
  15 C15           -2.7881     5.2541     0.0784 C.3     
  16 C16           -3.4755     3.3233    -1.3506 C.3     
  17 H17            0.4934    -0.4288     0.9758 H       
  18 H18            1.3043    -1.5884    -1.0211 H       
  19 H19            0.6279    -0.3213    -2.0732 H       
  20 H20            2.7533     0.0697    -0.0674 H       
  21 H21            3.0000     2.2363    -1.0693 H       
  22 H22            1.5971     1.8647    -2.1008 H       
  23 H23            0.8332     3.2130    -0.2104 H       
  24 H24            1.6149     2.1008     0.9439 H       
  25 H25           -1.9535    -0.5271     0.5528 H       
  26 H26           -1.6486    -0.5182    -1.2009 H       
  27 H27           -0.4333    -2.6372    -1.0427 H       
  28 H28           -0.5842    -2.6263     0.7309 H       
  29 H29           -2.2893    -3.9442    -0.2993 H       
  30 H30           -3.1613     3.4411     2.0794 H       
  31 H31           -4.6454     3.5413     1.1018 H       
  32 H32           -3.6510     2.0656     1.0614 H       
  33 H33           -2.2133     5.6641    -0.7521 H       
  34 H34           -3.8058     5.6428     0.0428 H       
  35 H35           -2.3217     5.5425     1.0204 H       
  36 H36           -3.4988     2.2362    -1.4266 H       
  37 H37           -4.4932     3.7120    -1.3862 H       
  38 H38           -2.9007     3.7333    -2.1811 H       
@<TRIPOS>BOND
   1    1    2 1
   2    1    6 1
   3    1    7 am
   4    2    3 1
   5    2   10 1
   6    2   17 1
   7    3    4 1
   8    3   18 1
   9    3   19 1
  10    4    5 1
  11    4   20 1
  12    5    6 1
  13    5   21 1
  14    5   22 1
  15    6   23 1
  16    6   24 1
  17    7    8 2
  18    7    9 1
  19    9   13 1
  20   10   11 1
  21   10   25 1
  22   10   26 1
  23   11   12 1
  24   11   27 1
  25   11   28 1
  26   12   29 1
  27   13   14 1
  28   13   16 1
  29   13   15 1
  30   14   30 1
  31   14   31 1
  32   14   32 1
  33   15   33 1
  34   15   34 1
  35   15   35 1
  36   16   36 1
  37   16   37 1
  38   16   38 1

#	End of record

