#	Name: ASD10160403
#	Creating user name:	WinNT
#	Creation time:	15. 06. 2019 21:25

#	Modifying user name:	WinNT
#	Modification time:	15. 06. 2019 21:25

#	Program:	/corina/corina34_cracker 3.40 0067  02.08.2006

@<TRIPOS>MOLECULE
ASD10160403
  24   24    0    0    0
SMALL
NO_CHARGES


@<TRIPOS>ATOM
   1 C1            -0.0168     1.3861     0.0097 C.ar    
   2 C2             0.0021    -0.0041     0.0020 C.ar    
   3 C3             1.2210    -0.6607    -0.0131 C.ar    
   4 C4             2.3825     0.0998    -0.0201 C.ar    
   5 C5             2.2883     1.4769    -0.0118 C.ar    
   6 N6             1.1118     2.0749     0.0026 N.ar    
   7 Cl7           -1.4823    -0.9043     0.0119 Cl      
   8 O8            -1.2046     2.0422     0.0188 O.3     
   9 C9            -1.1568     3.4703     0.0264 C.3     
  10 C10           -0.4249     3.9628    -1.2237 C.3     
  11 C11           -2.5815     4.0282     0.0361 C.3     
  12 C12           -0.4131     3.9492     1.2747 C.3     
  13 H13            1.2672    -1.7397    -0.0190 H       
  14 H14            3.3495    -0.3810    -0.0316 H       
  15 H15            3.1890     2.0728    -0.0168 H       
  16 H16           -0.9547     3.6216    -2.1130 H       
  17 H17           -0.3884     5.0521    -1.2179 H       
  18 H18            0.5901     3.5653    -1.2306 H       
  19 H19           -3.1030     3.6774     0.9267 H       
  20 H20           -2.5451     5.1176     0.0419 H       
  21 H21           -3.1114     3.6871    -0.8533 H       
  22 H22            0.6018     3.5517     1.2678 H       
  23 H23           -0.3767     5.0386     1.2805 H       
  24 H24           -0.9346     3.5984     2.1653 H       
@<TRIPOS>BOND
   1    1    2 ar
   2    1    6 ar
   3    1    8 1
   4    2    3 ar
   5    2    7 1
   6    3    4 ar
   7    3   13 1
   8    4    5 ar
   9    4   14 1
  10    5    6 ar
  11    5   15 1
  12    8    9 1
  13    9   10 1
  14    9   12 1
  15    9   11 1
  16   10   16 1
  17   10   17 1
  18   10   18 1
  19   11   19 1
  20   11   20 1
  21   11   21 1
  22   12   22 1
  23   12   23 1
  24   12   24 1

#	End of record

