#	Name: ASD10220180
#	Creating user name:	WinNT
#	Creation time:	15. 06. 2019 21:26

#	Modifying user name:	WinNT
#	Modification time:	15. 06. 2019 21:26

#	Program:	/corina/corina34_cracker 3.40 0067  02.08.2006

@<TRIPOS>MOLECULE
ASD10220180
  40   42    0    0    0
SMALL
NO_CHARGES


@<TRIPOS>ATOM
   1 C1             0.2621     3.4678    -0.3694 C.ar    
   2 C2             0.6295     4.6791    -0.9457 C.ar    
   3 C3            -0.3280     5.5989    -1.3160 C.ar    
   4 C4            -1.6743     5.3209    -1.1151 C.ar    
   5 C5            -2.0446     4.0992    -0.5344 C.ar    
   6 C6            -1.0745     3.1729    -0.1681 C.ar    
   7 O7            -2.8055     6.0118    -1.3712 O.3     
   8 C8            -3.8910     5.3254    -0.9976 C.2     
   9 C9            -3.5197     4.1263    -0.4673 C.2     
  10 C10           -4.4036     3.0777     0.0612 C.2     
  11 O11           -3.9391     2.0069     0.4057 O.2     
  12 C12           -5.8549     3.3233     0.1741 C.ar    
  13 C13           -6.3308     4.6195     0.3889 C.ar    
  14 C14           -7.6900     4.8468     0.4944 C.ar    
  15 C15           -8.5851     3.7853     0.3872 C.ar    
  16 C16           -8.1135     2.4926     0.1736 C.ar    
  17 C17           -6.7556     2.2609     0.0607 C.ar    
  18 O18            1.2174     2.5701    -0.0086 O.3     
  19 O19           -8.9902     1.4581     0.0698 O.3     
  20 C20           -8.4373     0.1587    -0.1491 C.3     
  21 O21           -9.9210     4.0114     0.4916 O.3     
  22 C22          -10.6260     4.3031    -0.7166 C.3     
  23 O23           -8.1538     6.1081     0.7034 O.3     
  24 C24           -7.1800     7.1490     0.8039 C.3     
  25 H25            1.6745     4.9012    -1.1041 H       
  26 H26           -0.0314     6.5366    -1.7623 H       
  27 H27           -1.3622     2.2326     0.2786 H       
  28 H28           -4.9093     5.6699    -1.1008 H       
  29 H29           -5.6370     5.4430     0.4729 H       
  30 H30           -6.3903     1.2581    -0.1052 H       
  31 H31            1.5371     2.6787     0.8975 H       
  32 H32           -9.2428    -0.5729    -0.2126 H       
  33 H33           -7.8708     0.1570    -1.0804 H       
  34 H34           -7.7766    -0.0993     0.6785 H       
  35 H35          -11.6808     4.4622    -0.4925 H       
  36 H36          -10.2114     5.2029    -1.1711 H       
  37 H37          -10.5237     3.4666    -1.4080 H       
  38 H38           -7.6825     8.1019     0.9699 H       
  39 H39           -6.5106     6.9410     1.6386 H       
  40 H40           -6.6040     7.1982    -0.1202 H       
@<TRIPOS>BOND
   1    1    2 ar
   2    1   18 1
   3    1    6 ar
   4    2    3 ar
   5    2   25 1
   6    3    4 ar
   7    3   26 1
   8    4    5 ar
   9    4    7 1
  10    5    6 ar
  11    5    9 1
  12    6   27 1
  13    7    8 1
  14    8    9 2
  15    8   28 1
  16    9   10 1
  17   10   11 2
  18   10   12 1
  19   12   13 ar
  20   12   17 ar
  21   13   14 ar
  22   13   29 1
  23   14   15 ar
  24   14   23 1
  25   15   16 ar
  26   15   21 1
  27   16   17 ar
  28   16   19 1
  29   17   30 1
  30   18   31 1
  31   19   20 1
  32   20   32 1
  33   20   33 1
  34   20   34 1
  35   21   22 1
  36   22   35 1
  37   22   36 1
  38   22   37 1
  39   23   24 1
  40   24   38 1
  41   24   39 1
  42   24   40 1

#	End of record

