#	Name: ASD10410149
#	Creating user name:	WinNT
#	Creation time:	15. 06. 2019 21:27

#	Modifying user name:	WinNT
#	Modification time:	15. 06. 2019 21:27

#	Program:	/corina/corina34_cracker 3.40 0067  02.08.2006

@<TRIPOS>MOLECULE
ASD10410149
  71   77    0    0    0
SMALL
NO_CHARGES


@<TRIPOS>ATOM
   1 C1            -0.0477     1.3558    -0.1645 C.ar    
   2 C2            -0.0044    -0.0296    -0.1007 C.ar    
   3 C3             1.2212    -0.6848    -0.0412 C.ar    
   4 C4             2.3949     0.0448    -0.0456 C.ar    
   5 C5             2.3497     1.4318    -0.1095 C.ar    
   6 C6             1.1260     2.0847    -0.1689 C.ar    
   7 F7             1.2641    -2.0337     0.0214 F       
   8 N8             3.5388     2.1714    -0.1135 N.pl3   
   9 C9             4.6566     1.6880     0.5438 C.2     
  10 N10            5.8974     2.2565     0.5305 N.pl3   
  11 N11            4.7008     0.6088     1.2893 N.2     
  12 C12            5.9480     0.4443     1.7682 C.2     
  13 C13            6.7150     1.4562     1.3114 C.2     
  14 N14            6.3765    -0.5991     2.6026 N.pl3   
  15 N15           -1.1949    -0.7684    -0.0959 N.3     
  16 C16           -2.0322    -0.4104     1.0575 C.3     
  17 C17           -3.3539    -1.1786     0.9832 C.3     
  18 N18           -3.0781    -2.6220     0.9641 N.3     
  19 C19           -2.2407    -2.9800    -0.1892 C.3     
  20 C20           -0.9191    -2.2118    -0.1149 C.3     
  21 C21           -4.3262    -3.3966     0.9692 C.3     
  22 C22            6.2698     3.4168    -0.1395 C.ar    
  23 N23            5.9567     3.5630    -1.4033 N.ar    
  24 C24            6.2777     4.6512    -2.1229 C.ar    
  25 C25            6.9894     5.7240    -1.5406 C.ar    
  26 C26            7.3735     5.6294    -0.1281 C.ar    
  27 C27            7.0007     4.4613     0.5766 C.ar    
  28 C28           -4.0118    -4.9028     0.9828 C.3     
  29 C29           -4.6313    -5.4707     2.2764 C.3     
  30 C30           -5.7550    -4.4659     2.6323 C.3     
  31 C31           -5.1259    -3.1017     2.2551 C.3     
  32 C32            8.0752     6.6390     0.5266 C.ar    
  33 C33            8.4011     6.4857     1.8458 C.ar    
  34 C34            8.0414     5.3367     2.5391 C.ar    
  35 C35            7.3475     4.3333     1.9240 C.ar    
  36 C36            5.9090     4.7393    -3.4745 C.ar    
  37 C37            6.2385     5.8460    -4.1996 C.ar    
  38 C38            6.9389     6.8971    -3.6208 C.ar    
  39 C39            7.3129     6.8435    -2.3080 C.ar    
  40 H40           -0.9991     1.8643    -0.2152 H       
  41 H41            3.3468    -0.4632     0.0010 H       
  42 H42            1.0915     3.1630    -0.2186 H       
  43 H43            3.5789     3.0226    -0.5769 H       
  44 H44            7.7641     1.6119     1.5151 H       
  45 H45            5.7499    -1.2845     2.8829 H       
  46 H46            7.2993    -0.6352     2.8992 H       
  47 H47           -1.5119    -0.6703     1.9793 H       
  48 H48           -2.2330     0.6609     1.0426 H       
  49 H49           -3.9646    -0.9366     1.8529 H       
  50 H50           -3.8869    -0.8982     0.0747 H       
  51 H51           -2.0400    -4.0513    -0.1743 H       
  52 H52           -2.7611    -2.7201    -1.1111 H       
  53 H53           -0.3083    -2.4538    -0.9847 H       
  54 H54           -0.3861    -2.4922     0.7936 H       
  55 H55           -4.9234    -3.1477     0.0920 H       
  56 H56           -4.4571    -5.3850     0.1125 H       
  57 H57           -2.9330    -5.0590     0.9855 H       
  58 H58           -5.0484    -6.4615     2.0965 H       
  59 H59           -3.8868    -5.5078     3.0716 H       
  60 H60           -6.6475    -4.6576     2.0366 H       
  61 H61           -5.9845    -4.5042     3.6972 H       
  62 H62           -4.4612    -2.7562     3.0469 H       
  63 H63           -5.9039    -2.3638     2.0598 H       
  64 H64            8.3601     7.5357    -0.0036 H       
  65 H65            8.9452     7.2674     2.3550 H       
  66 H66            8.3102     5.2372     3.5804 H       
  67 H67            7.0735     3.4452     2.4740 H       
  68 H68            5.3649     3.9308    -3.9398 H       
  69 H69            5.9512     5.9062    -5.2390 H       
  70 H70            7.1902     7.7640    -4.2140 H       
  71 H71            7.8572     7.6648    -1.8656 H       
@<TRIPOS>BOND
   1    1    2 ar
   2    1    6 ar
   3    1   40 1
   4    2    3 ar
   5    2   15 1
   6    3    4 ar
   7    3    7 1
   8    4    5 ar
   9    4   41 1
  10    5    6 ar
  11    5    8 1
  12    6   42 1
  13    8    9 1
  14    8   43 1
  15    9   10 1
  16    9   11 2
  17   10   22 1
  18   10   13 1
  19   11   12 1
  20   12   13 2
  21   12   14 1
  22   13   44 1
  23   14   45 1
  24   14   46 1
  25   15   16 1
  26   15   20 1
  27   16   17 1
  28   16   47 1
  29   16   48 1
  30   17   18 1
  31   17   49 1
  32   17   50 1
  33   18   19 1
  34   18   21 1
  35   19   20 1
  36   19   51 1
  37   19   52 1
  38   20   53 1
  39   20   54 1
  40   21   28 1
  41   21   31 1
  42   21   55 1
  43   22   23 ar
  44   22   27 ar
  45   23   24 ar
  46   24   25 ar
  47   24   36 ar
  48   25   26 ar
  49   25   39 ar
  50   26   27 ar
  51   26   32 ar
  52   27   35 ar
  53   28   29 1
  54   28   56 1
  55   28   57 1
  56   29   30 1
  57   29   58 1
  58   29   59 1
  59   30   31 1
  60   30   60 1
  61   30   61 1
  62   31   62 1
  63   31   63 1
  64   32   33 ar
  65   32   64 1
  66   33   34 ar
  67   33   65 1
  68   34   35 ar
  69   34   66 1
  70   35   67 1
  71   36   37 ar
  72   36   68 1
  73   37   38 ar
  74   37   69 1
  75   38   39 ar
  76   38   70 1
  77   39   71 1

#	End of record

