#	Name: ASD10950074
#	Creating user name:	WinNT
#	Creation time:	15. 06. 2019 21:28

#	Modifying user name:	WinNT
#	Modification time:	15. 06. 2019 21:28

#	Program:	/corina/corina34_cracker 3.40 0067  02.08.2006

@<TRIPOS>MOLECULE
ASD10950074
  54   57    0    0    0
SMALL
NO_CHARGES


@<TRIPOS>ATOM
   1 C1            -2.2436     1.2855     0.5360 C.3     
   2 O2            -1.8449    -0.1066     0.4286 O.3     
   3 C3            -1.0581    -0.4388    -0.6132 C.2     
   4 O4            -0.7145     0.4111    -1.4101 O.2     
   5 C5            -0.6131    -1.8368    -0.7864 C.ar    
   6 C6             0.2024    -2.1846    -1.8651 C.ar    
   7 C7             0.6142    -3.4919    -2.0209 C.ar    
   8 C8             0.2210    -4.4575    -1.1112 C.ar    
   9 C9            -0.5871    -4.1197    -0.0400 C.ar    
  10 C10           -1.0015    -2.8151     0.1310 C.ar    
  11 C11            0.6745    -5.8837    -1.2882 C.3     
  12 N12            1.2004    -6.4068    -0.0219 N.am    
  13 C13            2.3454    -5.8748     0.7212 C.3     
  14 C14            1.8626    -4.8107     1.7089 C.3     
  15 C15            3.0404    -4.2635     2.4732 C.ar    
  16 C16            3.7446    -3.1662     2.0018 C.ar    
  17 C17            4.8192    -2.6919     2.7301 C.ar    
  18 N18            5.1764    -3.2707     3.8598 N.ar    
  19 C19            4.5301    -4.3158     4.3382 C.ar    
  20 C20            3.4421    -4.8419     3.6676 C.ar    
  21 C21            0.4452    -7.4611     0.3361 C.2     
  22 O22            0.6088    -8.1276     1.3386 O.2     
  23 C23           -0.6138    -7.6882    -0.6705 C.2     
  24 C24           -0.5007    -6.7611    -1.6513 C.2     
  25 C25           -1.3536    -6.6334    -2.8356 C.2     
  26 O26           -2.5236    -6.3248    -2.7120 O.2     
  27 C27           -0.7911    -6.8802    -4.1837 C.ar    
  28 C28           -1.5787    -6.7300    -5.3300 C.ar    
  29 C29           -1.0132    -6.9699    -6.5670 C.ar    
  30 N30            0.2488    -7.3353    -6.6751 N.ar    
  31 C31            1.0258    -7.4884    -5.6212 C.ar    
  32 C32            0.5442    -7.2642    -4.3463 C.ar    
  33 O33           -1.5463    -8.6665    -0.6203 O.3     
  34 H34           -1.3561     1.9116     0.6278 H       
  35 H35           -2.8008     1.5736    -0.3555 H       
  36 H36           -2.8732     1.4163     1.4161 H       
  37 H37            0.5098    -1.4319    -2.5760 H       
  38 H38            1.2448    -3.7623    -2.8549 H       
  39 H39           -0.8907    -4.8784     0.6661 H       
  40 H40           -1.6322    -2.5528     0.9675 H       
  41 H41            1.4389    -5.9400    -2.0632 H       
  42 H42            2.8317    -6.6833     1.2670 H       
  43 H43            3.0550    -5.4285     0.0245 H       
  44 H44            1.3763    -4.0022     1.1630 H       
  45 H45            1.1529    -5.2570     2.4056 H       
  46 H46            3.4573    -2.6883     1.0769 H       
  47 H47            5.3729    -1.8375     2.3697 H       
  48 H48            4.8522    -4.7635     5.2667 H       
  49 H49            2.9166    -5.6978     4.0646 H       
  50 H50           -2.6134    -6.4312    -5.2489 H       
  51 H51           -1.6132    -6.8570    -7.4579 H       
  52 H52            2.0542    -7.7892    -5.7568 H       
  53 H53            1.1865    -7.3913    -3.4874 H       
  54 H54           -1.4745    -9.2388     0.1559 H       
@<TRIPOS>BOND
   1    1    2 1
   2    1   34 1
   3    1   35 1
   4    1   36 1
   5    2    3 1
   6    3    4 2
   7    3    5 1
   8    5    6 ar
   9    5   10 ar
  10    6    7 ar
  11    6   37 1
  12    7    8 ar
  13    7   38 1
  14    8    9 ar
  15    8   11 1
  16    9   10 ar
  17    9   39 1
  18   10   40 1
  19   11   12 1
  20   11   24 1
  21   11   41 1
  22   12   13 1
  23   12   21 am
  24   13   14 1
  25   13   42 1
  26   13   43 1
  27   14   15 1
  28   14   44 1
  29   14   45 1
  30   15   16 ar
  31   15   20 ar
  32   16   17 ar
  33   16   46 1
  34   17   18 ar
  35   17   47 1
  36   18   19 ar
  37   19   20 ar
  38   19   48 1
  39   20   49 1
  40   21   22 2
  41   21   23 1
  42   23   24 2
  43   23   33 1
  44   24   25 1
  45   25   26 2
  46   25   27 1
  47   27   28 ar
  48   27   32 ar
  49   28   29 ar
  50   28   50 1
  51   29   30 ar
  52   29   51 1
  53   30   31 ar
  54   31   32 ar
  55   31   52 1
  56   32   53 1
  57   33   54 1

#	End of record

