#	Name: ASD11320006
#	Creating user name:	WinNT
#	Creation time:	15. 06. 2019 21:29

#	Modifying user name:	WinNT
#	Modification time:	15. 06. 2019 21:29

#	Program:	/corina/corina34_cracker 3.40 0067  02.08.2006

@<TRIPOS>MOLECULE
ASD11320006
  40   44    0    0    0
SMALL
NO_CHARGES


@<TRIPOS>ATOM
   1 Cl1            0.0632     0.0420    -0.6837 Cl      
   2 C2             0.0220     1.7652    -0.4771 C.ar    
   3 C3             1.2064     2.4835    -0.4328 C.ar    
   4 C4             1.1837     3.8537    -0.2688 C.ar    
   5 C5            -0.0303     4.5163    -0.1481 C.ar    
   6 C6            -1.2246     3.7927    -0.1931 C.ar    
   7 C7            -1.1913     2.4154    -0.3632 C.ar    
   8 N8            -2.2631     4.7048    -0.0487 N.am    
   9 C9            -3.6057     4.5564    -0.0195 C.2     
  10 O10           -4.1182     3.4560    -0.1326 O.2     
  11 C11           -4.4018     5.7201     0.1472 C.2     
  12 N12           -3.8051     6.8947     0.2665 N.2     
  13 N13           -2.5261     7.0026     0.2347 N.2     
  14 C14           -1.7307     5.9516     0.0815 C.2     
  15 N15           -0.3667     5.8545     0.0229 N.pl3   
  16 C16            0.5356     6.9203     0.1198 C.ar    
  17 C17            1.3842     7.0164     1.2150 C.ar    
  18 C18            2.2736     8.0689     1.3073 C.ar    
  19 C19            2.3198     9.0266     0.3108 C.ar    
  20 C20            1.4761     8.9338    -0.7811 C.ar    
  21 C21            0.5881     7.8809    -0.8820 C.ar    
  22 C22           -5.8786     5.6204     0.1864 C.ar    
  23 C23           -6.5310     4.6055    -0.5139 C.ar    
  24 C24           -7.9073     4.5176    -0.4730 C.ar    
  25 C25           -8.6403     5.4337     0.2602 C.ar    
  26 C26           -7.9992     6.4425     0.9570 C.ar    
  27 C27           -6.6230     6.5375     0.9286 C.ar    
  28 H28            2.1512     1.9688    -0.5266 H       
  29 H29            2.1090     4.4095    -0.2341 H       
  30 H30           -2.1122     1.8523    -0.3989 H       
  31 H31            1.3484     6.2690     1.9938 H       
  32 H32            2.9335     8.1444     2.1589 H       
  33 H33            3.0159     9.8489     0.3855 H       
  34 H34            1.5144     9.6835    -1.5575 H       
  35 H35           -0.0702     7.8088    -1.7351 H       
  36 H36           -5.9599     3.8902    -1.0873 H       
  37 H37           -8.4135     3.7324    -1.0148 H       
  38 H38           -9.7175     5.3612     0.2886 H       
  39 H39           -8.5769     7.1548     1.5273 H       
  40 H40           -6.1237     7.3254     1.4729 H       
@<TRIPOS>BOND
   1    1    2 1
   2    2    3 ar
   3    2    7 ar
   4    3    4 ar
   5    3   28 1
   6    4    5 ar
   7    4   29 1
   8    5    6 ar
   9    5   15 1
  10    6    7 ar
  11    6    8 1
  12    7   30 1
  13    8    9 am
  14    8   14 1
  15    9   10 2
  16    9   11 1
  17   11   12 2
  18   11   22 1
  19   12   13 1
  20   13   14 2
  21   14   15 1
  22   15   16 1
  23   16   17 ar
  24   16   21 ar
  25   17   18 ar
  26   17   31 1
  27   18   19 ar
  28   18   32 1
  29   19   20 ar
  30   19   33 1
  31   20   21 ar
  32   20   34 1
  33   21   35 1
  34   22   23 ar
  35   22   27 ar
  36   23   24 ar
  37   23   36 1
  38   24   25 ar
  39   24   37 1
  40   25   26 ar
  41   25   38 1
  42   26   27 ar
  43   26   39 1
  44   27   40 1

#	End of record

