#	Name: ASD10410017
#	Creating user name:	WinNT
#	Creation time:	15. 06. 2019 21:26

#	Modifying user name:	WinNT
#	Modification time:	15. 06. 2019 21:26

#	Program:	/corina/corina34_cracker 3.40 0067  02.08.2006

@<TRIPOS>MOLECULE
ASD10410017
  67   71    0    0    0
SMALL
NO_CHARGES


@<TRIPOS>ATOM
   1 C1            -1.0708     1.5535    -0.8027 C.ar    
   2 N2            -0.8253     0.2531    -0.8200 N.ar    
   3 C3             0.1615    -0.2411    -1.5644 C.ar    
   4 C4             0.9372     0.6367    -2.3302 C.ar    
   5 C5             0.6438     1.9896    -2.2808 C.ar    
   6 N6            -0.3535     2.4079    -1.5170 N.ar    
   7 N7            -2.1102     2.0337    -0.0205 N.pl3   
   8 C8            -2.3107     3.4114     0.1063 C.ar    
   9 C9            -3.5953     3.9364     0.0451 C.ar    
  10 C10           -3.7900     5.2978     0.1712 C.ar    
  11 C11           -2.7078     6.1382     0.3583 C.ar    
  12 C12           -1.4276     5.6188     0.4197 C.ar    
  13 C13           -1.2264     4.2578     0.2996 C.ar    
  14 C14           -2.9240     7.6233     0.4950 C.3     
  15 N15           -3.1192     7.9614     1.9112 N.3     
  16 C16           -3.0965     9.4168     2.1132 C.3     
  17 C17           -3.3818     9.7296     3.5839 C.3     
  18 N18           -2.3760     9.0681     4.4268 N.3     
  19 C19           -2.3987     7.6126     4.2248 C.3     
  20 C20           -2.1134     7.2999     2.7540 C.3     
  21 C21           -2.5712     9.4061     5.8430 C.3     
  22 C22            0.4347    -1.6980    -1.5816 C.ar    
  23 C23            0.5603    -2.4001    -0.3834 C.ar    
  24 C24            0.8145    -3.7555    -0.4043 C.ar    
  25 C25            0.9456    -4.4196    -1.6137 C.ar    
  26 C26            0.8216    -3.7260    -2.8068 C.ar    
  27 C27            0.5611    -2.3713    -2.7957 C.ar    
  28 S28            0.3950    -1.5569     1.1549 S.o2    
  29 O29            1.2982    -0.4608     1.1107 O.2     
  30 O30           -0.9996    -1.4063     1.3821 O.2     
  31 N31            0.9536    -2.5758     2.3348 N.am    
  32 C32            2.3250    -2.6038     2.8639 C.3     
  33 C33            2.3851    -3.7255     3.9221 C.3     
  34 C34            1.1965    -4.6408     3.5260 C.3     
  35 C35            0.1565    -3.6006     3.0331 C.3     
  36 F36            1.1955    -5.7472    -1.6294 F       
  37 F37            1.9482     0.1757    -3.0988 F       
  38 H38            1.2222     2.6952    -2.8586 H       
  39 H39           -2.6981     1.4137     0.4387 H       
  40 H40           -4.4408     3.2806    -0.1014 H       
  41 H41           -4.7885     5.7066     0.1233 H       
  42 H42           -0.5846     6.2779     0.5659 H       
  43 H43           -0.2268     3.8524     0.3517 H       
  44 H44           -2.0527     8.1541     0.1115 H       
  45 H45           -3.8069     7.9158    -0.0734 H       
  46 H46           -2.1152     9.8063     1.8423 H       
  47 H47           -3.8582     9.8826     1.4879 H       
  48 H48           -3.3369    10.8071     3.7419 H       
  49 H49           -4.3743     9.3641     3.8475 H       
  50 H50           -1.6370     7.1468     4.8500 H       
  51 H51           -3.3800     7.2232     4.4957 H       
  52 H52           -2.1583     6.2223     2.5960 H       
  53 H53           -1.1209     7.6653     2.4904 H       
  54 H54           -3.5619     9.0812     6.1609 H       
  55 H55           -1.8136     8.9035     6.4443 H       
  56 H56           -2.4829    10.4846     5.9746 H       
  57 H57            0.9119    -4.3001     0.5232 H       
  58 H58            0.9248    -4.2475    -3.7469 H       
  59 H59            0.4599    -1.8323    -3.7261 H       
  60 H60            3.0287    -2.8155     2.0589 H       
  61 H61            2.5639    -1.6456     3.3254 H       
  62 H62            3.3282    -4.2679     3.8560 H       
  63 H63            2.2420    -3.3192     4.9233 H       
  64 H64            1.4796    -5.3245     2.7258 H       
  65 H65            0.8198    -5.1879     4.3902 H       
  66 H66           -0.3721    -3.1594     3.8782 H       
  67 H67           -0.5487    -4.0667     2.3450 H       
@<TRIPOS>BOND
   1    1    2 ar
   2    1    6 ar
   3    1    7 1
   4    2    3 ar
   5    3    4 ar
   6    3   22 1
   7    4    5 ar
   8    4   37 1
   9    5    6 ar
  10    5   38 1
  11    7    8 1
  12    7   39 1
  13    8    9 ar
  14    8   13 ar
  15    9   10 ar
  16    9   40 1
  17   10   11 ar
  18   10   41 1
  19   11   12 ar
  20   11   14 1
  21   12   13 ar
  22   12   42 1
  23   13   43 1
  24   14   15 1
  25   14   44 1
  26   14   45 1
  27   15   16 1
  28   15   20 1
  29   16   17 1
  30   16   46 1
  31   16   47 1
  32   17   18 1
  33   17   48 1
  34   17   49 1
  35   18   19 1
  36   18   21 1
  37   19   20 1
  38   19   50 1
  39   19   51 1
  40   20   52 1
  41   20   53 1
  42   21   54 1
  43   21   55 1
  44   21   56 1
  45   22   23 ar
  46   22   27 ar
  47   23   24 ar
  48   23   28 1
  49   24   25 ar
  50   24   57 1
  51   25   26 ar
  52   25   36 1
  53   26   27 ar
  54   26   58 1
  55   27   59 1
  56   28   29 2
  57   28   30 2
  58   28   31 am
  59   31   32 1
  60   31   35 1
  61   32   33 1
  62   32   60 1
  63   32   61 1
  64   33   34 1
  65   33   62 1
  66   33   63 1
  67   34   35 1
  68   34   64 1
  69   34   65 1
  70   35   66 1
  71   35   67 1

#	End of record

