#	Name: ASD13680001
#	Creating user name:	WinNT
#	Creation time:	15. 06. 2019 21:30

#	Modifying user name:	WinNT
#	Modification time:	15. 06. 2019 21:30

#	Program:	/corina/corina34_cracker 3.40 0067  02.08.2006

@<TRIPOS>MOLECULE
ASD13680001
  28   29    0    0    0
SMALL
NO_CHARGES


@<TRIPOS>ATOM
   1 C1            -0.0185     1.5104     0.0103 C.3     
   2 C2             0.0021    -0.0041     0.0020 C.2     
   3 C3             0.7573    -0.7663     0.7969 C.2     
   4 C4             1.2824     1.1390     2.3215 C.3     
   5 C5             1.8922     2.2246     1.4373 C.3     
   6 C6             1.4095     2.0536    -0.0004 C.3     
   7 C7             1.7344    -0.2328     1.8302 C.3     
   8 C8             0.5462    -2.1877     0.5638 C.2     
   9 C9            -0.3655    -2.4467    -0.4208 C.2     
  10 S10           -0.9768    -0.9973    -1.0695 S.3     
  11 C11            1.2430    -3.2371     1.3106 C.2     
  12 N12            2.4192    -3.7169     0.8603 N.am    
  13 N13           -0.7389    -3.7117    -0.8334 N.pl3   
  14 O14            0.7599    -3.6761     2.3381 O.2     
  15 H15           -0.5487     1.8697    -0.8716 H       
  16 H16           -0.5317     1.8601     0.9061 H       
  17 H17            1.6105     1.2825     3.3510 H       
  18 H18            0.1952     1.2011     2.2751 H       
  19 H19            1.5903     3.2046     1.8067 H       
  20 H20            2.9790     2.1469     1.4659 H       
  21 H21            2.0616     1.3534    -0.5226 H       
  22 H22            1.4284     3.0180    -0.5080 H       
  23 H23            1.7803    -0.9216     2.6737 H       
  24 H24            2.7242    -0.1478     1.3815 H       
  25 H25            2.8042    -3.3671     0.0415 H       
  26 H26            2.8808    -4.4120     1.3549 H       
  27 H27           -1.3942    -3.8174    -1.5408 H       
  28 H28           -0.3458    -4.4939    -0.4156 H       
@<TRIPOS>BOND
   1    1    2 1
   2    1    6 1
   3    1   15 1
   4    1   16 1
   5    2    3 2
   6    2   10 1
   7    3    7 1
   8    3    8 1
   9    4    5 1
  10    4    7 1
  11    4   17 1
  12    4   18 1
  13    5    6 1
  14    5   19 1
  15    5   20 1
  16    6   21 1
  17    6   22 1
  18    7   23 1
  19    7   24 1
  20    8   11 1
  21    8    9 2
  22    9   10 1
  23    9   13 1
  24   11   12 am
  25   11   14 2
  26   12   25 1
  27   12   26 1
  28   13   27 1
  29   13   28 1

#	End of record

