#	Name: ASD11780002
#	Creating user name:	WinNT
#	Creation time:	15. 06. 2019 21:29

#	Modifying user name:	WinNT
#	Modification time:	15. 06. 2019 21:29

#	Program:	/corina/corina34_cracker 3.40 0067  02.08.2006

@<TRIPOS>MOLECULE
ASD11780002
  80   83    0    0    0
SMALL
NO_CHARGES


@<TRIPOS>ATOM
   1 O1            -0.0173     1.4248     0.0099 O.3     
   2 C2             0.0021    -0.0041     0.0020 C.3     
   3 C3             0.6933    -0.4966    -1.2721 C.3     
   4 C4             2.1083     0.0868    -1.3342 C.3     
   5 C5             2.0216     1.6150    -1.2734 C.3     
   6 C6             1.2791     2.0260     0.0007 C.3     
   7 O7             2.0158     1.5876     1.1441 O.3     
   8 C8             1.4652     2.0183     2.3904 C.3     
   9 O9             1.8484     2.7631     5.1131 O.3     
  10 C10            1.5436     3.7801     4.1566 C.3     
  11 C11            2.0798     3.3650     2.7840 C.3     
  12 C12            1.7857     0.9864     3.4761 C.3     
  13 C13            1.2609     1.4933     4.8219 C.3     
  14 O14            2.1553     5.0083     4.5557 O.3     
  15 C15            1.6411     5.5440     5.7766 C.3     
  16 C16            2.3646     6.8516     6.1045 C.3     
  17 C17            1.8223     7.4165     7.3921 C.ar    
  18 C18            0.8215     8.4578     9.7553 C.ar    
  19 C19            0.2438     8.8034     8.5441 C.ar    
  20 C20            0.7447     8.2821     7.3657 C.ar    
  21 C21            2.4000     7.0636     8.5975 C.ar    
  22 C22            1.9026     7.5821     9.7823 C.ar    
  23 O23            1.1561    -0.2557     3.1552 O.3     
  24 C24            1.7694    -1.3807     3.5783 C.2     
  25 C25            1.2001    -2.6478     3.2949 C.2     
  26 O26            2.8108    -1.3076     4.2027 O.2     
  27 C27            1.8142    -3.7742     3.7185 C.2     
  28 C28            1.2241    -5.0876     3.4248 C.ar    
  29 C29            0.0289    -5.1743     2.7014 C.ar    
  30 C30            1.8586    -6.2560     3.8627 C.ar    
  31 C31            1.2995    -7.4873     3.5832 C.ar    
  32 C32            0.1058    -7.5650     2.8666 C.ar    
  33 C33           -0.5217    -6.4066     2.4272 C.ar    
  34 O34            1.9134    -8.6245     4.0067 O.3     
  35 O35           -0.4420    -8.7773     2.5931 O.3     
  36 O36            1.7258     4.3531     1.8143 O.3     
  37 O37            0.7656    -1.9237    -1.2550 O.3     
  38 O38            2.7351    -0.3082    -2.5561 O.3     
  39 O39            1.3132     2.0989    -2.4162 O.3     
  40 O40            0.3303     8.9701    10.9153 O.3     
  41 O41            2.4729     7.2399    10.9685 O.3     
  42 C42            1.6300     0.4961     5.9220 C.3     
  43 C43           -1.4327    -0.5340     0.0416 C.3     
  44 O44            1.0424     0.9101     7.1570 O.3     
  45 H45            0.5473    -0.3650     0.8741 H       
  46 H46            0.1261    -0.1701    -2.1437 H       
  47 H47            2.6910    -0.2792    -0.4889 H       
  48 H48            3.0267     2.0366    -1.2613 H       
  49 H49            1.1769     3.1108     0.0280 H       
  50 H50            0.3844     2.1232     2.2948 H       
  51 H51            0.4633     3.9135     4.0997 H       
  52 H52            3.1647     3.2707     2.8301 H       
  53 H53            2.8647     0.8440     3.5362 H       
  54 H54            0.1769     1.5969     4.7737 H       
  55 H55            0.5738     5.7367     5.6678 H       
  56 H56            1.8007     4.8283     6.5831 H       
  57 H57            3.4319     6.6589     6.2134 H       
  58 H58            2.2050     7.5673     5.2981 H       
  59 H59           -0.5956     9.4826     8.5204 H       
  60 H60            0.2933     8.5520     6.4224 H       
  61 H61            3.2387     6.3834     8.6157 H       
  62 H62            0.2755    -2.7127     2.7405 H       
  63 H63            2.7388    -3.7093     4.2729 H       
  64 H64           -0.4616    -4.2751     2.3588 H       
  65 H65            2.7833    -6.1947     4.4173 H       
  66 H66           -1.4440    -6.4723     1.8690 H       
  67 H67            1.6352    -8.9180     4.8850 H       
  68 H68           -1.0567    -9.0928     3.2696 H       
  69 H69            2.0781     5.2336     2.0034 H       
  70 H70           -0.0960    -2.3606    -1.2112 H       
  71 H71            3.6359     0.0268    -2.6623 H       
  72 H72            1.2205     3.0611    -2.4431 H       
  73 H73           -0.3650     8.4329    11.3192 H       
  74 H74            2.0825     6.4575    11.3814 H       
  75 H75            1.2571    -0.4930     5.6558 H       
  76 H76            2.7140     0.4588     6.0298 H       
  77 H77           -1.9774    -0.1733    -0.8309 H       
  78 H78           -1.4177    -1.6239     0.0356 H       
  79 H79           -1.9250    -0.1824     0.9483 H       
  80 H80            1.2351     0.3228     7.9007 H       
@<TRIPOS>BOND
   1    1    2 1
   2    1    6 1
   3    2    3 1
   4    2   43 1
   5    2   45 1
   6    3    4 1
   7    3   37 1
   8    3   46 1
   9    4    5 1
  10    4   38 1
  11    4   47 1
  12    5    6 1
  13    5   39 1
  14    5   48 1
  15    6    7 1
  16    6   49 1
  17    7    8 1
  18    8   12 1
  19    8   11 1
  20    8   50 1
  21    9   10 1
  22    9   13 1
  23   10   11 1
  24   10   14 1
  25   10   51 1
  26   11   36 1
  27   11   52 1
  28   12   13 1
  29   12   23 1
  30   12   53 1
  31   13   42 1
  32   13   54 1
  33   14   15 1
  34   15   16 1
  35   15   55 1
  36   15   56 1
  37   16   17 1
  38   16   57 1
  39   16   58 1
  40   17   21 ar
  41   17   20 ar
  42   18   19 ar
  43   18   22 ar
  44   18   40 1
  45   19   20 ar
  46   19   59 1
  47   20   60 1
  48   21   22 ar
  49   21   61 1
  50   22   41 1
  51   23   24 1
  52   24   25 1
  53   24   26 2
  54   25   27 2
  55   25   62 1
  56   27   28 1
  57   27   63 1
  58   28   30 ar
  59   28   29 ar
  60   29   33 ar
  61   29   64 1
  62   30   31 ar
  63   30   65 1
  64   31   32 ar
  65   31   34 1
  66   32   33 ar
  67   32   35 1
  68   33   66 1
  69   34   67 1
  70   35   68 1
  71   36   69 1
  72   37   70 1
  73   38   71 1
  74   39   72 1
  75   40   73 1
  76   41   74 1
  77   42   44 1
  78   42   75 1
  79   42   76 1
  80   43   77 1
  81   43   78 1
  82   43   79 1
  83   44   80 1

#	End of record

