#	Name: ASD10160085
#	Creating user name:	WinNT
#	Creation time:	15. 06. 2019 21:25

#	Modifying user name:	WinNT
#	Modification time:	15. 06. 2019 21:25

#	Program:	/corina/corina34_cracker 3.40 0067  02.08.2006

@<TRIPOS>MOLECULE
ASD10160085
  43   44    0    0    0
SMALL
NO_CHARGES


@<TRIPOS>ATOM
   1 C1             0.3694     1.0965     1.9690 C.2     
   2 C2             0.2869    -0.2803     1.4426 C.ar    
   3 C3             1.3703    -0.8317     0.7609 C.ar    
   4 C4             1.2871    -2.1309     0.2664 C.ar    
   5 C5             0.1121    -2.8759     0.4585 C.ar    
   6 C6            -0.9612    -2.3162     1.1394 C.ar    
   7 C7            -0.8765    -1.0335     1.6332 C.ar    
   8 O8             1.3823     1.7494     1.8078 O.2     
   9 N9            -0.6803     1.6317     2.6235 N.am    
  10 S10           -0.5878     3.1761     3.2140 S.o2    
  11 O11           -1.8416     3.3838     3.8497 O.2     
  12 O12            0.6228     3.1950     3.9577 O.2     
  13 C13           -0.4433     4.2179     1.7360 C.3     
  14 C14            2.3954    -2.7049    -0.4357 C.1     
  15 N15            3.2745    -3.1603    -0.9926 N.1     
  16 O16            0.0255    -4.1403    -0.0209 O.3     
  17 C17           -1.4383    -5.5682     1.2017 C.ar    
  18 C18           -1.1663    -4.7852     0.0912 C.ar    
  19 C19           -2.1284    -4.6667    -0.9080 C.ar    
  20 C20           -3.3278    -5.3407    -0.7515 C.ar    
  21 C21           -3.5294    -6.1076     0.3897 C.ar    
  22 N22           -2.5925    -6.1969     1.3182 N.ar    
  23 O23           -4.7020    -6.7722     0.5533 O.3     
  24 C24           -4.8495    -7.5436     1.7471 C.3     
  25 C25           -6.3257    -7.5877     2.1468 C.3     
  26 C26           -4.3453    -8.9669     1.5002 C.3     
  27 Cl27          -4.5639    -5.2288    -1.9652 Cl      
  28 H28            2.2708    -0.2533     0.6162 H       
  29 H29           -1.8640    -2.8906     1.2858 H       
  30 H30           -1.7131    -0.6058     2.1656 H       
  31 H31           -1.4899     1.1122     2.7486 H       
  32 H32           -1.3199     4.0756     1.1040 H       
  33 H33           -0.3762     5.2641     2.0341 H       
  34 H34            0.4532     3.9398     1.1817 H       
  35 H35           -0.6951    -5.6686     1.9789 H       
  36 H36           -1.9438    -4.0630    -1.7843 H       
  37 H37           -4.2694    -7.0867     2.5489 H       
  38 H38           -6.9057    -8.0446     1.3450 H       
  39 H39           -6.4381    -8.1761     3.0574 H       
  40 H40           -6.6849    -6.5737     2.3227 H       
  41 H41           -4.4577    -9.5553     2.4108 H       
  42 H42           -4.9253    -9.4239     0.6984 H       
  43 H43           -3.2936    -8.9355     1.2155 H       
@<TRIPOS>BOND
   1    1    2 1
   2    1    8 2
   3    1    9 am
   4    2    3 ar
   5    2    7 ar
   6    3    4 ar
   7    3   28 1
   8    4    5 ar
   9    4   14 1
  10    5    6 ar
  11    5   16 1
  12    6    7 ar
  13    6   29 1
  14    7   30 1
  15    9   10 am
  16    9   31 1
  17   10   11 2
  18   10   12 2
  19   10   13 1
  20   13   32 1
  21   13   33 1
  22   13   34 1
  23   14   15 3
  24   16   18 1
  25   17   18 ar
  26   17   22 ar
  27   17   35 1
  28   18   19 ar
  29   19   20 ar
  30   19   36 1
  31   20   21 ar
  32   20   27 1
  33   21   22 ar
  34   21   23 1
  35   23   24 1
  36   24   25 1
  37   24   26 1
  38   24   37 1
  39   25   38 1
  40   25   39 1
  41   25   40 1
  42   26   41 1
  43   26   42 1
  44   26   43 1

#	End of record

