#	Name: ASD10160146
#	Creating user name:	WinNT
#	Creation time:	15. 06. 2019 21:25

#	Modifying user name:	WinNT
#	Modification time:	15. 06. 2019 21:25

#	Program:	/corina/corina34_cracker 3.40 0067  02.08.2006

@<TRIPOS>MOLECULE
ASD10160146
  49   50    0    0    0
SMALL
NO_CHARGES


@<TRIPOS>ATOM
   1 C1            -2.2893    -2.6670     4.8117 C.2     
   2 C2            -1.6802    -3.0751     3.5325 C.ar    
   3 C3            -0.3537    -3.5209     3.4970 C.ar    
   4 C4             0.2120    -3.9018     2.2969 C.ar    
   5 C5            -0.5326    -3.8428     1.1265 C.ar    
   6 C6            -1.8526    -3.3999     1.1576 C.ar    
   7 C7            -2.4277    -3.0235     2.3519 C.ar    
   8 O8            -1.6391    -2.7173     5.8381 O.2     
   9 N9            -3.5648    -2.2329     4.8426 N.am    
  10 S10           -4.2489    -1.7745     6.2794 S.o2    
  11 O11           -5.5781    -1.4096     5.9340 O.2     
  12 O12           -3.9922    -2.8651     7.1534 O.2     
  13 C13           -3.2996    -0.3146     6.7873 C.3     
  14 F14           -2.5723    -3.3447     0.0156 F       
  15 F15            0.3717    -3.5777     4.6354 F       
  16 O16            0.0278    -4.2175    -0.0515 O.3     
  17 C17            2.3849    -3.9000    -0.1831 C.ar    
  18 C18            1.2871    -4.7300    -0.0251 C.ar    
  19 C19            1.4883    -6.0953     0.1618 C.ar    
  20 C20            2.7868    -6.5736     0.1824 C.ar    
  21 C21            3.8408    -5.6800     0.0169 C.ar    
  22 N22            3.6106    -4.3886    -0.1579 N.ar    
  23 N23            5.1520    -6.1498     0.0359 N.3     
  24 C24            5.8018    -5.9498    -1.2663 C.3     
  25 C25            5.9235    -5.5142     1.1124 C.3     
  26 C26            7.2694    -6.2258     1.2640 C.3     
  27 C27            8.1227    -5.4882     2.2978 C.3     
  28 C28            7.0359    -7.6648     1.7287 C.3     
  29 Cl29           3.0969    -8.2661     0.4124 Cl      
  30 H30            1.2353    -4.2459     2.2682 H       
  31 H31           -3.4529    -2.6848     2.3754 H       
  32 H32           -4.0822    -2.1890     4.0233 H       
  33 H33           -3.3914     0.4611     6.0270 H       
  34 H34           -3.6864     0.0585     7.7356 H       
  35 H35           -2.2504    -0.5861     6.9044 H       
  36 H36            2.2357    -2.8409    -0.3329 H       
  37 H37            0.6505    -6.7651     0.2880 H       
  38 H38            5.9115    -4.8823    -1.4575 H       
  39 H39            6.7850    -6.4203    -1.2578 H       
  40 H40            5.1911    -6.3984    -2.0498 H       
  41 H41            6.0925    -4.4655     0.8678 H       
  42 H42            5.3680    -5.5842     2.0476 H       
  43 H43            7.7866    -6.2332     0.3046 H       
  44 H44            7.6054    -5.4808     3.2572 H       
  45 H45            9.0815    -5.9952     2.4059 H       
  46 H46            8.2890    -4.4631     1.9668 H       
  47 H47            6.5187    -7.6574     2.6881 H       
  48 H48            6.4280    -8.1903     0.9922 H       
  49 H49            7.9947    -8.1718     1.8367 H       
@<TRIPOS>BOND
   1    1    2 1
   2    1    8 2
   3    1    9 am
   4    2    3 ar
   5    2    7 ar
   6    3    4 ar
   7    3   15 1
   8    4    5 ar
   9    4   30 1
  10    5    6 ar
  11    5   16 1
  12    6    7 ar
  13    6   14 1
  14    7   31 1
  15    9   10 am
  16    9   32 1
  17   10   11 2
  18   10   12 2
  19   10   13 1
  20   13   33 1
  21   13   34 1
  22   13   35 1
  23   16   18 1
  24   17   18 ar
  25   17   22 ar
  26   17   36 1
  27   18   19 ar
  28   19   20 ar
  29   19   37 1
  30   20   21 ar
  31   20   29 1
  32   21   22 ar
  33   21   23 1
  34   23   24 1
  35   23   25 1
  36   24   38 1
  37   24   39 1
  38   24   40 1
  39   25   26 1
  40   25   41 1
  41   25   42 1
  42   26   27 1
  43   26   28 1
  44   26   43 1
  45   27   44 1
  46   27   45 1
  47   27   46 1
  48   28   47 1
  49   28   48 1
  50   28   49 1

#	End of record

