#	Name: ASD10160026
#	Creating user name:	WinNT
#	Creation time:	15. 06. 2019 21:25

#	Modifying user name:	WinNT
#	Modification time:	15. 06. 2019 21:25

#	Program:	/corina/corina34_cracker 3.40 0067  02.08.2006

@<TRIPOS>MOLECULE
ASD10160026
  43   44    0    0    0
SMALL
NO_CHARGES


@<TRIPOS>ATOM
   1 C1             0.0738     1.0285    -1.4473 C.ar    
   2 C2             0.0502    -0.1984    -0.7769 C.ar    
   3 C3             1.2906     1.6935    -1.6385 C.ar    
   4 C4             2.4611     1.1356    -1.1648 C.ar    
   5 C5             2.4322    -0.0828    -0.4998 C.ar    
   6 C6             1.2236    -0.7475    -0.3075 C.ar    
   7 C7            -1.1785     1.6169    -1.9566 C.2     
   8 N8            -2.3483     0.9722    -1.7763 N.am    
   9 O9            -1.1559     2.6840    -2.5394 O.2     
  10 S10           -3.7548     1.6332    -2.3483 S.o2    
  11 O11           -4.7604     0.7076    -1.9596 O.2     
  12 O12           -3.7479     2.9619    -1.8445 O.2     
  13 O13            3.5855    -0.6280    -0.0360 O.3     
  14 C14            4.7270     0.1022    -0.1481 C.ar    
  15 F15            1.2016    -1.9328     0.3403 F       
  16 C16            5.0989     0.9812     0.8605 C.ar    
  17 C17            5.5348    -0.0279    -1.2687 C.ar    
  18 N18            6.6458     0.6726    -1.3933 N.ar    
  19 C19            7.0404     1.5258    -0.4648 C.ar    
  20 C20            6.2819     1.7114     0.7010 C.ar    
  21 O21            8.1898     2.2233    -0.6374 O.3     
  22 F22            1.3195     2.8789    -2.2860 F       
  23 C23            6.7086     2.6358     1.7081 C.1     
  24 C24            8.9188     1.9846    -1.8431 C.3     
  25 N25            7.0471     3.3691     2.5069 N.1     
  26 C26           -3.5537     1.6349    -4.1511 C.3     
  27 C27            8.4416     2.9525    -2.9277 C.3     
  28 C28           10.4117     2.2006    -1.5877 C.3     
  29 H29           -0.8864    -0.7147    -0.6268 H       
  30 H30            3.4006     1.6475    -1.3121 H       
  31 H31           -2.3663     0.1211    -1.3114 H       
  32 H32            4.4906     1.0986     1.7451 H       
  33 H33            5.2494    -0.7144    -2.0521 H       
  34 H34            8.7511     0.9590    -2.1720 H       
  35 H35           -3.4123     0.6126    -4.5019 H       
  36 H36           -4.4441     2.0586    -4.6156 H       
  37 H37           -2.6838     2.2346    -4.4191 H       
  38 H38            8.6092     3.9781    -2.5987 H       
  39 H39            8.9976     2.7704    -3.8473 H       
  40 H40            7.3780     2.7986    -3.1096 H       
  41 H41           10.7517     1.5111    -0.8150 H       
  42 H42           10.9678     2.0185    -2.5074 H       
  43 H43           10.5794     3.2262    -1.2588 H       
@<TRIPOS>BOND
   1    1    2 ar
   2    1    3 ar
   3    1    7 1
   4    2    6 ar
   5    2   29 1
   6    3    4 ar
   7    3   22 1
   8    4    5 ar
   9    4   30 1
  10    5    6 ar
  11    5   13 1
  12    6   15 1
  13    7    8 am
  14    7    9 2
  15    8   10 am
  16    8   31 1
  17   10   11 2
  18   10   12 2
  19   10   26 1
  20   13   14 1
  21   14   16 ar
  22   14   17 ar
  23   16   20 ar
  24   16   32 1
  25   17   18 ar
  26   17   33 1
  27   18   19 ar
  28   19   20 ar
  29   19   21 1
  30   20   23 1
  31   21   24 1
  32   23   25 3
  33   24   27 1
  34   24   28 1
  35   24   34 1
  36   26   35 1
  37   26   36 1
  38   26   37 1
  39   27   38 1
  40   27   39 1
  41   27   40 1
  42   28   41 1
  43   28   42 1
  44   28   43 1

#	End of record

