#	Name: ASD14470003
#	Creating user name:	WinNT
#	Creation time:	15. 06. 2019 21:31

#	Modifying user name:	WinNT
#	Modification time:	15. 06. 2019 21:31

#	Program:	/corina/corina34_cracker 3.40 0067  02.08.2006

@<TRIPOS>MOLECULE
ASD14470003
  65   64    0    0    0
SMALL
NO_CHARGES


@<TRIPOS>ATOM
   1 O1             2.1953    -1.7657    -0.3623 O.3     
   2 C2             1.7887    -3.1222    -0.1705 C.3     
   3 C3             0.2618    -3.2084    -0.2180 C.3     
   4 O4            -0.2994    -2.4769     0.9037 O.3     
   5 C5            -0.4995    -3.1631     2.0399 C.2     
   6 C6            -1.0788    -2.4704     3.2464 C.3     
   7 C7            -1.2030    -3.4703     4.3978 C.3     
   8 C8            -1.7912    -2.7670     5.6227 C.3     
   9 C9            -1.9154    -3.7669     6.7741 C.3     
  10 C10           -2.5036    -3.0636     7.9990 C.3     
  11 C11           -2.6278    -4.0635     9.1505 C.3     
  12 C12           -3.2160    -3.3602    10.3754 C.3     
  13 C13           -3.3383    -4.3451    11.5095 C.2     
  14 C14           -2.8159    -4.0665    12.6781 C.2     
  15 C15           -2.2407    -2.6984    12.9395 C.3     
  16 C16           -2.8596    -2.1199    14.2136 C.3     
  17 C17           -2.2757    -0.7309    14.4790 C.3     
  18 C18           -2.8946    -0.1524    15.7531 C.3     
  19 C19           -2.3106     1.2367    16.0185 C.3     
  20 C20           -2.9295     1.8151    17.2926 C.3     
  21 C21           -2.3456     3.2042    17.5580 C.3     
  22 C22           -2.9645     3.7826    18.8321 C.3     
  23 O23           -0.2151    -4.3361     2.0953 O.2     
  24 C24           -0.2429    -2.5996    -1.5277 C.3     
  25 O25            0.2568    -1.2671    -1.6573 O.3     
  26 H26            3.1534    -1.6360    -0.3441 H       
  27 H27            2.2124    -3.7435    -0.9595 H       
  28 H28            2.1425    -3.4740     0.7986 H       
  29 H29           -0.0450    -4.2528    -0.1608 H       
  30 H30           -0.4237    -1.6520     3.5449 H       
  31 H31           -2.0645    -2.0755     3.0002 H       
  32 H32           -1.8581    -4.2887     4.0993 H       
  33 H33           -0.2174    -3.8652     4.6440 H       
  34 H34           -1.1361    -1.9486     5.9213 H       
  35 H35           -2.7769    -2.3721     5.3765 H       
  36 H36           -2.5705    -4.5853     6.4756 H       
  37 H37           -0.9298    -4.1618     7.0203 H       
  38 H38           -1.8485    -2.2452     8.2976 H       
  39 H39           -3.4893    -2.6687     7.7528 H       
  40 H40           -3.2829    -4.8819     8.8519 H       
  41 H41           -1.6421    -4.4584     9.3967 H       
  42 H42           -2.5609    -2.5418    10.6739 H       
  43 H43           -4.2017    -2.9653    10.1292 H       
  44 H44           -3.8567    -5.2805    11.3589 H       
  45 H45           -2.7974    -4.8174    13.4541 H       
  46 H46           -1.1605    -2.7759    13.0631 H       
  47 H47           -2.4640    -2.0434    12.0973 H       
  48 H48           -3.9398    -2.0424    14.0900 H       
  49 H49           -2.6363    -2.7749    15.0557 H       
  50 H50           -1.1955    -0.8084    14.6026 H       
  51 H51           -2.4989    -0.0759    13.6368 H       
  52 H52           -3.9748    -0.0749    15.6295 H       
  53 H53           -2.6713    -0.8074    16.5952 H       
  54 H54           -1.2304     1.1591    16.1421 H       
  55 H55           -2.5339     1.8916    15.1764 H       
  56 H56           -4.0097     1.8926    17.1690 H       
  57 H57           -2.7062     1.1601    18.1347 H       
  58 H58           -1.2654     3.1267    17.6816 H       
  59 H59           -2.5688     3.8592    16.7159 H       
  60 H60           -4.0446     3.8601    18.7085 H       
  61 H61           -2.7412     3.1276    19.6742 H       
  62 H62           -2.5484     4.7722    19.0212 H       
  63 H63            0.1062    -3.2017    -2.3666 H       
  64 H64           -1.3327    -2.5801    -1.5231 H       
  65 H65           -0.0240    -0.8187    -2.4668 H       
@<TRIPOS>BOND
   1    1    2 1
   2    1   26 1
   3    2    3 1
   4    2   27 1
   5    2   28 1
   6    3    4 1
   7    3   24 1
   8    3   29 1
   9    4    5 1
  10    5    6 1
  11    5   23 2
  12    6    7 1
  13    6   30 1
  14    6   31 1
  15    7    8 1
  16    7   32 1
  17    7   33 1
  18    8    9 1
  19    8   34 1
  20    8   35 1
  21    9   10 1
  22    9   36 1
  23    9   37 1
  24   10   11 1
  25   10   38 1
  26   10   39 1
  27   11   12 1
  28   11   40 1
  29   11   41 1
  30   12   13 1
  31   12   42 1
  32   12   43 1
  33   13   14 2
  34   13   44 1
  35   14   15 1
  36   14   45 1
  37   15   16 1
  38   15   46 1
  39   15   47 1
  40   16   17 1
  41   16   48 1
  42   16   49 1
  43   17   18 1
  44   17   50 1
  45   17   51 1
  46   18   19 1
  47   18   52 1
  48   18   53 1
  49   19   20 1
  50   19   54 1
  51   19   55 1
  52   20   21 1
  53   20   56 1
  54   20   57 1
  55   21   22 1
  56   21   58 1
  57   21   59 1
  58   22   60 1
  59   22   61 1
  60   22   62 1
  61   24   25 1
  62   24   63 1
  63   24   64 1
  64   25   65 1

#	End of record

