#	Name: ASD10490001
#	Creating user name:	WinNT
#	Creation time:	15. 06. 2019 21:27

#	Modifying user name:	WinNT
#	Modification time:	15. 06. 2019 21:27

#	Program:	/corina/corina34_cracker 3.40 0067  02.08.2006

@<TRIPOS>MOLECULE
ASD10490001
  31   31    0    0    0
SMALL
NO_CHARGES


@<TRIPOS>ATOM
   1 C1             0.0924     1.2382    -0.0157 C.ar    
   2 C2             0.1961    -0.1559     0.0103 C.ar    
   3 C3            -0.9425    -0.9297     0.0092 C.ar    
   4 C4            -2.1955    -0.3280    -0.0179 C.ar    
   5 C5            -2.3055     1.0582    -0.0443 C.ar    
   6 C6            -1.1705     1.8415    -0.0370 C.ar    
   7 C7             1.3101     2.0708    -0.0146 C.2     
   8 C8             1.7546     2.7249    -1.2541 C.2     
   9 C9             2.7880     3.5641    -1.2304 C.2     
  10 O10            1.9466     2.2163     1.0120 O.2     
  11 C11            1.0406     2.4453    -2.5515 C.3     
  12 C12            1.6224     1.1837    -3.1923 C.3     
  13 Cl13          -1.3075     3.5718    -0.0701 Cl      
  14 Cl14          -3.8732     1.8031    -0.0792 Cl      
  15 O15           -3.3147    -1.0956    -0.0189 O.3     
  16 C16           -3.1298    -2.5124     0.0086 C.3     
  17 C17           -4.4735    -3.1946     0.0031 C.2     
  18 O18           -5.4857    -2.5353    -0.0218 O.2     
  19 O19           -4.5459    -4.5347     0.0259 O.3     
  20 H20            1.1686    -0.6252     0.0310 H       
  21 H21           -0.8622    -2.0065     0.0289 H       
  22 H22            3.1145     4.0445    -2.1409 H       
  23 H23            3.2997     3.7645    -0.3006 H       
  24 H24           -0.0217     2.2973    -2.3570 H       
  25 H25            1.1719     3.2900    -3.2278 H       
  26 H26            2.6847     1.3318    -3.3867 H       
  27 H27            1.4912     0.3390    -2.5160 H       
  28 H28            1.1060     0.9815    -4.1306 H       
  29 H29           -2.5616    -2.8217    -0.8687 H       
  30 H30           -2.5849    -2.7902     0.9108 H       
  31 H31           -5.4298    -4.9268     0.0213 H       
@<TRIPOS>BOND
   1    1    2 ar
   2    1    7 1
   3    1    6 ar
   4    2    3 ar
   5    2   20 1
   6    3    4 ar
   7    3   21 1
   8    4    5 ar
   9    4   15 1
  10    5    6 ar
  11    5   14 1
  12    6   13 1
  13    7    8 1
  14    7   10 2
  15    8    9 2
  16    8   11 1
  17    9   22 1
  18    9   23 1
  19   11   12 1
  20   11   24 1
  21   11   25 1
  22   12   26 1
  23   12   27 1
  24   12   28 1
  25   15   16 1
  26   16   17 1
  27   16   29 1
  28   16   30 1
  29   17   18 2
  30   17   19 1
  31   19   31 1

#	End of record

