#	Name: ASD13370004
#	Creating user name:	WinNT
#	Creation time:	15. 06. 2019 21:30

#	Modifying user name:	WinNT
#	Modification time:	15. 06. 2019 21:30

#	Program:	/corina/corina34_cracker 3.40 0067  02.08.2006

@<TRIPOS>MOLECULE
ASD13370004
  81   82    0    0    0
SMALL
NO_CHARGES


@<TRIPOS>ATOM
   1 C1            -0.0120     1.5052    -0.0665 C.3     
   2 C2             0.0082    -0.0246    -0.0671 C.3     
   3 C3            -1.4274    -0.5536    -0.0539 C.3     
   4 C4            -1.4072    -2.0835    -0.0545 C.3     
   5 C5            -2.8428    -2.6124    -0.0413 C.3     
   6 C6            -2.8227    -4.1423    -0.0419 C.3     
   7 C7            -4.2583    -4.6713    -0.0286 C.3     
   8 C8            -4.2381    -6.2011    -0.0293 C.3     
   9 C9            -5.6737    -6.7301    -0.0160 C.3     
  10 C10           -5.6535    -8.2600    -0.0166 C.3     
  11 C11           -7.0891    -8.7889    -0.0034 C.3     
  12 C12           -7.0690   -10.3188    -0.0040 C.3     
  13 C13           -8.5046   -10.8478     0.0092 C.3     
  14 C14           -8.4844   -12.3776     0.0086 C.3     
  15 C15           -9.9200   -12.9066     0.0218 C.3     
  16 C16           -9.9001   -14.4135     0.0212 C.ar    
  17 C17           -9.7631   -16.5136     1.2139 C.ar    
  18 C18           -9.7801   -15.1118     1.2250 C.ar    
  19 C19          -10.0061   -15.1046    -1.1665 C.ar    
  20 C20           -9.9889   -16.4895    -1.1732 C.ar    
  21 C21           -9.8660   -17.1924     0.0092 C.ar    
  22 C22           -9.6714   -14.3786     2.5003 C.2     
  23 O23           -8.5781   -14.0629     2.9289 O.2     
  24 N24          -10.7839   -14.0586     3.1906 N.am    
  25 O25           -9.6470   -17.2027     2.3766 O.3     
  26 C26           -9.6369   -18.6289     2.2872 C.3     
  27 C27           -9.4998   -19.2268     3.6888 C.3     
  28 C28          -10.6774   -13.4633     4.4521 C.ar    
  29 C29           -9.5340   -13.2264     6.5467 C.ar    
  30 C30          -10.4666   -12.2855     6.9474 C.ar    
  31 C31          -11.5073   -11.9369     6.1049 C.ar    
  32 C32          -11.6149   -12.5232     4.8589 C.ar    
  33 C33           -9.6368   -13.8156     5.3021 C.ar    
  34 C34           -8.4018   -13.6037     7.4669 C.3     
  35 F35           -7.5970   -14.5651     6.8463 F       
  36 F36           -7.6357   -12.4687     7.7533 F       
  37 F37           -8.9217   -14.1275     8.6555 F       
  38 Cl38         -10.3346   -11.5471     8.5130 Cl      
  39 H39            1.0108     1.8821    -0.0759 H       
  40 H40           -0.5388     1.8620    -0.9515 H       
  41 H41           -0.5222     1.8615     0.8284 H       
  42 H42            0.5185    -0.3809    -0.9620 H       
  43 H43            0.5351    -0.3814     0.8179 H       
  44 H44           -1.9376    -0.1973     0.8410 H       
  45 H45           -1.9542    -0.1968    -0.9389 H       
  46 H46           -0.8970    -2.4398    -0.9494 H       
  47 H47           -0.8804    -2.4403     0.8305 H       
  48 H48           -3.3531    -2.2562     0.8536 H       
  49 H49           -3.3697    -2.2557    -0.9263 H       
  50 H50           -2.3124    -4.4986    -0.9368 H       
  51 H51           -2.2958    -4.4991     0.8431 H       
  52 H52           -4.7685    -4.3150     0.8662 H       
  53 H53           -4.7851    -4.3145    -0.9137 H       
  54 H54           -3.7278    -6.5574    -0.9241 H       
  55 H55           -3.7112    -6.5579     0.8557 H       
  56 H56           -6.1839    -6.3738     0.8789 H       
  57 H57           -6.2005    -6.3733    -0.9010 H       
  58 H58           -5.1433    -8.6163    -0.9115 H       
  59 H59           -5.1267    -8.6168     0.8684 H       
  60 H60           -7.5994    -8.4327     0.8915 H       
  61 H61           -7.6160    -8.4322    -0.8884 H       
  62 H62           -6.5587   -10.6751    -0.8989 H       
  63 H63           -6.5421   -10.6756     0.8810 H       
  64 H64           -9.0148   -10.4915     0.9041 H       
  65 H65           -9.0314   -10.4910    -0.8758 H       
  66 H66           -7.9741   -12.7339    -0.8863 H       
  67 H67           -7.9575   -12.7344     0.8936 H       
  68 H68          -10.4302   -12.5503     0.9167 H       
  69 H69          -10.4468   -12.5498    -0.8632 H       
  70 H70          -10.1033   -14.5637    -2.0963 H       
  71 H71          -10.0725   -17.0229    -2.1085 H       
  72 H72           -9.8533   -18.2722    -0.0041 H       
  73 H73          -11.6584   -14.2411     2.8127 H       
  74 H74          -10.5680   -18.9712     1.8355 H       
  75 H75           -8.7957   -18.9484     1.6720 H       
  76 H76           -8.5687   -18.8845     4.1404 H       
  77 H77          -10.3410   -18.9073     4.3040 H       
  78 H78           -9.4921   -20.3147     3.6206 H       
  79 H79          -12.2337   -11.2024     6.4201 H       
  80 H80          -12.4272   -12.2504     4.2016 H       
  81 H81           -8.9091   -14.5501     4.9900 H       
@<TRIPOS>BOND
   1    1    2 1
   2    1   39 1
   3    1   40 1
   4    1   41 1
   5    2    3 1
   6    2   42 1
   7    2   43 1
   8    3    4 1
   9    3   44 1
  10    3   45 1
  11    4    5 1
  12    4   46 1
  13    4   47 1
  14    5    6 1
  15    5   48 1
  16    5   49 1
  17    6    7 1
  18    6   50 1
  19    6   51 1
  20    7    8 1
  21    7   52 1
  22    7   53 1
  23    8    9 1
  24    8   54 1
  25    8   55 1
  26    9   10 1
  27    9   56 1
  28    9   57 1
  29   10   11 1
  30   10   58 1
  31   10   59 1
  32   11   12 1
  33   11   60 1
  34   11   61 1
  35   12   13 1
  36   12   62 1
  37   12   63 1
  38   13   14 1
  39   13   64 1
  40   13   65 1
  41   14   15 1
  42   14   66 1
  43   14   67 1
  44   15   16 1
  45   15   68 1
  46   15   69 1
  47   16   19 ar
  48   16   18 ar
  49   17   18 ar
  50   17   21 ar
  51   17   25 1
  52   18   22 1
  53   19   20 ar
  54   19   70 1
  55   20   21 ar
  56   20   71 1
  57   21   72 1
  58   22   23 2
  59   22   24 am
  60   24   28 1
  61   24   73 1
  62   25   26 1
  63   26   27 1
  64   26   74 1
  65   26   75 1
  66   27   76 1
  67   27   77 1
  68   27   78 1
  69   28   33 ar
  70   28   32 ar
  71   29   30 ar
  72   29   33 ar
  73   29   34 1
  74   30   31 ar
  75   30   38 1
  76   31   32 ar
  77   31   79 1
  78   32   80 1
  79   33   81 1
  80   34   35 1
  81   34   36 1
  82   34   37 1

#	End of record

