#	Name: ASD10420022
#	Creating user name:	WinNT
#	Creation time:	15. 06. 2019 21:27

#	Modifying user name:	WinNT
#	Modification time:	15. 06. 2019 21:27

#	Program:	/corina/corina34_cracker 3.40 0067  02.08.2006

@<TRIPOS>MOLECULE
ASD10420022
  61   65    0    0    0
SMALL
NO_CHARGES


@<TRIPOS>ATOM
   1 N1             0.0616     0.9504     1.6717 N.pl3   
   2 C2             0.0107    -0.2913     1.0981 C.2     
   3 C3            -1.1691    -0.3725     0.3364 C.2     
   4 C4            -1.8288     0.8493     0.4639 C.2     
   5 C5            -1.0584     1.6579     1.2843 C.2     
   6 C6             1.1144     1.2936     2.4696 C.2     
   7 C7             2.1170     0.4190     2.7043 C.2     
   8 C8             2.0897    -0.8597     2.1286 C.2     
   9 C9             1.0422    -1.2145     1.3308 C.2     
  10 C10           -1.3723     2.9851     1.6683 C.2     
  11 N11           -1.0357     4.0158     0.8677 N.am    
  12 C12           -1.2528     5.4061     1.2955 C.3     
  13 C13            0.0549     6.1828     1.1085 C.3     
  14 N14            0.5212     6.0243    -0.2754 N.3     
  15 C15            0.8341     4.6206    -0.5749 C.3     
  16 C16           -0.4360     3.7801    -0.4545 C.3     
  17 O17           -1.9464     3.1946     2.7219 O.2     
  18 C18           -3.1391     1.2245    -0.1789 C.3     
  19 C19           -4.2556     1.0517     0.8185 C.ar    
  20 C20           -4.7343     2.1448     1.5163 C.ar    
  21 C21           -5.7583     1.9863     2.4313 C.ar    
  22 C22           -6.3039     0.7348     2.6481 C.ar    
  23 C23           -5.8258    -0.3581     1.9496 C.ar    
  24 C24           -4.8047    -0.1989     1.0315 C.ar    
  25 C25           -4.1395     3.5091     1.2800 C.3     
  26 C26           -1.6256    -1.5387    -0.4539 C.ar    
  27 C27           -1.7989    -2.7780     0.1626 C.ar    
  28 C28           -2.2249    -3.8607    -0.5791 C.ar    
  29 C29           -2.4796    -3.7191    -1.9316 C.ar    
  30 C30           -2.3092    -2.4927    -2.5489 C.ar    
  31 C31           -1.8896    -1.4011    -1.8168 C.ar    
  32 C32           -4.2870    -1.3895     0.2664 C.3     
  33 H33            1.1465     2.2755     2.9182 H       
  34 H34            2.9433     0.7058     3.3378 H       
  35 H35            2.8919    -1.5580     2.3159 H       
  36 H36            1.0077    -2.1955     0.8806 H       
  37 H37           -2.0370     5.8579     0.6880 H       
  38 H38           -1.5429     5.4249     2.3460 H       
  39 H39           -0.1166     7.2390     1.3159 H       
  40 H40            0.8092     5.7950     1.7932 H       
  41 H41           -0.1542     6.3916    -0.9289 H       
  42 H42            1.2278     4.5440    -1.5884 H       
  43 H43            1.5776     4.2547     0.1332 H       
  44 H44           -0.1880     2.7242    -0.5628 H       
  45 H45           -1.1445     4.0740    -1.2289 H       
  46 H46           -3.0999     2.2642    -0.5038 H       
  47 H47           -3.3187     0.5811    -1.0402 H       
  48 H48           -6.1319     2.8401     2.9770 H       
  49 H49           -7.1035     0.6108     3.3634 H       
  50 H50           -6.2519    -1.3359     2.1193 H       
  51 H51           -4.7641     4.0610     0.5776 H       
  52 H52           -4.0878     4.0514     2.2240 H       
  53 H53           -3.1364     3.4016     0.8673 H       
  54 H54           -1.5996    -2.8899     1.2182 H       
  55 H55           -2.3594    -4.8206    -0.1029 H       
  56 H56           -2.8126    -4.5696    -2.5079 H       
  57 H57           -2.5093    -2.3886    -3.6050 H       
  58 H58           -1.7573    -0.4441    -2.2996 H       
  59 H59           -3.5243    -1.8972     0.8569 H       
  60 H60           -5.1083    -2.0772     0.0651 H       
  61 H61           -3.8537    -1.0551    -0.6763 H       
@<TRIPOS>BOND
   1    1    2 1
   2    1    6 1
   3    1    5 1
   4    2    3 2
   5    2    9 1
   6    3    4 1
   7    3   26 1
   8    4    5 2
   9    4   18 1
  10    5   10 1
  11    6    7 2
  12    6   33 1
  13    7    8 1
  14    7   34 1
  15    8    9 2
  16    8   35 1
  17    9   36 1
  18   10   11 am
  19   10   17 2
  20   11   12 1
  21   11   16 1
  22   12   13 1
  23   12   37 1
  24   12   38 1
  25   13   14 1
  26   13   39 1
  27   13   40 1
  28   14   15 1
  29   14   41 1
  30   15   16 1
  31   15   42 1
  32   15   43 1
  33   16   44 1
  34   16   45 1
  35   18   19 1
  36   18   46 1
  37   18   47 1
  38   19   20 ar
  39   19   24 ar
  40   20   21 ar
  41   20   25 1
  42   21   22 ar
  43   21   48 1
  44   22   23 ar
  45   22   49 1
  46   23   24 ar
  47   23   50 1
  48   24   32 1
  49   25   51 1
  50   25   52 1
  51   25   53 1
  52   26   27 ar
  53   26   31 ar
  54   27   28 ar
  55   27   54 1
  56   28   29 ar
  57   28   55 1
  58   29   30 ar
  59   29   56 1
  60   30   31 ar
  61   30   57 1
  62   31   58 1
  63   32   59 1
  64   32   60 1
  65   32   61 1

#	End of record

