#	Name: ASD10610183
#	Creating user name:	WinNT
#	Creation time:	15. 06. 2019 21:28

#	Modifying user name:	WinNT
#	Modification time:	15. 06. 2019 21:28

#	Program:	/corina/corina34_cracker 3.40 0067  02.08.2006

@<TRIPOS>MOLECULE
ASD10610183
  49   52    0    0    0
SMALL
NO_CHARGES


@<TRIPOS>ATOM
   1 O1            -0.0174     1.4293     0.0099 O.3     
   2 C2             0.0021    -0.0041     0.0020 C.3     
   3 C3             1.3600     0.0520     0.7127 C.3     
   4 C4             1.4159     1.4068    -0.0039 C.3     
   5 C5             1.2778     0.1407     2.2148 C.2     
   6 O6             0.2898     0.6068     2.7416 O.2     
   7 N7             2.3022    -0.2980     2.9729 N.am    
   8 C8             2.2223    -0.2117     4.4331 C.3     
   9 C9             2.6734     1.1779     4.8874 C.3     
  10 C10            3.1177    -1.2565     5.0478 C.ar    
  11 C11            2.6479    -2.0230     6.1021 C.ar    
  12 C12            3.4759    -2.9827     6.6630 C.ar    
  13 C13            4.7616    -3.1379     6.1366 C.ar    
  14 C14            5.1581    -2.3268     5.0749 C.ar    
  15 N15            4.3347    -1.4309     4.5705 N.ar    
  16 F16            1.3973    -1.8369     6.5781 F       
  17 C17            5.6887    -4.1490     6.6990 C.ar    
  18 C18            6.3523    -5.0475     5.8491 C.ar    
  19 C19            7.2218    -5.9933     6.3896 C.ar    
  20 C20            7.4262    -6.0420     7.7565 C.ar    
  21 C21            6.7707    -5.1548     8.5936 C.ar    
  22 C22            5.9097    -4.2081     8.0718 C.ar    
  23 N23            6.6815    -5.7678     3.4727 N.2     
  24 N24            6.2338    -5.4033     2.3206 N.pl3   
  25 N25            5.4158    -4.4211     2.4725 N.2     
  26 N26            5.3265    -4.1404     3.7283 N.2     
  27 C27            6.1291    -4.9912     4.3842 C.2     
  28 C28            6.5990    -6.0112     1.0387 C.3     
  29 F29            7.8642    -6.8622     5.5787 F       
  30 Cl30           7.0372    -5.2279    10.3075 Cl      
  31 N31            2.3403    -0.9324     0.2353 N.3     
  32 H32           -0.7857    -0.4509     0.6086 H       
  33 H33            0.0552    -0.4306    -0.9996 H       
  34 H34            1.8381     1.3486    -1.0071 H       
  35 H35            1.8669     2.1962     0.5974 H       
  36 H36            3.0924    -0.6707     2.5516 H       
  37 H37            1.1938    -0.3819     4.7514 H       
  38 H38            2.0257     1.9335     4.4429 H       
  39 H39            2.6139     1.2420     5.9739 H       
  40 H40            3.7019     1.3481     4.5692 H       
  41 H41            3.1367    -3.5945     7.4859 H       
  42 H42            6.1489    -2.4364     4.6593 H       
  43 H43            8.1002    -6.7759     8.1731 H       
  44 H44            5.4048    -3.5165     8.7301 H       
  45 H45            5.9105    -6.8257     0.8135 H       
  46 H46            6.5429    -5.2598     0.2511 H       
  47 H47            7.6154    -6.4005     1.0976 H       
  48 H48            3.2113    -0.8482     0.7376 H       
  49 H49            1.9733    -1.8699     0.3022 H       
@<TRIPOS>BOND
   1    1    2 1
   2    1    4 1
   3    2    3 1
   4    2   32 1
   5    2   33 1
   6    3    4 1
   7    3    5 1
   8    3   31 1
   9    4   34 1
  10    4   35 1
  11    5    6 2
  12    5    7 am
  13    7    8 1
  14    7   36 1
  15    8    9 1
  16    8   10 1
  17    8   37 1
  18    9   38 1
  19    9   39 1
  20    9   40 1
  21   10   11 ar
  22   10   15 ar
  23   11   12 ar
  24   11   16 1
  25   12   13 ar
  26   12   41 1
  27   13   14 ar
  28   13   17 1
  29   14   15 ar
  30   14   42 1
  31   17   18 ar
  32   17   22 ar
  33   18   19 ar
  34   18   27 1
  35   19   20 ar
  36   19   29 1
  37   20   21 ar
  38   20   43 1
  39   21   22 ar
  40   21   30 1
  41   22   44 1
  42   23   24 1
  43   23   27 2
  44   24   25 1
  45   24   28 1
  46   25   26 2
  47   26   27 1
  48   28   45 1
  49   28   46 1
  50   28   47 1
  51   31   48 1
  52   31   49 1

#	End of record

