#	Name: ASD15180001
#	Creating user name:	WinNT
#	Creation time:	15. 06. 2019 21:31

#	Modifying user name:	WinNT
#	Modification time:	15. 06. 2019 21:31

#	Program:	/corina/corina34_cracker 3.40 0067  02.08.2006

@<TRIPOS>MOLECULE
ASD15180001
  53   57    0    0    0
SMALL
NO_CHARGES


@<TRIPOS>ATOM
   1 C1            -0.0167     1.3794     0.0096 C.ar    
   2 C2             3.0517     2.9361    -1.4424 C.3     
   3 C3             0.9211     3.1837    -3.5824 C.3     
   4 C4             3.6064     2.7997    -2.8637 C.3     
   5 C5             0.7214     3.2694    -2.0660 C.3     
   6 C6             1.2800     2.1472     0.0014 C.3     
   7 C7             0.0021    -0.0041     0.0020 C.ar    
   8 C8            -1.1813    -0.7131     0.0091 C.ar    
   9 C9            -2.3995    -0.0315     0.0243 C.ar    
  10 C10           -2.4113     1.3644     0.0324 C.ar    
  11 C11           -1.2206     2.0611     0.0305 C.ar    
  12 C12           -3.6711    -0.7845     0.0315 C.2     
  13 C13           -3.9911    -1.5683     1.1039 C.2     
  14 C14           -5.1923    -2.2829     1.1155 C.2     
  15 C15           -6.0432    -2.1941     0.0529 C.2     
  16 C16           -5.7006    -1.3832    -1.0432 C.2     
  17 C17           -5.5789    -0.2607    -2.9001 C.2     
  18 C18           -7.0732    -0.1276    -4.7436 C.2     
  19 C19           -7.4387     0.4165    -6.1006 C.3     
  20 C20           -8.7646    -0.0413    -6.7115 C.3     
  21 C21           -8.6196     1.3862    -6.1783 C.3     
  22 O22            2.8903     3.4371    -5.3259 O.2     
  23 S23            2.5835     3.7991    -3.9864 S.o2    
  24 O24            2.6732     5.1616    -3.5931 O.2     
  25 N25            1.6881     2.4042    -1.3862 N.3     
  26 N26           -4.5240    -0.6890    -1.0323 N.pl3   
  27 N27           -4.4733     0.0199    -2.2407 N.2     
  28 N28           -5.9176     0.2435    -4.1577 N.am    
  29 O29           -7.8190    -0.8994    -4.1787 O.2     
  30 N30           -6.3153    -1.1095    -2.1897 N.2     
  31 H31            3.6857     2.3806    -0.7514 H       
  32 H32            3.0417     3.9884    -1.1585 H       
  33 H33            0.8262     2.1471    -3.9057 H       
  34 H34            0.1724     3.7960    -4.0850 H       
  35 H35            4.6356     3.1577    -2.8905 H       
  36 H36            3.5749     1.7540    -3.1697 H       
  37 H37            0.8651     4.2994    -1.7396 H       
  38 H38           -0.2899     2.9493    -1.8154 H       
  39 H39            1.1442     3.0954     0.5216 H       
  40 H40            2.0509     1.5638     0.5047 H       
  41 H41            0.9453    -0.5301    -0.0098 H       
  42 H42           -1.1653    -1.7929     0.0024 H       
  43 H43           -3.3503     1.8977     0.0439 H       
  44 H44           -1.2282     3.1410     0.0363 H       
  45 H45           -3.3150    -1.6361     1.9433 H       
  46 H46           -5.4457    -2.9033     1.9624 H       
  47 H47           -6.9732    -2.7432     0.0536 H       
  48 H48           -6.6032     0.5853    -6.7800 H       
  49 H49           -8.8016    -0.1731    -7.7929 H       
  50 H50           -9.3724    -0.7362    -6.1321 H       
  51 H51           -9.1323     1.6305    -5.2479 H       
  52 H52           -8.5612     2.1930    -6.9090 H       
  53 H53           -5.3211     0.8608    -4.6094 H       
@<TRIPOS>BOND
   1    1    7 ar
   2    1    6 1
   3    1   11 ar
   4    2   25 1
   5    2   31 1
   6    2   32 1
   7    2    4 1
   8    3   23 1
   9    3    5 1
  10    3   33 1
  11    3   34 1
  12    4   35 1
  13    4   36 1
  14    4   23 1
  15    5   25 1
  16    5   37 1
  17    5   38 1
  18    6   39 1
  19    6   40 1
  20    6   25 1
  21    7    8 ar
  22    7   41 1
  23    8   42 1
  24    8    9 ar
  25    9   12 1
  26    9   10 ar
  27   10   43 1
  28   10   11 ar
  29   11   44 1
  30   12   13 2
  31   12   26 1
  32   13   14 1
  33   13   45 1
  34   14   15 2
  35   14   46 1
  36   15   47 1
  37   15   16 1
  38   16   30 2
  39   16   26 1
  40   17   28 1
  41   17   30 1
  42   17   27 2
  43   18   19 1
  44   18   28 am
  45   18   29 2
  46   19   48 1
  47   19   20 1
  48   19   21 1
  49   20   49 1
  50   20   50 1
  51   20   21 1
  52   21   51 1
  53   21   52 1
  54   22   23 2
  55   23   24 2
  56   26   27 1
  57   28   53 1

#	End of record

