#	Name: ASD10800014
#	Creating user name:	WinNT
#	Creation time:	15. 06. 2019 21:28

#	Modifying user name:	WinNT
#	Modification time:	15. 06. 2019 21:28

#	Program:	/corina/corina34_cracker 3.40 0067  02.08.2006

@<TRIPOS>MOLECULE
ASD10800014
  54   57    0    0    0
SMALL
NO_CHARGES


@<TRIPOS>ATOM
   1 C1            -0.0096     1.4724     0.0892 C.2     
   2 C2             0.0061    -0.0047     0.0404 C.ar    
   3 C3             1.2157    -0.6855    -0.1187 C.ar    
   4 C4             1.2306    -2.0610    -0.1637 C.ar    
   5 C5             0.0358    -2.7767    -0.0502 C.ar    
   6 C6            -1.1736    -2.0959     0.1089 C.ar    
   7 C7            -1.1876    -0.7200     0.1592 C.ar    
   8 O8             1.0365     2.0914     0.0976 O.2     
   9 N9            -1.1839     2.1332     0.1187 N.am    
  10 C10           -1.1995     3.5973     0.1670 C.3     
  11 O11           -3.2897     3.7012     1.4262 O.3     
  12 C12           -2.6473     4.0913     0.1929 C.3     
  13 C13           -2.6886     5.6355     0.1976 C.3     
  14 C14           -3.8766     5.9765     1.1248 C.3     
  15 C15           -4.4126     4.5979     1.5705 C.3     
  16 C16            2.5042     0.0864    -0.2416 C.3     
  17 O17            0.7970    -6.3740    -0.2583 O.3     
  18 N18            1.0989    -4.9928    -0.2414 N.2     
  19 C19            0.0515    -4.2519    -0.0989 C.2     
  20 C20           -1.1604    -5.1577     0.0100 C.3     
  21 C21           -0.5235    -6.5384     0.2975 C.3     
  22 C22           -1.2855    -7.6533    -0.4217 C.3     
  23 F23           -0.6049    -8.8645    -0.2570 F       
  24 F24           -2.5710    -7.7635     0.1191 F       
  25 F25           -1.3772    -7.3515    -1.7846 F       
  26 C26           -0.4558    -6.8031     1.7795 C.ar    
  27 C27            0.6240    -7.4827     2.3112 C.ar    
  28 C28            0.6864    -7.7265     3.6717 C.ar    
  29 C29           -0.3318    -7.2896     4.4999 C.ar    
  30 C30           -1.4120    -6.6091     3.9672 C.ar    
  31 C31           -1.4708    -6.3614     2.6072 C.ar    
  32 Cl32          -2.6903    -6.0604     5.0057 Cl      
  33 Cl33           2.0421    -8.5810     4.3393 Cl      
  34 H34            2.1657    -2.5872    -0.2870 H       
  35 H35           -2.0972    -2.6488     0.1963 H       
  36 H36           -2.1221    -0.1938     0.2863 H       
  37 H37           -2.0187     1.6393     0.1080 H       
  38 H38           -0.6837     3.9367     1.0653 H       
  39 H39           -0.6954     3.9953    -0.7137 H       
  40 H40           -3.1970     3.6980    -0.6622 H       
  41 H41           -1.7607     6.0412     0.6010 H       
  42 H42           -2.8675     6.0159    -0.8080 H       
  43 H43           -3.5361     6.5507     1.9864 H       
  44 H44           -4.6429     6.5254     0.5775 H       
  45 H45           -5.2341     4.2839     0.9266 H       
  46 H46           -4.7372     4.6352     2.6104 H       
  47 H47            2.8686     0.3458     0.7524 H       
  48 H48            3.2472    -0.5260    -0.7525 H       
  49 H49            2.3288     0.9975    -0.8135 H       
  50 H50           -1.8019    -4.8482     0.8351 H       
  51 H51           -1.7157    -5.1755    -0.9277 H       
  52 H52            1.4189    -7.8237     1.6646 H       
  53 H53           -0.2836    -7.4799     5.5619 H       
  54 H54           -2.3121    -5.8266     2.1917 H       
@<TRIPOS>BOND
   1    1    2 1
   2    1    8 2
   3    1    9 am
   4    2    3 ar
   5    2    7 ar
   6    3    4 ar
   7    3   16 1
   8    4    5 ar
   9    4   34 1
  10    5    6 ar
  11    5   19 1
  12    6    7 ar
  13    6   35 1
  14    7   36 1
  15    9   10 1
  16    9   37 1
  17   10   12 1
  18   10   38 1
  19   10   39 1
  20   11   12 1
  21   11   15 1
  22   12   13 1
  23   12   40 1
  24   13   14 1
  25   13   41 1
  26   13   42 1
  27   14   15 1
  28   14   43 1
  29   14   44 1
  30   15   45 1
  31   15   46 1
  32   16   47 1
  33   16   48 1
  34   16   49 1
  35   17   18 1
  36   17   21 1
  37   18   19 2
  38   19   20 1
  39   20   21 1
  40   20   50 1
  41   20   51 1
  42   21   22 1
  43   21   26 1
  44   22   23 1
  45   22   24 1
  46   22   25 1
  47   26   27 ar
  48   26   31 ar
  49   27   28 ar
  50   27   52 1
  51   28   29 ar
  52   28   33 1
  53   29   30 ar
  54   29   53 1
  55   30   31 ar
  56   30   32 1
  57   31   54 1

#	End of record

