#	Name: ASD10160216
#	Creating user name:	WinNT
#	Creation time:	15. 06. 2019 21:25

#	Modifying user name:	WinNT
#	Modification time:	15. 06. 2019 21:25

#	Program:	/corina/corina34_cracker 3.40 0067  02.08.2006

@<TRIPOS>MOLECULE
ASD10160216
  45   46    0    0    0
SMALL
NO_CHARGES


@<TRIPOS>ATOM
   1 C1            -0.0242     1.4696    -0.1064 C.2     
   2 C2            -0.0024    -0.0045    -0.0843 C.ar    
   3 C3             0.0519    -0.6877     1.1363 C.ar    
   4 C4             0.0722    -2.0678     1.1518 C.ar    
   5 C5             0.0387    -2.7779    -0.0410 C.ar    
   6 C6            -0.0154    -2.1020    -1.2574 C.ar    
   7 C7            -0.0418    -0.7245    -1.2824 C.ar    
   8 O8             0.0050     2.0938     0.9368 O.2     
   9 N9            -0.0710     2.1253    -1.2830 N.am    
  10 S10           -0.0955     3.7809    -1.3077 S.o2    
  11 O11           -0.1698     4.1096    -2.6882 O.2     
  12 O12           -1.1440     4.1293    -0.4142 O.2     
  13 C13            1.5123     4.2677    -0.6231 C.3     
  14 F14           -0.0473    -2.7981    -2.4148 F       
  15 F15            0.0849     0.0026     2.2972 F       
  16 O16            0.0593    -4.1349    -0.0213 O.3     
  17 C17            3.6330    -5.9826    -0.3783 C.ar    
  18 N18            2.5468    -6.7126    -0.1743 N.ar    
  19 C19            1.3600    -6.1415    -0.0524 C.ar    
  20 C20            1.2627    -4.7570    -0.1412 C.ar    
  21 C21            2.4243    -4.0239    -0.3559 C.ar    
  22 N22            3.5774    -4.6626    -0.4682 N.ar    
  23 C23            0.1294    -6.9800     0.1791 C.3     
  24 N24            4.8604    -6.6163    -0.4952 N.pl3   
  25 C25            4.9441    -8.0753    -0.3928 C.3     
  26 C26            6.0737    -5.8270    -0.7211 C.3     
  27 C27            6.6892    -5.4411     0.6254 C.3     
  28 H28            0.1145    -2.5961     2.0928 H       
  29 H29           -0.0886    -0.2016    -2.2262 H       
  30 H30           -0.0903     1.6274    -2.1152 H       
  31 H31            2.3100     3.8631    -1.2461 H       
  32 H32            1.5839     5.3551    -0.6018 H       
  33 H33            1.6091     3.8773     0.3900 H       
  34 H34            2.3858    -2.9471    -0.4298 H       
  35 H35           -0.0271    -7.1075     1.2503 H       
  36 H36           -0.7365    -6.4828    -0.2580 H       
  37 H37            0.2618    -7.9561    -0.2874 H       
  38 H38            4.8273    -8.5163    -1.3827 H       
  39 H39            5.9142    -8.3556     0.0177 H       
  40 H40            4.1532    -8.4395     0.2628 H       
  41 H41            6.7902    -6.4175    -1.2922 H       
  42 H42            5.8215    -4.9242    -1.2774 H       
  43 H43            5.9727    -4.8507     1.1965 H       
  44 H44            6.9414    -6.3439     1.1817 H       
  45 H45            7.5919    -4.8539     0.4573 H       
@<TRIPOS>BOND
   1    1    2 1
   2    1    8 2
   3    1    9 am
   4    2    3 ar
   5    2    7 ar
   6    3    4 ar
   7    3   15 1
   8    4    5 ar
   9    4   28 1
  10    5    6 ar
  11    5   16 1
  12    6    7 ar
  13    6   14 1
  14    7   29 1
  15    9   10 am
  16    9   30 1
  17   10   11 2
  18   10   12 2
  19   10   13 1
  20   13   31 1
  21   13   32 1
  22   13   33 1
  23   16   20 1
  24   17   18 ar
  25   17   22 ar
  26   17   24 1
  27   18   19 ar
  28   19   20 ar
  29   19   23 1
  30   20   21 ar
  31   21   22 ar
  32   21   34 1
  33   23   35 1
  34   23   36 1
  35   23   37 1
  36   24   25 1
  37   24   26 1
  38   25   38 1
  39   25   39 1
  40   25   40 1
  41   26   27 1
  42   26   41 1
  43   26   42 1
  44   27   43 1
  45   27   44 1
  46   27   45 1

#	End of record

