#	Name: ASD11000080
#	Creating user name:	WinNT
#	Creation time:	15. 06. 2019 21:28

#	Modifying user name:	WinNT
#	Modification time:	15. 06. 2019 21:28

#	Program:	/corina/corina34_cracker 3.40 0067  02.08.2006

@<TRIPOS>MOLECULE
ASD11000080
  45   46    0    0    0
SMALL
NO_CHARGES


@<TRIPOS>ATOM
   1 C1            -0.0104     1.3680     0.0269 C.ar    
   2 C2             0.0043    -0.0147     0.0154 C.ar    
   3 C3            -1.1835    -0.7194     0.0172 C.ar    
   4 C4            -2.3934    -0.0379     0.0310 C.ar    
   5 C5            -2.4047     1.3507     0.0429 C.ar    
   6 C6            -1.2134     2.0495     0.0459 C.ar    
   7 N7            -3.5985    -0.7489     0.0324 N.am    
   8 C8            -3.6961    -1.9110    -0.6432 C.2     
   9 C9            -4.9529    -2.7368    -0.5444 C.3     
  10 C10           -4.8081    -4.0007    -1.4015 C.3     
  11 C11            1.2876     2.1338     0.0249 C.3     
  12 C12            2.0853     1.7820    -1.2324 C.3     
  13 C13            0.9939     3.6353     0.0391 C.3     
  14 C14            2.1013     1.7615     1.2660 C.3     
  15 C15           -6.1552    -4.7261    -1.4255 C.3     
  16 C16           -6.6861    -4.8768    -0.0300 C.2     
  17 C17           -6.2636    -4.1928     0.9845 C.2     
  18 C18           -5.1770    -3.1606     0.9088 C.3     
  19 C19           -4.4133    -3.6186    -2.8048 C.2     
  20 O20           -4.2297    -4.5707    -3.7331 O.3     
  21 O21           -4.2621    -2.4554    -3.0943 O.2     
  22 O22           -2.7725    -2.2922    -1.3307 O.2     
  23 H23            0.9456    -0.5440     0.0047 H       
  24 H24           -1.1713    -1.7993     0.0076 H       
  25 H25           -3.3441     1.8836     0.0537 H       
  26 H26           -1.2216     3.1295     0.0556 H       
  27 H27           -4.3638    -0.4054     0.5196 H       
  28 H28           -5.8037    -2.1523    -0.8943 H       
  29 H29           -4.0489    -4.6520    -0.9685 H       
  30 H30            1.5057     2.0472    -2.1165 H       
  31 H31            3.0241     2.3359    -1.2338 H       
  32 H32            2.2946     0.7123    -1.2425 H       
  33 H33            0.4256     3.8859     0.9348 H       
  34 H34            1.9327     4.1891     0.0377 H       
  35 H35            0.4142     3.9005    -0.8450 H       
  36 H36            2.3105     0.6918     1.2558 H       
  37 H37            3.0401     2.3154     1.2645 H       
  38 H38            1.5329     2.0121     2.1617 H       
  39 H39           -6.8643    -4.1518    -2.0218 H       
  40 H40           -6.0266    -5.7123    -1.8717 H       
  41 H41           -7.4696    -5.6009     0.1383 H       
  42 H42           -6.7220    -4.3761     1.9451 H       
  43 H43           -4.2535    -3.5781     1.3099 H       
  44 H44           -5.4638    -2.2901     1.4988 H       
  45 H45           -3.9771    -4.2770    -4.6191 H       
@<TRIPOS>BOND
   1    1    2 ar
   2    1   11 1
   3    1    6 ar
   4    2    3 ar
   5    2   23 1
   6    3    4 ar
   7    3   24 1
   8    4    5 ar
   9    4    7 1
  10    5    6 ar
  11    5   25 1
  12    6   26 1
  13    7    8 am
  14    7   27 1
  15    8    9 1
  16    8   22 2
  17    9   10 1
  18    9   18 1
  19    9   28 1
  20   10   15 1
  21   10   19 1
  22   10   29 1
  23   11   12 1
  24   11   13 1
  25   11   14 1
  26   12   30 1
  27   12   31 1
  28   12   32 1
  29   13   33 1
  30   13   34 1
  31   13   35 1
  32   14   36 1
  33   14   37 1
  34   14   38 1
  35   15   16 1
  36   15   39 1
  37   15   40 1
  38   16   17 2
  39   16   41 1
  40   17   18 1
  41   17   42 1
  42   18   43 1
  43   18   44 1
  44   19   20 1
  45   19   21 2
  46   20   45 1

#	End of record

