#	Name: ASD13680044
#	Creating user name:	WinNT
#	Creation time:	15. 06. 2019 21:30

#	Modifying user name:	WinNT
#	Modification time:	15. 06. 2019 21:30

#	Program:	/corina/corina34_cracker 3.40 0067  02.08.2006

@<TRIPOS>MOLECULE
ASD13680044
  60   62    0    0    0
SMALL
NO_CHARGES


@<TRIPOS>ATOM
   1 C1             0.6528     0.5743     0.3159 C.3     
   2 C2             0.7224    -0.9247     0.6143 C.3     
   3 C3             2.0694     1.1501     0.2634 C.3     
   4 C4            -0.0376     0.7945    -1.0316 C.3     
   5 C5            -0.0960    -0.1442     3.3091 C.2     
   6 C6             0.4722     1.0865     2.6505 C.3     
   7 O7            -0.9659    -0.7768     2.7587 O.2     
   8 O8             0.3643    -0.5374     4.5071 O.3     
   9 O9            -0.0904     1.2308     1.3448 O.3     
  10 C10            0.1367     2.2998     3.4789 C.2     
  11 C11            1.0810     2.9481     4.2689 C.2     
  12 C12            2.4863     2.5099     4.3658 C.2     
  13 C13            3.4953     3.1688     3.4710 C.3     
  14 C14            2.7825     1.5699     5.2336 C.2     
  15 C15            4.1687     1.0349     5.4453 C.3     
  16 C16            5.0634     1.4069     4.2610 C.3     
  17 C17            6.5213     1.0879     4.5981 C.3     
  18 C18            4.9103     2.9105     3.9928 C.3     
  19 C19            4.6361     0.6131     3.0248 C.3     
  20 C20            0.5860     4.0334     4.9498 C.2     
  21 S21           -1.1202     4.2277     4.5714 S.3     
  22 C22           -1.0833     2.8324     3.5035 C.2     
  23 C23           -2.2655     2.3111     2.7279 C.3     
  24 C24            1.3630     4.8990     5.8560 C.ar    
  25 C25            1.3038     6.2953     5.7459 C.ar    
  26 C26            2.0469     7.0656     6.6142 C.ar    
  27 N27            2.8057     6.5058     7.5379 N.ar    
  28 C28            2.8908     5.1958     7.6765 C.ar    
  29 C29            2.1774     4.3491     6.8558 C.ar    
  30 H30            1.2143    -1.0816     1.5743 H       
  31 H31           -0.2867    -1.3350     0.6518 H       
  32 H32            1.2893    -1.4255    -0.1705 H       
  33 H33            2.6362     0.6493    -0.5215 H       
  34 H34            2.0198     2.2180     0.0507 H       
  35 H35            2.5612     0.9932     1.2233 H       
  36 H36           -1.0467     0.3843    -0.9941 H       
  37 H37           -0.0871     1.8624    -1.2442 H       
  38 H38            0.5293     0.2937    -1.8164 H       
  39 H39            1.5549     0.9889     2.5709 H       
  40 H40           -0.0309    -1.3328     4.8897 H       
  41 H41            3.4026     2.7648     2.4629 H       
  42 H42            3.3111     4.2429     3.4482 H       
  43 H43            1.9819     1.1580     5.8300 H       
  44 H44            4.5842     1.4593     6.3593 H       
  45 H45            4.1268    -0.0502     5.5397 H       
  46 H46            6.6214     0.0228     4.8067 H       
  47 H47            7.1562     1.3538     3.7529 H       
  48 H48            6.8251     1.6600     5.4748 H       
  49 H49            5.6376     3.2249     3.2443 H       
  50 H50            5.0689     3.4655     4.9175 H       
  51 H51            3.5708     0.7613     2.8481 H       
  52 H52            5.1997     0.9589     2.1583 H       
  53 H53            4.8335    -0.4465     3.1873 H       
  54 H54           -2.8002     1.5769     3.3304 H       
  55 H55           -2.9334     3.1374     2.4847 H       
  56 H56           -1.9178     1.8420     1.8075 H       
  57 H57            0.6856     6.7601     4.9921 H       
  58 H58            2.0081     8.1421     6.5375 H       
  59 H59            3.5211     4.7820     8.4498 H       
  60 H60            2.2516     3.2783     6.9751 H       
@<TRIPOS>BOND
   1    1    2 1
   2    1    3 1
   3    1    4 1
   4    1    9 1
   5    2   30 1
   6    2   31 1
   7    2   32 1
   8    3   33 1
   9    3   34 1
  10    3   35 1
  11    4   36 1
  12    4   37 1
  13    4   38 1
  14    5    6 1
  15    5    7 2
  16    5    8 1
  17    6   10 1
  18    6    9 1
  19    6   39 1
  20    8   40 1
  21   10   22 2
  22   10   11 1
  23   11   20 2
  24   11   12 1
  25   12   13 1
  26   12   14 2
  27   13   41 1
  28   13   42 1
  29   13   18 1
  30   14   43 1
  31   14   15 1
  32   15   16 1
  33   15   44 1
  34   15   45 1
  35   16   19 1
  36   16   18 1
  37   16   17 1
  38   17   46 1
  39   17   47 1
  40   17   48 1
  41   18   49 1
  42   18   50 1
  43   19   51 1
  44   19   52 1
  45   19   53 1
  46   20   21 1
  47   20   24 1
  48   21   22 1
  49   22   23 1
  50   23   54 1
  51   23   55 1
  52   23   56 1
  53   24   25 ar
  54   24   29 ar
  55   25   57 1
  56   25   26 ar
  57   26   58 1
  58   26   27 ar
  59   27   28 ar
  60   28   29 ar
  61   28   59 1
  62   29   60 1

#	End of record

