#	Name: ASD10610106
#	Creating user name:	WinNT
#	Creation time:	15. 06. 2019 21:28

#	Modifying user name:	WinNT
#	Modification time:	15. 06. 2019 21:28

#	Program:	/corina/corina34_cracker 3.40 0067  02.08.2006

@<TRIPOS>MOLECULE
ASD10610106
  19   19    0    0    0
SMALL
NO_CHARGES


@<TRIPOS>ATOM
   1 C1            -0.0328     1.5210     0.0135 C.3     
   2 C2             0.1312     0.0004    -0.0312 C.3     
   3 C3             1.3665     0.9020     0.0127 C.3     
   4 C4            -0.4901     2.2089    -1.2469 C.2     
   5 O5            -0.2967     1.6917    -2.3217 O.2     
   6 O6            -1.1122     3.3961    -1.1757 O.3     
   7 N7            -0.5096     2.1134     1.2656 N.am    
   8 C8            -1.7523     1.8400     1.7101 C.2     
   9 O9            -2.5076     1.1783     1.0302 O.2     
  10 C10           -2.2031     2.3567     3.0521 C.3     
  11 F11           -3.5190     1.9466     3.2916 F       
  12 F12           -1.3670     1.8487     4.0522 F       
  13 F13           -2.1418     3.7543     3.0583 F       
  14 H14           -0.1158    -0.5591     0.8710 H       
  15 H15           -0.0918    -0.5024    -0.9723 H       
  16 H16            1.9563     0.9924    -0.8995 H       
  17 H17            1.9322     0.9357     0.9438 H       
  18 H18           -1.3870     3.7986    -2.0109 H       
  19 H19            0.0690     2.7024     1.7747 H       
@<TRIPOS>BOND
   1    1    2 1
   2    1    3 1
   3    1    4 1
   4    1    7 1
   5    2    3 1
   6    2   14 1
   7    2   15 1
   8    3   16 1
   9    3   17 1
  10    4    5 2
  11    4    6 1
  12    6   18 1
  13    7    8 am
  14    7   19 1
  15    8    9 2
  16    8   10 1
  17   10   11 1
  18   10   12 1
  19   10   13 1

#	End of record

