#	Name: ASD14300011
#	Creating user name:	WinNT
#	Creation time:	15. 06. 2019 21:31

#	Modifying user name:	WinNT
#	Modification time:	15. 06. 2019 21:31

#	Program:	/corina/corina34_cracker 3.40 0067  02.08.2006

@<TRIPOS>MOLECULE
ASD14300011
  77   80    0    0    0
SMALL
NO_CHARGES


@<TRIPOS>ATOM
   1 N1             2.1211     0.6126    -0.0425 N.pl3   
   2 C2             1.1367    -0.3263    -0.0908 C.2     
   3 C3            -0.0579     0.2959     0.0348 C.2     
   4 C4             0.1868     1.6699     0.1660 C.2     
   5 C5             1.5392     1.8488     0.1162 C.2     
   6 C6             2.2493     3.1369     0.2159 C.ar    
   7 N7             3.5772     3.1597     0.3321 N.ar    
   8 C8             4.2155     4.3214     0.4213 C.ar    
   9 N9             3.5307     5.4610     0.3947 N.ar    
  10 C10            2.2065     5.4402     0.2789 C.ar    
  11 N11            1.5651     4.2803     0.1844 N.ar    
  12 N12            1.4978     6.6244     0.2521 N.pl3   
  13 N13            5.5903     4.3456     0.5421 N.3     
  14 C14            6.1152     3.0501     0.5506 C.3     
  15 C15            8.4133     3.4725    -0.2959 C.3     
  16 C16            6.1933     5.2504    -0.4565 C.3     
  17 C17            7.4685     5.8063     0.1263 C.3     
  18 C18            8.6955     4.9882    -0.3110 C.3     
  19 C19            0.0529     6.6081     0.0108 C.3     
  20 C20            2.1906     7.8976     0.4648 C.3     
  21 C21            7.6171     3.0432     0.9101 C.3     
  22 C22           -0.6877     6.6100     1.3496 C.3     
  23 C23           -2.1908     6.4689     1.1011 C.3     
  24 C24           -2.9202     6.3488     2.4407 C.3     
  25 C25            2.6675     8.4497    -0.8801 C.3     
  26 C26            3.3910     9.7794    -0.6579 C.3     
  27 C27            3.8678    10.3315    -2.0028 C.3     
  28 C28            3.4965     0.3613    -0.1331 C.ar    
  29 C29            6.2127    -0.1343    -0.3116 C.ar    
  30 C30            5.6025     0.7034    -1.2271 C.ar    
  31 C31            4.2468     0.9527    -1.1406 C.ar    
  32 C32            4.1130    -0.4752     0.7878 C.ar    
  33 C33            5.4691    -0.7206     0.6961 C.ar    
  34 C34            6.1379    -1.6333     1.6915 C.3     
  35 C35            6.4165     1.3404    -2.3238 C.3     
  36 H36            1.2845    -1.3895    -0.2097 H       
  37 H37           -1.0270    -0.1807     0.0337 H       
  38 H38           -0.5571     2.4439     0.2841 H       
  39 H39            5.5721     2.4515     1.2819 H       
  40 H40            5.9842     2.6072    -0.4367 H       
  41 H41            7.8587     3.2085    -1.1963 H       
  42 H42            9.3629     2.9374    -0.2998 H       
  43 H43            6.4161     4.6965    -1.3684 H       
  44 H44            5.5042     6.0652    -0.6788 H       
  45 H45            7.5915     6.8372    -0.2056 H       
  46 H46            7.3992     5.7899     1.2140 H       
  47 H47            9.5232     5.2015     0.3653 H       
  48 H48            8.9787     5.2860    -1.3205 H       
  49 H49           -0.2298     7.4913    -0.5621 H       
  50 H50           -0.2118     5.7114    -0.5496 H       
  51 H51            1.5079     8.6097     0.9284 H       
  52 H52            3.0490     7.7395     1.1176 H       
  53 H53            7.7984     3.7355     1.7322 H       
  54 H54            7.9166     2.0377     1.2057 H       
  55 H55           -0.3402     5.7752     1.9583 H       
  56 H56           -0.4921     7.5466     1.8717 H       
  57 H57           -2.5547     7.3465     0.5667 H       
  58 H58           -2.3782     5.5764     0.5041 H       
  59 H59           -2.4959     5.5237     3.0127 H       
  60 H60           -2.8053     7.2765     3.0014 H       
  61 H61           -3.9789     6.1608     2.2624 H       
  62 H62            3.3502     7.7376    -1.3436 H       
  63 H63            1.8090     8.6078    -1.5329 H       
  64 H64            2.7082    10.4915    -0.1943 H       
  65 H65            4.2494     9.6213    -0.0050 H       
  66 H66            4.3833    11.2788    -1.8445 H       
  67 H67            4.5506     9.6194    -2.4663 H       
  68 H68            3.0094    10.4896    -2.6556 H       
  69 H69            7.2729    -0.3280    -0.3815 H       
  70 H70            3.7707     1.6068    -1.8562 H       
  71 H71            3.5328    -0.9332     1.5753 H       
  72 H72            6.4904    -1.0484     2.5410 H       
  73 H73            5.4233    -2.3807     2.0364 H       
  74 H74            6.9836    -2.1310     1.2170 H       
  75 H75            6.3486     0.7329    -3.2262 H       
  76 H76            6.0317     2.3394    -2.5284 H       
  77 H77            7.4581     1.4095    -2.0098 H       
@<TRIPOS>BOND
   1    1    2 1
   2    1    5 1
   3    1   28 1
   4    2    3 2
   5    2   36 1
   6    3    4 1
   7    3   37 1
   8    4    5 2
   9    4   38 1
  10    5    6 1
  11    6    7 ar
  12    6   11 ar
  13    7    8 ar
  14    8    9 ar
  15    8   13 1
  16    9   10 ar
  17   10   11 ar
  18   10   12 1
  19   12   19 1
  20   12   20 1
  21   13   14 1
  22   13   16 1
  23   14   21 1
  24   14   39 1
  25   14   40 1
  26   15   18 1
  27   15   21 1
  28   15   41 1
  29   15   42 1
  30   16   17 1
  31   16   43 1
  32   16   44 1
  33   17   18 1
  34   17   45 1
  35   17   46 1
  36   18   47 1
  37   18   48 1
  38   19   22 1
  39   19   49 1
  40   19   50 1
  41   20   25 1
  42   20   51 1
  43   20   52 1
  44   21   53 1
  45   21   54 1
  46   22   23 1
  47   22   55 1
  48   22   56 1
  49   23   24 1
  50   23   57 1
  51   23   58 1
  52   24   59 1
  53   24   60 1
  54   24   61 1
  55   25   26 1
  56   25   62 1
  57   25   63 1
  58   26   27 1
  59   26   64 1
  60   26   65 1
  61   27   66 1
  62   27   67 1
  63   27   68 1
  64   28   32 ar
  65   28   31 ar
  66   29   30 ar
  67   29   33 ar
  68   29   69 1
  69   30   31 ar
  70   30   35 1
  71   31   70 1
  72   32   33 ar
  73   32   71 1
  74   33   34 1
  75   34   72 1
  76   34   73 1
  77   34   74 1
  78   35   75 1
  79   35   76 1
  80   35   77 1

#	End of record

