#	Name: ASD12970014
#	Creating user name:	WinNT
#	Creation time:	15. 06. 2019 21:30

#	Modifying user name:	WinNT
#	Modification time:	15. 06. 2019 21:30

#	Program:	/corina/corina34_cracker 3.40 0067  02.08.2006

@<TRIPOS>MOLECULE
ASD12970014
  18   17    0    0    0
SMALL
NO_CHARGES


@<TRIPOS>ATOM
   1 C1            -0.0187     1.5258     0.0104 C.3     
   2 C2             0.0021    -0.0041     0.0020 C.3     
   3 C3             0.7182    -0.4975    -1.2568 C.3     
   4 C4             0.7421    -0.5109     1.2415 C.3     
   5 C5            -0.0892    -0.0968    -2.4931 C.3     
   6 O6             0.5796    -0.5577    -3.6688 O.3     
   7 H7             1.0039     1.9031     0.0027 H       
   8 H8            -0.5459     1.8868    -0.8726 H       
   9 H9            -0.5289     1.8773     0.9072 H       
  10 H10           -1.0205    -0.3814     0.0098 H       
  11 H11            1.7103    -0.0491    -1.3098 H       
  12 H12            0.8116    -1.5829    -1.2198 H       
  13 H13            0.2319    -0.1594     2.1383 H       
  14 H14            0.7568    -1.6008     1.2356 H       
  15 H15            1.7647    -0.1336     1.2338 H       
  16 H16           -1.0813    -0.5452    -2.4401 H       
  17 H17           -0.1826     0.9885    -2.5300 H       
  18 H18            0.1230    -0.3384    -4.4925 H       
@<TRIPOS>BOND
   1    1    2 1
   2    1    7 1
   3    1    8 1
   4    1    9 1
   5    2    3 1
   6    2    4 1
   7    2   10 1
   8    3    5 1
   9    3   11 1
  10    3   12 1
  11    4   13 1
  12    4   14 1
  13    4   15 1
  14    5    6 1
  15    5   16 1
  16    5   17 1
  17    6   18 1

#	End of record

