#	Name: ASD14970001
#	Creating user name:	WinNT
#	Creation time:	15. 06. 2019 21:31

#	Modifying user name:	WinNT
#	Modification time:	15. 06. 2019 21:31

#	Program:	/corina/corina34_cracker 3.40 0067  02.08.2006

@<TRIPOS>MOLECULE
ASD14970001
  39   40    0    0    0
SMALL
NO_CHARGES


@<TRIPOS>ATOM
   1 C1             0.0577     1.3389    -0.2111 C.ar    
   2 C2             0.1124    -0.0407    -0.2388 C.ar    
   3 C3             1.3279    -0.6902    -0.0816 C.ar    
   4 C4             2.4892     0.0455     0.1035 C.ar    
   5 C5             2.4358     1.4251     0.1318 C.ar    
   6 C6             1.2196     2.0758    -0.0259 C.ar    
   7 O7             1.3810    -2.0487    -0.1085 O.3     
   8 C8             0.1355    -2.7453    -0.1824 C.3     
   9 C9            -0.3038    -2.8510    -1.6442 C.3     
  10 C10            0.3008    -4.1491     0.4032 C.3     
  11 N11            1.1649     3.4760     0.0018 N.am    
  12 C12            0.0814     4.0981     0.5073 C.2     
  13 N13           -0.0177     5.4405     0.4395 N.am    
  14 O14           -0.8067     3.4483     1.0245 O.2     
  15 C15           -1.1954     6.1168     0.9889 C.3     
  16 C16           -1.0604     7.6041     0.7871 C.2     
  17 C17           -0.5697     8.4824     1.6850 C.2     
  18 N18           -1.4078     8.2929    -0.3371 N.pl3   
  19 C19           -1.1377     9.6149    -0.1414 C.2     
  20 C20           -0.6208     9.7610     1.0955 C.2     
  21 H21           -0.8882     1.8446    -0.3380 H       
  22 H22           -0.7915    -0.6141    -0.3825 H       
  23 H23            3.4353    -0.4608     0.2258 H       
  24 H24            3.3400     1.9978     0.2763 H       
  25 H25           -0.6193    -2.2013     0.3854 H       
  26 H26           -0.4215    -1.8509    -2.0614 H       
  27 H27            0.4510    -3.3950    -2.2120 H       
  28 H28           -1.2538    -3.3823    -1.7005 H       
  29 H29            0.6138    -4.0739     1.4446 H       
  30 H30           -0.6492    -4.6805     0.3468 H       
  31 H31            1.0556    -4.6931    -0.1646 H       
  32 H32            1.9067     3.9973    -0.3428 H       
  33 H33            0.6908     5.9589     0.0268 H       
  34 H34           -2.0901     5.7606     0.4783 H       
  35 H35           -1.2746     5.9004     2.0543 H       
  36 H36           -0.2047     8.2487     2.6742 H       
  37 H37           -1.7846     7.9063    -1.1430 H       
  38 H38           -1.3060    10.4079    -0.8550 H       
  39 H39           -0.3020    10.6876     1.5498 H       
@<TRIPOS>BOND
   1    1    2 ar
   2    1    6 ar
   3    1   21 1
   4    2    3 ar
   5    2   22 1
   6    3    4 ar
   7    3    7 1
   8    4    5 ar
   9    4   23 1
  10    5    6 ar
  11    5   24 1
  12    6   11 1
  13    7    8 1
  14    8    9 1
  15    8   10 1
  16    8   25 1
  17    9   26 1
  18    9   27 1
  19    9   28 1
  20   10   29 1
  21   10   30 1
  22   10   31 1
  23   11   12 am
  24   11   32 1
  25   12   13 am
  26   12   14 2
  27   13   15 1
  28   13   33 1
  29   15   16 1
  30   15   34 1
  31   15   35 1
  32   16   18 1
  33   16   17 2
  34   17   20 1
  35   17   36 1
  36   18   19 1
  37   18   37 1
  38   19   20 2
  39   19   38 1
  40   20   39 1

#	End of record

