#	Name: ASD10350001
#	Creating user name:	WinNT
#	Creation time:	15. 06. 2019 21:26

#	Modifying user name:	WinNT
#	Modification time:	15. 06. 2019 21:26

#	Program:	/corina/corina34_cracker 3.40 0067  02.08.2006

@<TRIPOS>MOLECULE
ASD10350001
  77   80    0    0    0
SMALL
NO_CHARGES


@<TRIPOS>ATOM
   1 C1            -0.0183     1.4956     0.0103 C.3     
   2 C2             0.0021    -0.0041     0.0020 C.2     
   3 C3             1.0871    -0.7154     0.0962 C.2     
   4 C4             2.4546    -0.1087     0.2172 C.3     
   5 C5             2.3359     1.2814     0.8524 C.3     
   6 C6             1.3693     2.1153     0.0003 C.3     
   7 C7             3.6884     1.9703     0.8200 C.3     
   8 C8             3.5167     3.3553     1.4994 C.3     
   9 C9             2.6823     4.2097     0.5640 C.3     
  10 C10            1.2916     3.5617     0.4803 C.3     
  11 C11            4.7812     1.3334     1.6858 C.3     
  12 C12            5.7716     2.5076     1.9152 C.3     
  13 C13            4.9532     3.8105     1.7356 C.3     
  14 C14           -0.8260     2.0010    -1.1885 C.3     
  15 C15           -2.2128     1.3549    -1.1756 C.3     
  16 C16           -2.0763    -0.1606    -1.3321 C.3     
  17 C17           -1.3254    -0.7321    -0.1258 C.3     
  18 O18           -3.3755    -0.7507    -1.4079 O.3     
  19 S19           -3.4557    -1.9543    -2.3361 S.o2    
  20 O20           -4.8681    -2.2027    -2.5798 O.co2   
  21 O21           -2.7469    -1.5927    -3.5539 O.co2   
  22 O22           -2.8182    -3.0624    -1.6420 O.co2   
  23 C23           -0.7381     1.9564     1.2793 C.3     
  24 H24            1.7345     2.1223    -1.0266 H       
  25 H25            1.9635     1.1988     1.8735 H       
  26 H26            4.0339     2.0776    -0.2082 H       
  27 C27            2.7923     3.1912     2.8370 C.3     
  28 C28            5.0365     4.6675     3.0003 C.3     
  29 H29            5.3184     4.3702     0.8745 H       
  30 C30            6.4933     5.0591     3.2559 C.3     
  31 C31            6.5939     5.8095     4.5854 C.3     
  32 C32            8.0507     6.2011     4.8410 C.3     
  33 C33            8.1513     6.9516     6.1705 C.3     
  34 C34            9.6214     7.2338     6.4869 C.3     
  35 C35            7.3886     8.2740     6.0687 C.3     
  36 C36            4.1935     5.9310     2.8166 C.3     
  37 H37            1.0000    -1.7918     0.0872 H       
  38 H38            3.0802    -0.7435     0.8447 H       
  39 H39            2.9022    -0.0196    -0.7726 H       
  40 H40            2.5976     5.2212     0.9610 H       
  41 H41            3.1409     4.2347    -0.4246 H       
  42 H42            0.6745     4.1332    -0.2131 H       
  43 H43            0.8291     3.5845     1.4670 H       
  44 H44            4.3690     0.9859     2.6331 H       
  45 H45            5.2681     0.5166     1.1531 H       
  46 H46            6.1817     2.4594     2.9240 H       
  47 H47            6.5764     2.4670     1.1812 H       
  48 H48           -0.9290     3.0843    -1.1268 H       
  49 H49           -0.3103     1.7367    -2.1118 H       
  50 H50           -2.7085     1.5788    -0.2310 H       
  51 H51           -2.8059     1.7526    -1.9991 H       
  52 H52           -1.5221    -0.3834    -2.2439 H       
  53 H53           -1.1471    -1.7970    -0.2753 H       
  54 H54           -1.9151    -0.5817     0.7785 H       
  55 H55           -0.2058     1.5840     2.1545 H       
  56 H56           -0.7649     3.0457     1.3066 H       
  57 H57           -1.7565     1.5677     1.2807 H       
  58 H58            3.3754     2.5404     3.4886 H       
  59 H59            2.6750     4.1668     3.3087 H       
  60 H60            1.8104     2.7495     2.6667 H       
  61 H61            4.6587     4.0989     3.8500 H       
  62 H62            7.1090     4.1606     3.2984 H       
  63 H63            6.8438     5.7018     2.4484 H       
  64 H64            5.9783     6.7080     4.5429 H       
  65 H65            6.2434     5.1668     5.3929 H       
  66 H66            8.6664     5.3026     4.8835 H       
  67 H67            8.4012     6.8439     4.0335 H       
  68 H68            7.7190     6.3431     6.9649 H       
  69 H69           10.0537     7.8423     5.6926 H       
  70 H70            9.6931     7.7684     7.4341 H       
  71 H71           10.1648     6.2917     6.5595 H       
  72 H72            7.4603     8.8087     7.0158 H       
  73 H73            7.8209     8.8825     5.2743 H       
  74 H74            6.3413     8.0730     5.8433 H       
  75 H75            4.5714     6.4996     1.9669 H       
  76 H76            3.1557     5.6520     2.6345 H       
  77 H77            4.2529     6.5415     3.7176 H       
@<TRIPOS>BOND
   1    1    2 1
   2    1    6 1
   3    1   14 1
   4    1   23 1
   5    2    3 2
   6    2   17 1
   7    3    4 1
   8    3   37 1
   9    4    5 1
  10    4   38 1
  11    4   39 1
  12    5    6 1
  13    5   25 1
  14    5    7 1
  15    6   24 1
  16    6   10 1
  17    7   11 1
  18    7   26 1
  19    7    8 1
  20    8    9 1
  21    8   27 1
  22    8   13 1
  23    9   10 1
  24    9   40 1
  25    9   41 1
  26   10   42 1
  27   10   43 1
  28   11   12 1
  29   11   44 1
  30   11   45 1
  31   12   13 1
  32   12   46 1
  33   12   47 1
  34   13   28 1
  35   13   29 1
  36   14   15 1
  37   14   48 1
  38   14   49 1
  39   15   16 1
  40   15   50 1
  41   15   51 1
  42   16   17 1
  43   16   18 1
  44   16   52 1
  45   17   53 1
  46   17   54 1
  47   18   19 1
  48   19   20 ar
  49   19   21 ar
  50   19   22 ar
  51   23   55 1
  52   23   56 1
  53   23   57 1
  54   27   58 1
  55   27   59 1
  56   27   60 1
  57   28   30 1
  58   28   36 1
  59   28   61 1
  60   30   31 1
  61   30   62 1
  62   30   63 1
  63   31   32 1
  64   31   64 1
  65   31   65 1
  66   32   33 1
  67   32   66 1
  68   32   67 1
  69   33   34 1
  70   33   35 1
  71   33   68 1
  72   34   69 1
  73   34   70 1
  74   34   71 1
  75   35   72 1
  76   35   73 1
  77   35   74 1
  78   36   75 1
  79   36   76 1
  80   36   77 1

#	End of record

