#	Name: ASD10410081
#	Creating user name:	WinNT
#	Creation time:	15. 06. 2019 21:26

#	Modifying user name:	WinNT
#	Modification time:	15. 06. 2019 21:26

#	Program:	/corina/corina34_cracker 3.40 0067  02.08.2006

@<TRIPOS>MOLECULE
ASD10410081
  74   80    0    0    0
SMALL
NO_CHARGES


@<TRIPOS>ATOM
   1 C1            -0.0183     1.3941    -0.0813 C.ar    
   2 C2            -0.0058     0.0095     0.0247 C.ar    
   3 C3             1.2025    -0.6690     0.1160 C.ar    
   4 C4             2.3914     0.0330     0.1015 C.ar    
   5 C5             2.3788     1.4177    -0.0050 C.ar    
   6 C6             1.1705     2.0962    -0.0963 C.ar    
   7 N7             3.5845     2.1297    -0.0193 N.pl3   
   8 C8             3.6715     3.3402    -0.7068 C.2     
   9 N9             4.7094     4.1421    -0.7085 N.2     
  10 N10            2.7115     3.8678    -1.4756 N.2     
  11 C11            3.1226     5.0144    -1.9732 C.2     
  12 N12            4.3790     5.2383    -1.5215 N.pl3   
  13 C13            5.1862     6.3410    -1.8071 C.ar    
  14 N14            2.4006     5.8422    -2.8117 N.pl3   
  15 N15           -1.2109    -0.7022     0.0399 N.3     
  16 C16           -0.9681    -2.1467     0.1579 C.3     
  17 C17           -2.3079    -2.8806     0.2511 C.3     
  18 N18           -3.1119    -2.5804    -0.9418 N.3     
  19 C19           -3.3548    -1.1359    -1.0598 C.3     
  20 C20           -2.0150    -0.4019    -1.1530 C.3     
  21 C21           -4.3768    -3.3273    -0.9259 C.3     
  22 N22            4.9941     7.0323    -2.9210 N.ar    
  23 N23            5.7164     8.0484    -3.2328 N.ar    
  24 C24            6.7023     8.4688    -2.4564 C.ar    
  25 C25            6.9662     7.8130    -1.2502 C.ar    
  26 C26            6.1925     6.7193    -0.9165 C.ar    
  27 C27           -5.2384    -2.8968    -2.1146 C.3     
  28 C28           -6.5557    -3.6747    -2.0980 C.3     
  29 C29           -6.2642    -5.1735    -2.1957 C.3     
  30 C30           -5.4026    -5.6040    -1.0069 C.3     
  31 C31           -4.0853    -4.8261    -1.0236 C.3     
  32 C32            7.5331     9.6389    -2.8249 C.ar    
  33 C33            8.7478     9.8431    -2.1729 C.ar    
  34 C34            9.2212     8.8637    -1.1324 C.3     
  35 C35            8.0438     8.3133    -0.3323 C.3     
  36 C36            7.1104    10.5293    -3.8076 C.ar    
  37 C37            7.8937    11.6214    -4.1244 C.ar    
  38 C38            9.0928    11.8286    -3.4661 C.ar    
  39 C39            9.5187    10.9429    -2.4929 C.ar    
  40 H40           -0.9578     1.9214    -0.1564 H       
  41 H41            1.2122    -1.7458     0.1988 H       
  42 H42            3.3310    -0.4946     0.1732 H       
  43 H43            1.1608     3.1729    -0.1794 H       
  44 H44            4.3593     1.7812     0.4489 H       
  45 H45            1.5032     5.5938    -3.0836 H       
  46 H46            2.7911     6.6717    -3.1284 H       
  47 H47           -0.4220    -2.4964    -0.7182 H       
  48 H48           -0.3818    -2.3448     1.0552 H       
  49 H49           -2.1310    -3.9546     0.3095 H       
  50 H50           -2.8421    -2.5508     1.1421 H       
  51 H51           -3.9411    -0.9378    -1.9571 H       
  52 H52           -3.9008    -0.7862    -0.1837 H       
  53 H53           -2.1919     0.6720    -1.2114 H       
  54 H54           -1.4808    -0.7318    -2.0440 H       
  55 H55           -4.9091    -3.1205     0.0025 H       
  56 H56            6.3652     6.1705    -0.0024 H       
  57 H57           -5.4460    -1.8290    -2.0450 H       
  58 H58           -4.7060    -3.1036    -3.0430 H       
  59 H59           -7.0881    -3.4679    -1.1696 H       
  60 H60           -7.1695    -3.3679    -2.9449 H       
  61 H61           -7.2027    -5.7277    -2.1838 H       
  62 H62           -5.7318    -5.3803    -3.1241 H       
  63 H63           -5.9350    -5.3972    -0.0785 H       
  64 H64           -5.1950    -6.6718    -1.0766 H       
  65 H65           -3.5529    -5.0329    -1.9520 H       
  66 H66           -3.4715    -5.1328    -0.1767 H       
  67 H67            9.7375     8.0393    -1.6242 H       
  68 H68            9.9121     9.3658    -0.4551 H       
  69 H69            7.6387     9.1034     0.3000 H       
  70 H70            8.3893     7.4928     0.2966 H       
  71 H71            6.1739    10.3666    -4.3204 H       
  72 H72            7.5702    12.3143    -4.8870 H       
  73 H73            9.6997    12.6871    -3.7134 H       
  74 H74           10.4557    11.1114    -1.9831 H       
@<TRIPOS>BOND
   1    1    2 ar
   2    1    6 ar
   3    1   40 1
   4    2    3 ar
   5    2   15 1
   6    3    4 ar
   7    3   41 1
   8    4    5 ar
   9    4   42 1
  10    5    6 ar
  11    5    7 1
  12    6   43 1
  13    7    8 1
  14    7   44 1
  15    8    9 2
  16    8   10 1
  17    9   12 1
  18   10   11 2
  19   11   12 1
  20   11   14 1
  21   12   13 1
  22   13   22 ar
  23   13   26 ar
  24   14   45 1
  25   14   46 1
  26   15   16 1
  27   15   20 1
  28   16   17 1
  29   16   47 1
  30   16   48 1
  31   17   18 1
  32   17   49 1
  33   17   50 1
  34   18   19 1
  35   18   21 1
  36   19   20 1
  37   19   51 1
  38   19   52 1
  39   20   53 1
  40   20   54 1
  41   21   27 1
  42   21   31 1
  43   21   55 1
  44   22   23 ar
  45   23   24 ar
  46   24   25 ar
  47   24   32 1
  48   25   26 ar
  49   25   35 1
  50   26   56 1
  51   27   28 1
  52   27   57 1
  53   27   58 1
  54   28   29 1
  55   28   59 1
  56   28   60 1
  57   29   30 1
  58   29   61 1
  59   29   62 1
  60   30   31 1
  61   30   63 1
  62   30   64 1
  63   31   65 1
  64   31   66 1
  65   32   33 ar
  66   32   36 ar
  67   33   34 1
  68   33   39 ar
  69   34   35 1
  70   34   67 1
  71   34   68 1
  72   35   69 1
  73   35   70 1
  74   36   37 ar
  75   36   71 1
  76   37   38 ar
  77   37   72 1
  78   38   39 ar
  79   38   73 1
  80   39   74 1

#	End of record

