#	Name: ASD10410217
#	Creating user name:	WinNT
#	Creation time:	15. 06. 2019 21:27

#	Modifying user name:	WinNT
#	Modification time:	15. 06. 2019 21:27

#	Program:	/corina/corina34_cracker 3.40 0067  02.08.2006

@<TRIPOS>MOLECULE
ASD10410217
  55   59    0    0    0
SMALL
NO_CHARGES


@<TRIPOS>ATOM
   1 C1             0.0476     1.1392     0.2465 C.ar    
   2 C2             0.1828    -0.1896     0.6208 C.ar    
   3 C3             1.4456    -0.7441     0.7693 C.ar    
   4 C4             2.5693     0.0266     0.5450 C.ar    
   5 C5             2.4349     1.3571     0.1702 C.ar    
   6 C6             1.1702     1.9113     0.0214 C.ar    
   7 O7            -0.9232    -0.9491     0.8428 O.3     
   8 N8             3.5734     2.1392    -0.0569 N.pl3   
   9 C9             4.7332     1.5521    -0.5603 C.2     
  10 N10            5.8857     2.1581    -0.7161 N.2     
  11 N11            4.8492     0.2787    -0.9560 N.2     
  12 C12            6.0757     0.0540    -1.3751 C.2     
  13 N13            6.7785     1.2125    -1.2460 N.pl3   
  14 C14            8.1116     1.4182    -1.5727 C.ar    
  15 N15            6.5640    -1.1443    -1.8573 N.pl3   
  16 C16            8.5058     2.5344    -2.3467 C.ar    
  17 C17           -0.7101    -2.3093     1.2254 C.3     
  18 C18           -2.0604    -2.9992     1.4294 C.3     
  19 N19           -2.7760    -3.0635     0.1481 N.3     
  20 C20           -3.9676    -3.9257     0.2511 C.3     
  21 C21           -5.1855    -3.0739    -0.1645 C.3     
  22 C22           -4.5488    -1.9489    -1.0224 C.3     
  23 C23           -3.2050    -1.7173    -0.2873 C.3     
  24 N24            9.0501     0.5771    -1.1633 N.ar    
  25 C25           10.3249     0.7617    -1.4673 C.ar    
  26 N26           10.7480     1.7751    -2.1850 N.ar    
  27 C27            9.8823     2.6887    -2.6463 C.ar    
  28 C28           10.2985     3.7841    -3.4160 C.ar    
  29 C29            9.3765     4.6839    -3.8600 C.ar    
  30 C30            8.0237     4.5332    -3.5611 C.ar    
  31 C31            7.5839     3.4766    -2.8179 C.ar    
  32 Cl32           6.8819     5.7026    -4.1464 Cl      
  33 H33           -0.9360     1.5689     0.1268 H       
  34 H34            1.5500    -1.7788     1.0607 H       
  35 H35            3.5524    -0.4051     0.6613 H       
  36 H36            1.0647     2.9458    -0.2704 H       
  37 H37            3.5552     3.0896     0.1359 H       
  38 H38            5.9826    -1.9190    -1.9097 H       
  39 H39            7.4883    -1.2113    -2.1437 H       
  40 H40           -0.1537    -2.8241     0.4422 H       
  41 H41           -0.1420    -2.3404     2.1552 H       
  42 H42           -1.8991    -4.0091     1.8066 H       
  43 H43           -2.6527    -2.4332     2.1483 H       
  44 H44           -3.8664    -4.7796    -0.4187 H       
  45 H45           -4.0888    -4.2696     1.2782 H       
  46 H46           -5.8834    -3.6636    -0.7589 H       
  47 H47           -5.6810    -2.6565     0.7120 H       
  48 H48           -4.3811    -2.2855    -2.0455 H       
  49 H49           -5.1636    -1.0491    -1.0048 H       
  50 H50           -3.3517    -1.0682     0.5760 H       
  51 H51           -2.4701    -1.2861    -0.9669 H       
  52 H52           11.0495     0.0459    -1.1081 H       
  53 H53           11.3436     3.9142    -3.6552 H       
  54 H54            9.6992     5.5273    -4.4524 H       
  55 H55            6.5332     3.3698    -2.5923 H       
@<TRIPOS>BOND
   1    1    2 ar
   2    1    6 ar
   3    1   33 1
   4    2    3 ar
   5    2    7 1
   6    3    4 ar
   7    3   34 1
   8    4    5 ar
   9    4   35 1
  10    5    6 ar
  11    5    8 1
  12    6   36 1
  13    7   17 1
  14    8    9 1
  15    8   37 1
  16    9   10 2
  17    9   11 1
  18   10   13 1
  19   11   12 2
  20   12   13 1
  21   12   15 1
  22   13   14 1
  23   14   16 ar
  24   14   24 ar
  25   15   38 1
  26   15   39 1
  27   16   27 ar
  28   16   31 ar
  29   17   18 1
  30   17   40 1
  31   17   41 1
  32   18   19 1
  33   18   42 1
  34   18   43 1
  35   19   20 1
  36   19   23 1
  37   20   21 1
  38   20   44 1
  39   20   45 1
  40   21   22 1
  41   21   46 1
  42   21   47 1
  43   22   23 1
  44   22   48 1
  45   22   49 1
  46   23   50 1
  47   23   51 1
  48   24   25 ar
  49   25   26 ar
  50   25   52 1
  51   26   27 ar
  52   27   28 ar
  53   28   29 ar
  54   28   53 1
  55   29   30 ar
  56   29   54 1
  57   30   31 ar
  58   30   32 1
  59   31   55 1

#	End of record

