#	Name: ASD10410272
#	Creating user name:	WinNT
#	Creation time:	15. 06. 2019 21:27

#	Modifying user name:	WinNT
#	Modification time:	15. 06. 2019 21:27

#	Program:	/corina/corina34_cracker 3.40 0067  02.08.2006

@<TRIPOS>MOLECULE
ASD10410272
  66   72    0    0    0
SMALL
NO_CHARGES


@<TRIPOS>ATOM
   1 C1             0.0454     1.2964     0.5246 C.ar    
   2 C2            -0.0007     0.0008     0.0246 C.ar    
   3 C3             1.1421    -0.5782    -0.4828 C.ar    
   4 C4             2.3290     0.1399    -0.4993 C.ar    
   5 C5             2.3753     1.4339    -0.0033 C.ar    
   6 C6             1.2229     2.0126     0.5130 C.ar    
   7 N7             3.5742     2.1515    -0.0226 N.pl3   
   8 C8             3.5528     3.5430    -0.1233 C.2     
   9 N9             4.6009     4.3280    -0.0500 N.2     
  10 N10            2.4604     4.2913    -0.3159 N.2     
  11 C11            2.7970     5.5626    -0.3628 C.2     
  12 N12            4.1378     5.6450    -0.2002 N.pl3   
  13 N13            1.9336     6.6260    -0.5485 N.pl3   
  14 C14            4.9096     6.8112    -0.1848 C.ar    
  15 C15           -1.3260    -0.7148     0.0557 C.3     
  16 C16           -1.1280    -2.2202    -0.1082 C.3     
  17 C17           -0.2490    -2.4619    -1.3409 C.3     
  18 C18            1.1666    -1.9837    -1.0245 C.3     
  19 N19           -0.2272    -3.8957    -1.6596 N.3     
  20 C20            6.1252     6.8125     0.4843 C.ar    
  21 N21            4.4654     7.8945    -0.8166 N.ar    
  22 C22            5.1612     8.9945    -0.8204 C.ar    
  23 C23            6.3936     9.0850    -0.1663 C.ar    
  24 C24            6.9003     7.9798     0.5014 C.ar    
  25 C25            4.7624    10.2899    -1.5034 C.3     
  26 C26            4.7653    11.3725    -0.4046 C.3     
  27 C27            6.1173    11.3649     0.3123 C.3     
  28 N28            7.0053    10.3393    -0.2695 N.3     
  29 C29            7.2364    10.6537    -1.6931 C.3     
  30 C30            5.9157    10.6403    -2.4660 C.3     
  31 C31            8.2031     8.0329     1.2078 C.ar    
  32 C32            8.3037     7.5867     2.5244 C.ar    
  33 C33            9.5189     7.6381     3.1767 C.ar    
  34 C34           10.6356     8.1317     2.5264 C.ar    
  35 C35           10.5415     8.5763     1.2199 C.ar    
  36 C36            9.3329     8.5239     0.5557 C.ar    
  37 H37           -0.8514     1.7482     0.9223 H       
  38 H38            3.2236    -0.3125    -0.9012 H       
  39 H39            1.2495     3.0191     0.9037 H       
  40 H40            4.4212     1.6822     0.0341 H       
  41 H41            0.9832     6.4656    -0.6583 H       
  42 H42            2.2780     7.5325    -0.5689 H       
  43 H43           -1.8180    -0.5187     1.0084 H       
  44 H44           -1.9535    -0.3445    -0.7550 H       
  45 H45           -0.6374    -2.6244     0.7773 H       
  46 H46           -2.0946    -2.7047    -0.2461 H       
  47 H47           -0.6443    -1.9028    -2.1890 H       
  48 H48            1.7660    -2.0077    -1.9346 H       
  49 H49            1.6128    -2.6469    -0.2834 H       
  50 H50            0.3468    -4.0775    -2.4693 H       
  51 H51            0.0835    -4.4376    -0.8672 H       
  52 H52            6.4707     5.9217     0.9879 H       
  53 H53            3.7984    10.2132    -2.0063 H       
  54 H54            4.5991    12.3502    -0.8569 H       
  55 H55            3.9720    11.1641     0.3133 H       
  56 H56            6.5840    12.3446     0.2103 H       
  57 H57            5.9627    11.1491     1.3695 H       
  58 H58            7.6915    11.6408    -1.7747 H       
  59 H59            7.9116     9.9126    -2.1207 H       
  60 H60            5.9663     9.8945    -3.2593 H       
  61 H61            5.7395    11.6237    -2.9018 H       
  62 H62            7.4324     7.2018     3.0333 H       
  63 H63            9.5980     7.2926     4.1969 H       
  64 H64           11.5844     8.1704     3.0408 H       
  65 H65           11.4166     8.9610     0.7172 H       
  66 H66            9.2606     8.8713    -0.4643 H       
@<TRIPOS>BOND
   1    1    2 ar
   2    1    6 ar
   3    1   37 1
   4    2    3 ar
   5    2   15 1
   6    3    4 ar
   7    3   18 1
   8    4    5 ar
   9    4   38 1
  10    5    6 ar
  11    5    7 1
  12    6   39 1
  13    7    8 1
  14    7   40 1
  15    8    9 2
  16    8   10 1
  17    9   12 1
  18   10   11 2
  19   11   12 1
  20   11   13 1
  21   12   14 1
  22   13   41 1
  23   13   42 1
  24   14   20 ar
  25   14   21 ar
  26   15   16 1
  27   15   43 1
  28   15   44 1
  29   16   17 1
  30   16   45 1
  31   16   46 1
  32   17   18 1
  33   17   19 1
  34   17   47 1
  35   18   48 1
  36   18   49 1
  37   19   50 1
  38   19   51 1
  39   20   24 ar
  40   20   52 1
  41   21   22 ar
  42   22   23 ar
  43   22   25 1
  44   23   24 ar
  45   23   28 1
  46   24   31 1
  47   25   26 1
  48   25   30 1
  49   25   53 1
  50   26   27 1
  51   26   54 1
  52   26   55 1
  53   27   28 1
  54   27   56 1
  55   27   57 1
  56   28   29 1
  57   29   30 1
  58   29   58 1
  59   29   59 1
  60   30   60 1
  61   30   61 1
  62   31   32 ar
  63   31   36 ar
  64   32   33 ar
  65   32   62 1
  66   33   34 ar
  67   33   63 1
  68   34   35 ar
  69   34   64 1
  70   35   36 ar
  71   35   65 1
  72   36   66 1

#	End of record

