#	Name: ASD10420110
#	Creating user name:	WinNT
#	Creation time:	15. 06. 2019 21:27

#	Modifying user name:	WinNT
#	Modification time:	15. 06. 2019 21:27

#	Program:	/corina/corina34_cracker 3.40 0067  02.08.2006

@<TRIPOS>MOLECULE
ASD10420110
  76   80    0    0    0
SMALL
NO_CHARGES


@<TRIPOS>ATOM
   1 N1            -0.1958     0.2256    -0.6618 N.pl3   
   2 C2            -0.6209    -1.0004    -1.0982 C.2     
   3 C3            -2.0279    -0.9810    -1.1542 C.2     
   4 C4            -2.4419     0.2843    -0.7417 C.2     
   5 C5            -1.3068     1.0184    -0.4353 C.2     
   6 C6             1.1372     0.4812    -0.5155 C.2     
   7 C7             2.0598    -0.4619    -0.7961 C.2     
   8 C8             1.6583    -1.7336    -1.2474 C.2     
   9 C9             0.3126    -2.0015    -1.3971 C.2     
  10 C10           -1.2873     2.3567     0.0233 C.2     
  11 O11           -1.3140     2.5916     1.2184 O.2     
  12 C12           -3.8665     0.7656    -0.6416 C.3     
  13 C13           -4.3962     0.4831     0.7407 C.ar    
  14 C14           -4.5703     1.5192     1.6388 C.ar    
  15 C15           -4.7130    -0.8112     1.1080 C.ar    
  16 C16           -5.1991    -1.0719     2.3758 C.ar    
  17 C17           -5.3691    -0.0384     3.2771 C.ar    
  18 C18           -2.9049    -2.0978    -1.5734 C.ar    
  19 C19           -2.9560    -3.2699    -0.8184 C.ar    
  20 C20           -3.7752    -4.3070    -1.2144 C.ar    
  21 C21           -4.5447    -4.1867    -2.3579 C.ar    
  22 C22           -4.4985    -3.0269    -3.1110 C.ar    
  23 C23           -3.6881    -1.9803    -2.7221 C.ar    
  24 C24           -4.2311     2.9311     1.2358 C.3     
  25 C25           -5.0570     1.2594     2.9085 C.ar    
  26 F26           -5.2224     2.2706     3.7890 F       
  27 O27            2.5833    -2.6849    -1.5311 O.3     
  28 C28            2.0956    -3.9495    -1.9838 C.3     
  29 N29           -1.2390     3.3718    -0.8621 N.am    
  30 C30           -1.3339     4.7694    -0.4140 C.3     
  31 C31           -0.1621     5.5536    -1.0143 C.3     
  32 N32           -0.1482     5.3681    -2.4714 N.3     
  33 C33            0.0779     3.9609    -2.8273 C.3     
  34 C34           -1.0840     3.1114    -2.3013 C.3     
  35 C35           -0.3235     7.0402    -0.6904 C.3     
  36 C36            0.8887     7.7941    -1.1736 C.2     
  37 N37            0.9682     9.1276    -0.9953 N.am    
  38 O38            1.7926     7.2007    -1.7229 O.2     
  39 C39            2.1466     9.8604    -1.4650 C.3     
  40 C40            1.9852    11.3470    -1.1411 C.3     
  41 O41            1.9686    11.5266     0.2764 O.3     
  42 H42            1.4578     1.4530    -0.1704 H       
  43 H43            3.1099    -0.2406    -0.6744 H       
  44 H44           -0.0168    -2.9706    -1.7417 H       
  45 H45           -3.9019     1.8382    -0.8321 H       
  46 H46           -4.4783     0.2453    -1.3785 H       
  47 H47           -4.5811    -1.6195     0.4039 H       
  48 H48           -5.4463    -2.0836     2.6617 H       
  49 H49           -5.7495    -0.2421     4.2672 H       
  50 H50           -2.3552    -3.3653     0.0740 H       
  51 H51           -3.8155    -5.2149    -0.6308 H       
  52 H52           -5.1838    -5.0016    -2.6642 H       
  53 H53           -5.1016    -2.9390    -4.0026 H       
  54 H54           -3.6529    -1.0755    -3.3108 H       
  55 H55           -5.0799     3.3741     0.7148 H       
  56 H56           -4.0042     3.5184     2.1256 H       
  57 H57           -3.3639     2.9221     0.5755 H       
  58 H58            2.9366    -4.6162    -2.1742 H       
  59 H59            1.4520    -4.3854    -1.2197 H       
  60 H60            1.5261    -3.8114    -2.9029 H       
  61 H61           -2.2755     5.2000    -0.7547 H       
  62 H62           -1.2821     4.8094     0.6741 H       
  63 H63            0.7741     5.1886    -0.5921 H       
  64 H64           -0.9995     5.7142    -2.8881 H       
  65 H65            0.1371     3.8649    -3.9114 H       
  66 H66            1.0109     3.6180    -2.3799 H       
  67 H67           -0.8670     2.0552    -2.4611 H       
  68 H68           -2.0015     3.3827    -2.8234 H       
  69 H69           -1.2134     7.4260    -1.1878 H       
  70 H70           -0.4253     7.1684     0.3873 H       
  71 H71            0.2452     9.6022    -0.5559 H       
  72 H72            3.0365     9.4747    -0.9676 H       
  73 H73            2.2484     9.7323    -2.5427 H       
  74 H74            2.8188    11.9045    -1.5683 H       
  75 H75            1.0493    11.7116    -1.5646 H       
  76 H76            1.8689    12.4472     0.5551 H       
@<TRIPOS>BOND
   1    1    2 1
   2    1    6 1
   3    1    5 1
   4    2    3 2
   5    2    9 1
   6    3    4 1
   7    3   18 1
   8    4    5 2
   9    4   12 1
  10    5   10 1
  11    6    7 2
  12    6   42 1
  13    7    8 1
  14    7   43 1
  15    8    9 2
  16    8   27 1
  17    9   44 1
  18   10   11 2
  19   10   29 am
  20   12   13 1
  21   12   45 1
  22   12   46 1
  23   13   14 ar
  24   13   15 ar
  25   14   24 1
  26   14   25 ar
  27   15   16 ar
  28   15   47 1
  29   16   17 ar
  30   16   48 1
  31   17   25 ar
  32   17   49 1
  33   18   19 ar
  34   18   23 ar
  35   19   20 ar
  36   19   50 1
  37   20   21 ar
  38   20   51 1
  39   21   22 ar
  40   21   52 1
  41   22   23 ar
  42   22   53 1
  43   23   54 1
  44   24   55 1
  45   24   56 1
  46   24   57 1
  47   25   26 1
  48   27   28 1
  49   28   58 1
  50   28   59 1
  51   28   60 1
  52   29   30 1
  53   29   34 1
  54   30   31 1
  55   30   61 1
  56   30   62 1
  57   31   32 1
  58   31   35 1
  59   31   63 1
  60   32   33 1
  61   32   64 1
  62   33   34 1
  63   33   65 1
  64   33   66 1
  65   34   67 1
  66   34   68 1
  67   35   36 1
  68   35   69 1
  69   35   70 1
  70   36   37 am
  71   36   38 2
  72   37   39 1
  73   37   71 1
  74   39   40 1
  75   39   72 1
  76   39   73 1
  77   40   41 1
  78   40   74 1
  79   40   75 1
  80   41   76 1

#	End of record

