#	Name: ASD10160469
#	Creating user name:	WinNT
#	Creation time:	15. 06. 2019 21:26

#	Modifying user name:	WinNT
#	Modification time:	15. 06. 2019 21:26

#	Program:	/corina/corina34_cracker 3.40 0067  02.08.2006

@<TRIPOS>MOLECULE
ASD10160469
  37   38    0    0    0
SMALL
NO_CHARGES


@<TRIPOS>ATOM
   1 C1            -4.5022    -7.2218     0.8580 C.2     
   2 C2            -3.3020    -6.4099     0.6315 C.ar    
   3 C3            -2.6659    -5.7761     1.7104 C.ar    
   4 C4            -1.5375    -5.0146     1.4867 C.ar    
   5 C5            -1.0364    -4.8783     0.1975 C.ar    
   6 C6            -1.6684    -5.5074    -0.8710 C.ar    
   7 C7            -2.7823    -6.2684    -0.6617 C.ar    
   8 O8            -5.0500    -7.7685    -0.0763 O.2     
   9 F9            -3.1566    -5.9109     2.9619 F       
  10 O10            0.0728    -4.1287    -0.0202 O.3     
  11 C11            2.4519    -4.0016    -0.0366 C.ar    
  12 C12            1.2841    -4.7400     0.0696 C.ar    
  13 C13            1.3662    -6.1152     0.2698 C.ar    
  14 C14            2.6207    -6.6951     0.3556 C.ar    
  15 C15            3.7478    -5.8904     0.2397 C.ar    
  16 N16            3.6311    -4.5872     0.0504 N.ar    
  17 O17            4.9826    -6.4488     0.3223 O.3     
  18 C18            6.1020    -5.5696     0.1956 C.3     
  19 C19            7.3982    -6.3739     0.3141 C.3     
  20 C20            7.5077    -7.3414    -0.8662 C.3     
  21 C21            8.5936    -5.4191     0.3035 C.3     
  22 Cl22           2.7835    -8.4053     0.6052 Cl      
  23 H23           -4.8958    -7.3367     1.8571 H       
  24 H24           -1.0440    -4.5243     2.3129 H       
  25 H25           -1.2732    -5.3964    -1.8700 H       
  26 H26           -3.2658    -6.7578    -1.4943 H       
  27 H27            2.3962    -2.9350    -0.1964 H       
  28 H28            0.4726    -6.7155     0.3565 H       
  29 H29            6.0682    -5.0760    -0.7756 H       
  30 H30            6.0663    -4.8197     0.9858 H       
  31 H31            7.3919    -6.9379     1.2468 H       
  32 H32            6.6561    -8.0216    -0.8586 H       
  33 H33            7.5140    -6.7774    -1.7989 H       
  34 H34            8.4311    -7.9144    -0.7818 H       
  35 H35            8.5156    -4.7299     1.1443 H       
  36 H36            9.5170    -5.9921     0.3879 H       
  37 H37            8.5999    -4.8551    -0.6293 H       
@<TRIPOS>BOND
   1    1    2 1
   2    1    8 2
   3    1   23 1
   4    2    3 ar
   5    2    7 ar
   6    3    4 ar
   7    3    9 1
   8    4    5 ar
   9    4   24 1
  10    5    6 ar
  11    5   10 1
  12    6    7 ar
  13    6   25 1
  14    7   26 1
  15   10   12 1
  16   11   12 ar
  17   11   16 ar
  18   11   27 1
  19   12   13 ar
  20   13   14 ar
  21   13   28 1
  22   14   15 ar
  23   14   22 1
  24   15   16 ar
  25   15   17 1
  26   17   18 1
  27   18   19 1
  28   18   29 1
  29   18   30 1
  30   19   20 1
  31   19   21 1
  32   19   31 1
  33   20   32 1
  34   20   33 1
  35   20   34 1
  36   21   35 1
  37   21   36 1
  38   21   37 1

#	End of record

