#	Name: ASD10060001
#	Creating user name:	WinNT
#	Creation time:	15. 06. 2019 21:24

#	Modifying user name:	WinNT
#	Modification time:	15. 06. 2019 21:24

#	Program:	/corina/corina34_cracker 3.40 0067  02.08.2006

@<TRIPOS>MOLECULE
ASD10060001
 134  135    0    0    0
SMALL
NO_CHARGES


@<TRIPOS>ATOM
   1 C1            -1.5822     1.1796     2.4360 C.2     
   2 C2            -1.5894    -0.3242     2.5343 C.3     
   3 N3            -0.2414    -0.8368     2.2766 N.am    
   4 C4             0.6568    -0.9045     3.2791 C.2     
   5 C5             2.0434    -1.4319     3.0141 C.3     
   6 N6             2.8220    -1.4039     4.2548 N.am    
   7 C7             3.8604    -2.2474     4.4179 C.2     
   8 C8             4.6613    -2.2186     5.6942 C.3     
   9 N9             5.7259    -3.2226     5.6254 N.am    
  10 C10            6.8432    -3.0717     6.3637 C.2     
  11 C11            7.9384    -4.1045     6.2930 C.3     
  12 N12            9.0360    -3.7141     7.1812 N.am    
  13 C13            9.8652    -4.6520     7.6804 C.2     
  14 C14           10.9943    -4.2503     8.5940 C.3     
  15 N15           11.7439    -5.4427     8.9973 N.am    
  16 C16           13.0346    -5.3333     9.3697 C.2     
  17 C17           13.7722    -6.5382     9.8943 C.3     
  18 N18           14.8441    -6.1017    10.7924 N.am    
  19 C19           15.3020    -6.9332    11.7492 C.2     
  20 C20           16.4047    -6.4842    12.6731 C.3     
  21 N21           16.7204    -7.5602    13.6158 N.am    
  22 C22           17.9419    -7.6234    14.1819 C.2     
  23 C23           18.2666    -8.7303    15.1517 C.3     
  24 C24           18.6020   -10.0058    14.3761 C.3     
  25 C25           18.9316   -11.1295    15.3607 C.3     
  26 C26           19.3873   -12.3682    14.5868 C.3     
  27 O27           -0.5564     1.7633     2.1773 O.2     
  28 O28           -2.7167     1.8703     2.6304 O.3     
  29 O29           18.7798    -6.7895    13.9107 O.2     
  30 O30           14.8266    -8.0427    11.8668 O.2     
  31 O31           13.6024    -4.2652     9.2826 O.2     
  32 O32            9.7026    -5.8193     7.3942 O.2     
  33 O33            6.9674    -2.1046     7.0850 O.2     
  34 O34            4.1504    -3.0296     3.5375 O.2     
  35 O35            0.3492    -0.5411     4.3946 O.2     
  36 C36           17.4007   -10.4133    13.5207 C.3     
  37 C37            2.7290    -0.5578     1.9620 C.3     
  38 S38            4.3389    -1.2764     1.5347 S.3     
  39 C39           -2.5597    -0.8982     1.4999 C.3     
  40 C40           -2.6614    -2.4139     1.6822 C.3     
  41 C41           -3.2902    -2.7230     3.0423 C.3     
  42 C42           -3.5329    -3.0038     0.5716 C.3     
  43 C43           10.4250    -3.5616     9.8360 C.3     
  44 O44            9.4657    -4.4186    10.4584 O.3     
  45 C45           14.3737    -7.3177     8.7233 C.3     
  46 C46           15.1898    -8.4953     9.2600 C.3     
  47 O47           13.3232    -7.8077     7.8875 O.3     
  48 C48            8.4551    -4.2024     4.8562 C.3     
  49 C49            9.4626    -5.3190     4.7597 C.ar    
  50 C50            9.0450    -6.6006     4.4518 C.ar    
  51 C51            9.9665    -7.6259     4.3627 C.ar    
  52 C52           11.3120    -7.3687     4.5824 C.ar    
  53 C53           11.7284    -6.0819     4.8912 C.ar    
  54 C54           10.8036    -5.0589     4.9736 C.ar    
  55 O55           12.2204    -8.3757     4.4958 O.3     
  56 C56            3.7440    -2.5282     6.8789 C.3     
  57 C57            4.5280    -2.3769     8.1841 C.3     
  58 C58            3.6245    -2.6818     9.3510 C.2     
  59 O59            2.4718    -2.9886     9.1586 O.2     
  60 O60            4.1003    -2.6125    10.6042 O.3     
  61 C61           15.9490    -5.2455    13.4469 C.3     
  62 C62           17.0924    -4.7240    14.2787 C.ar    
  63 C63           17.9620    -3.7889    13.7494 C.ar    
  64 C64           19.0108    -3.3106    14.5124 C.ar    
  65 C65           19.1897    -3.7672    15.8049 C.ar    
  66 C66           18.3196    -4.7017    16.3345 C.ar    
  67 C67           17.2682    -5.1767    15.5730 C.ar    
  68 N68           19.4200    -8.3390    15.9729 N.3     
  69 H69           -1.9063    -0.6214     3.5339 H       
  70 H70            0.0046    -1.1275     1.3845 H       
  71 H71            1.9787    -2.4568     2.6488 H       
  72 H72            2.5901    -0.7783     4.9589 H       
  73 H73            5.1019    -1.2302     5.8244 H       
  74 H74            5.6266    -3.9961     5.0485 H       
  75 H75            7.5456    -5.0724     6.6046 H       
  76 H76            9.1660    -2.7804     7.4101 H       
  77 H77           11.6588    -3.5634     8.0701 H       
  78 H78           11.3113    -6.3109     8.9963 H       
  79 H79           13.0795    -7.1791    10.4399 H       
  80 H80           15.2244    -5.2143    10.6984 H       
  81 H81           17.2921    -6.2413    12.0885 H       
  82 H82           16.0503    -8.2271    13.8327 H       
  83 H83           17.4067    -8.9124    15.7962 H       
  84 H84           19.4619    -9.8236    13.7315 H       
  85 H85           19.7292   -10.8048    16.0289 H       
  86 H86           18.0443   -11.3724    15.9452 H       
  87 H87           20.2747   -12.1254    14.0023 H       
  88 H88           19.6222   -13.1688    15.2883 H       
  89 H89           18.5898   -12.6930    13.9186 H       
  90 H90           -2.6625     2.8330     2.5571 H       
  91 H91           17.1658    -9.6127    12.8193 H       
  92 H92           17.6396   -11.3220    12.9682 H       
  93 H93           16.5408   -10.5955    14.1653 H       
  94 H94            2.1054    -0.5070     1.0694 H       
  95 H95            2.8737     0.4458     2.3617 H       
  96 H96            4.8190    -0.4187     0.6167 H       
  97 H97           -3.5435    -0.4491     1.6361 H       
  98 H98           -2.1947    -0.6765     0.4971 H       
  99 H99           -1.6650    -2.8533     1.6342 H       
 100 H100          -3.3626    -3.8028     3.1721 H       
 101 H101          -2.6693    -2.3028     3.8335 H       
 102 H102          -4.2866    -2.2836     3.0903 H       
 103 H103          -3.0849    -2.7836    -0.3974 H       
 104 H104          -3.6053    -4.0836     0.7014 H       
 105 H105          -4.5293    -2.5644     0.6195 H       
 106 H106          11.2327    -3.3508    10.5369 H       
 107 H107           9.9434    -2.6280     9.5451 H       
 108 H108           9.0627    -4.0454    11.2542 H       
 109 H109          15.0221    -6.6603     8.1440 H       
 110 H110          14.5414    -9.1527     9.8392 H       
 111 H111          15.6183    -9.0507     8.4257 H       
 112 H112          15.9911    -8.1215     9.8975 H       
 113 H113          12.8386    -7.1151     7.4180 H       
 114 H114           7.6219    -4.4056     4.1835 H       
 115 H115           8.9278    -3.2612     4.5752 H       
 116 H116           7.9974    -6.8003     4.2811 H       
 117 H117           9.6398    -8.6268     4.1225 H       
 118 H118          12.7753    -5.8791     5.0628 H       
 119 H119          11.1279    -4.0561     5.2093 H       
 120 H120          12.5911    -8.4960     3.6108 H       
 121 H121           2.9028    -1.8350     6.8780 H       
 122 H122           3.3732    -3.5497     6.7941 H       
 123 H123           5.3692    -3.0700     8.1850 H       
 124 H124           4.8988    -1.3554     8.2688 H       
 125 H125           3.4831    -2.8168    11.3201 H       
 126 H126          15.6299    -4.4754    12.7446 H       
 127 H127          15.1166    -5.5102    14.0988 H       
 128 H128          17.8222    -3.4322    12.7397 H       
 129 H129          19.6906    -2.5806    14.0987 H       
 130 H130          20.0096    -3.3941    16.4008 H       
 131 H131          18.4596    -5.0586    17.3442 H       
 132 H132          16.5862    -5.9040    15.9880 H       
 133 H133          19.6177    -9.0368    16.6745 H       
 134 H134          20.2307    -8.1644    15.3981 H       
@<TRIPOS>BOND
   1    1    2 1
   2    1   27 2
   3    1   28 1
   4    2    3 1
   5    2   39 1
   6    2   69 1
   7    3    4 am
   8    3   70 1
   9    4    5 1
  10    4   35 2
  11    5    6 1
  12    5   37 1
  13    5   71 1
  14    6    7 am
  15    6   72 1
  16    7    8 1
  17    7   34 2
  18    8    9 1
  19    8   56 1
  20    8   73 1
  21    9   10 am
  22    9   74 1
  23   10   11 1
  24   10   33 2
  25   11   12 1
  26   11   48 1
  27   11   75 1
  28   12   13 am
  29   12   76 1
  30   13   14 1
  31   13   32 2
  32   14   15 1
  33   14   43 1
  34   14   77 1
  35   15   16 am
  36   15   78 1
  37   16   31 2
  38   16   17 1
  39   17   18 1
  40   17   45 1
  41   17   79 1
  42   18   19 am
  43   18   80 1
  44   19   20 1
  45   19   30 2
  46   20   21 1
  47   20   61 1
  48   20   81 1
  49   21   22 am
  50   21   82 1
  51   22   23 1
  52   22   29 2
  53   23   24 1
  54   23   68 1
  55   23   83 1
  56   24   25 1
  57   24   36 1
  58   24   84 1
  59   25   26 1
  60   25   85 1
  61   25   86 1
  62   26   87 1
  63   26   88 1
  64   26   89 1
  65   28   90 1
  66   36   91 1
  67   36   92 1
  68   36   93 1
  69   37   38 1
  70   37   94 1
  71   37   95 1
  72   38   96 1
  73   39   40 1
  74   39   97 1
  75   39   98 1
  76   40   41 1
  77   40   42 1
  78   40   99 1
  79   41  100 1
  80   41  101 1
  81   41  102 1
  82   42  103 1
  83   42  104 1
  84   42  105 1
  85   43   44 1
  86   43  106 1
  87   43  107 1
  88   44  108 1
  89   45   46 1
  90   45   47 1
  91   45  109 1
  92   46  110 1
  93   46  111 1
  94   46  112 1
  95   47  113 1
  96   48   49 1
  97   48  114 1
  98   48  115 1
  99   49   50 ar
 100   49   54 ar
 101   50   51 ar
 102   50  116 1
 103   51   52 ar
 104   51  117 1
 105   52   53 ar
 106   52   55 1
 107   53   54 ar
 108   53  118 1
 109   54  119 1
 110   55  120 1
 111   56   57 1
 112   56  121 1
 113   56  122 1
 114   57   58 1
 115   57  123 1
 116   57  124 1
 117   58   59 2
 118   58   60 1
 119   60  125 1
 120   61   62 1
 121   61  126 1
 122   61  127 1
 123   62   63 ar
 124   62   67 ar
 125   63   64 ar
 126   63  128 1
 127   64   65 ar
 128   64  129 1
 129   65   66 ar
 130   65  130 1
 131   66   67 ar
 132   66  131 1
 133   67  132 1
 134   68  133 1
 135   68  134 1

#	End of record

