#	Name: ASD10420083
#	Creating user name:	WinNT
#	Creation time:	15. 06. 2019 21:27

#	Modifying user name:	WinNT
#	Modification time:	15. 06. 2019 21:27

#	Program:	/corina/corina34_cracker 3.40 0067  02.08.2006

@<TRIPOS>MOLECULE
ASD10420083
  73   77    0    0    0
SMALL
NO_CHARGES


@<TRIPOS>ATOM
   1 N1            -1.2243     1.0568    -1.5083 N.am    
   2 C2            -1.1867    -0.3735    -1.8436 C.3     
   3 C3            -0.0227    -0.6196    -2.8115 C.3     
   4 N4             1.1859     0.0112    -2.2626 N.am    
   5 C5             1.1483     1.4416    -1.9272 C.3     
   6 C6            -0.0157     1.6876    -0.9593 C.3     
   7 C7            -2.3453     1.7785    -1.7059 C.2     
   8 O8            -3.3369     1.2471    -2.1651 O.2     
   9 O9            -2.3665     3.0881    -1.3944 O.3     
  10 C10            2.3085    -0.7092    -2.0697 C.2     
  11 O11            2.3275    -1.8938    -2.3510 O.2     
  12 C12            3.5045    -0.0679    -1.5223 C.2     
  13 C13            4.5367     0.5559    -2.2560 C.2     
  14 C14            5.4539     1.0209    -1.3661 C.2     
  15 N15            5.0414     0.7145    -0.0883 N.pl3   
  16 C16            5.6105     0.9650     1.1279 C.2     
  17 C17            5.0095     0.5610     2.2680 C.2     
  18 C18            3.7869    -0.1247     2.2195 C.2     
  19 C19            3.2088    -0.3807     1.0108 C.2     
  20 C20            3.8458     0.0520    -0.1610 C.2     
  21 C21            6.6964     1.7403    -1.7148 C.ar    
  22 C22            6.9747     2.9803    -1.1364 C.ar    
  23 C23            8.1365     3.6466    -1.4665 C.ar    
  24 C24            9.0253     3.0888    -2.3685 C.ar    
  25 C25            8.7558     1.8603    -2.9453 C.ar    
  26 C26            7.6004     1.1806    -2.6198 C.ar    
  27 C27            4.6092     0.6836    -3.7559 C.3     
  28 C28            4.0161     2.0035    -4.1769 C.ar    
  29 C29            3.8472     2.2883    -5.5188 C.ar    
  30 C30            3.3018     3.5007    -5.9052 C.ar    
  31 C31            2.9262     4.4267    -4.9466 C.ar    
  32 C32            3.0960     4.1397    -3.6056 C.ar    
  33 C33            3.6359     2.9264    -3.2207 C.ar    
  34 C34            4.2569     1.2797    -6.5609 C.3     
  35 F35            3.1367     3.7803    -7.2166 F       
  36 C36           -3.6076     3.8026    -1.6337 C.3     
  37 C37           -4.7294     3.1661    -0.8106 C.3     
  38 C38           -3.4408     5.2668    -1.2221 C.3     
  39 C39           -3.9606     3.7279    -3.1206 C.3     
  40 H40           -1.0375    -0.9583    -0.9359 H       
  41 H41           -2.1244    -0.6628    -2.3181 H       
  42 H42            0.1417    -1.6915    -2.9210 H       
  43 H43           -0.2552    -0.1816    -3.7822 H       
  44 H44            2.0860     1.7309    -1.4528 H       
  45 H45            0.9991     2.0264    -2.8349 H       
  46 H46           -0.1801     2.7596    -0.8498 H       
  47 H47            0.2169     1.2496     0.0113 H       
  48 H48            6.5520     1.4918     1.1784 H       
  49 H49            5.4727     0.7666     3.2216 H       
  50 H50            3.3073    -0.4476     3.1317 H       
  51 H51            2.2676    -0.9076     0.9572 H       
  52 H52            6.2816     3.4170    -0.4325 H       
  53 H53            8.3528     4.6060    -1.0201 H       
  54 H54            9.9333     3.6149    -2.6237 H       
  55 H55            9.4535     1.4308    -3.6489 H       
  56 H56            7.3935     0.2196    -3.0671 H       
  57 H57            5.6504     0.6350    -4.0748 H       
  58 H58            4.0495    -0.1299    -4.2173 H       
  59 H59            2.5010     5.3730    -5.2469 H       
  60 H60            2.8031     4.8618    -2.8578 H       
  61 H61            3.7641     2.7012    -2.1723 H       
  62 H62            3.4366     0.5835    -6.7350 H       
  63 H63            4.4993     1.7954    -7.4901 H       
  64 H64            5.1313     0.7309    -6.2112 H       
  65 H65           -4.4779     3.2194     0.2486 H       
  66 H66           -5.6611     3.7025    -0.9903 H       
  67 H67           -4.8482     2.1231    -1.1039 H       
  68 H68           -2.6416     5.7202    -1.8085 H       
  69 H69           -4.3725     5.8031    -1.4018 H       
  70 H70           -3.1893     5.3200    -0.1629 H       
  71 H71           -4.0795     2.6848    -3.4138 H       
  72 H72           -4.8923     4.2643    -3.3002 H       
  73 H73           -3.1615     4.1813    -3.7070 H       
@<TRIPOS>BOND
   1    1    2 1
   2    1    6 1
   3    1    7 am
   4    2    3 1
   5    2   40 1
   6    2   41 1
   7    3    4 1
   8    3   42 1
   9    3   43 1
  10    4    5 1
  11    4   10 am
  12    5    6 1
  13    5   44 1
  14    5   45 1
  15    6   46 1
  16    6   47 1
  17    7    8 2
  18    7    9 1
  19    9   36 1
  20   10   11 2
  21   10   12 1
  22   12   13 1
  23   12   20 2
  24   13   14 2
  25   13   27 1
  26   14   15 1
  27   14   21 1
  28   15   16 1
  29   15   20 1
  30   16   17 2
  31   16   48 1
  32   17   18 1
  33   17   49 1
  34   18   19 2
  35   18   50 1
  36   19   20 1
  37   19   51 1
  38   21   22 ar
  39   21   26 ar
  40   22   23 ar
  41   22   52 1
  42   23   24 ar
  43   23   53 1
  44   24   25 ar
  45   24   54 1
  46   25   26 ar
  47   25   55 1
  48   26   56 1
  49   27   28 1
  50   27   57 1
  51   27   58 1
  52   28   29 ar
  53   28   33 ar
  54   29   30 ar
  55   29   34 1
  56   30   31 ar
  57   30   35 1
  58   31   32 ar
  59   31   59 1
  60   32   33 ar
  61   32   60 1
  62   33   61 1
  63   34   62 1
  64   34   63 1
  65   34   64 1
  66   36   37 1
  67   36   39 1
  68   36   38 1
  69   37   65 1
  70   37   66 1
  71   37   67 1
  72   38   68 1
  73   38   69 1
  74   38   70 1
  75   39   71 1
  76   39   72 1
  77   39   73 1

#	End of record

