#	Name: ASD13010011
#	Creating user name:	WinNT
#	Creation time:	15. 06. 2019 21:30

#	Modifying user name:	WinNT
#	Modification time:	15. 06. 2019 21:30

#	Program:	/corina/corina34_cracker 3.40 0067  02.08.2006

@<TRIPOS>MOLECULE
ASD13010011
  51   54    0    0    0
SMALL
NO_CHARGES


@<TRIPOS>ATOM
   1 C1            -0.3073     1.1386     1.0335 C.ar    
   2 C2            -0.1976    -0.2001     0.8030 C.ar    
   3 C3             1.0293    -0.7616     0.4195 C.ar    
   4 C4             2.1506     0.0463     0.2700 C.ar    
   5 C5             0.8035     1.9680     0.8895 C.ar    
   6 N6             1.0035     3.3159     1.0456 N.pl3   
   7 C7             2.0433     1.4174     0.5044 C.ar    
   8 C8             2.9860     2.5322     0.4445 C.2     
   9 N9             2.3403     3.6163     0.7658 N.2     
  10 C10            0.0284     4.2402     1.4230 C.ar    
  11 S11            4.6917     2.4280     0.0150 S.o2    
  12 C12            4.8041     2.6420    -1.7303 C.ar    
  13 C13            4.7320     1.5437    -2.5682 C.ar    
  14 C14            4.9589     3.9091    -2.2635 C.ar    
  15 C15            5.0471     4.0765    -3.6341 C.ar    
  16 C16            4.9803     2.9782    -4.4705 C.ar    
  17 C17            4.8204     1.7124    -3.9386 C.ar    
  18 Cl18           4.5312    -0.0460    -1.9004 Cl      
  19 C19           -1.9080     6.0756     2.1724 C.ar    
  20 C20           -2.2517     4.9815     1.3729 C.ar    
  21 C21           -1.2873     4.0718     1.0025 C.ar    
  22 C22            0.3730     5.3248     2.2235 C.ar    
  23 C23           -0.5863     6.2385     2.5977 C.ar    
  24 C24           -2.9384     7.0526     2.5708 C.2     
  25 O25           -4.0877     6.9072     2.2042 O.2     
  26 O26           -2.6054     8.1066     3.3415 O.3     
  27 Cl27           5.0417     5.2888    -1.2132 Cl      
  28 O28            5.3225     3.5592     0.5995 O.2     
  29 O29            5.0917     1.0908     0.2819 O.2     
  30 C30            1.1300    -2.2144     0.1743 C.2     
  31 O31            2.0902    -2.8354     0.5871 O.2     
  32 N32            0.1575    -2.8519    -0.5071 N.am    
  33 C33            0.2993    -4.2743    -0.8278 C.3     
  34 C34           -1.0415    -2.1224    -0.9271 C.3     
  35 H35           -1.2588     1.5586     1.3242 H       
  36 H36           -1.0637    -0.8350     0.9171 H       
  37 H37            3.0966    -0.3836    -0.0245 H       
  38 H38            5.1680     5.0657    -4.0505 H       
  39 H39            5.0485     3.1094    -5.5403 H       
  40 H40            4.7641     0.8550    -4.5929 H       
  41 H41           -3.2719     4.8524     1.0428 H       
  42 H42           -1.5520     3.2265     0.3846 H       
  43 H43            1.3942     5.4498     2.5520 H       
  44 H44           -0.3171     7.0827     3.2152 H       
  45 H45           -3.3149     8.7200     3.5769 H       
  46 H46           -0.1252    -4.8726    -0.0215 H       
  47 H47           -0.2270    -4.4915    -1.7572 H       
  48 H48            1.3557    -4.5172    -0.9430 H       
  49 H49           -0.9246    -1.0647    -0.6911 H       
  50 H50           -1.1816    -2.2415    -2.0015 H       
  51 H51           -1.9105    -2.5181    -0.4013 H       
@<TRIPOS>BOND
   1    1    2 ar
   2    1    5 ar
   3    1   35 1
   4    2    3 ar
   5    2   36 1
   6    3    4 ar
   7    3   30 1
   8    4    7 ar
   9    4   37 1
  10    5    7 ar
  11    5    6 1
  12    6    9 1
  13    6   10 1
  14    7    8 1
  15    8    9 2
  16    8   11 1
  17   10   22 ar
  18   10   21 ar
  19   11   12 1
  20   11   28 2
  21   11   29 2
  22   12   14 ar
  23   12   13 ar
  24   13   17 ar
  25   13   18 1
  26   14   15 ar
  27   14   27 1
  28   15   16 ar
  29   15   38 1
  30   16   17 ar
  31   16   39 1
  32   17   40 1
  33   19   20 ar
  34   19   23 ar
  35   19   24 1
  36   20   21 ar
  37   20   41 1
  38   21   42 1
  39   22   23 ar
  40   22   43 1
  41   23   44 1
  42   24   25 2
  43   24   26 1
  44   26   45 1
  45   30   31 2
  46   30   32 am
  47   32   33 1
  48   32   34 1
  49   33   46 1
  50   33   47 1
  51   33   48 1
  52   34   49 1
  53   34   50 1
  54   34   51 1

#	End of record

