#	Name: ASD10160071
#	Creating user name:	WinNT
#	Creation time:	15. 06. 2019 21:25

#	Modifying user name:	WinNT
#	Modification time:	15. 06. 2019 21:25

#	Program:	/corina/corina34_cracker 3.40 0067  02.08.2006

@<TRIPOS>MOLECULE
ASD10160071
  39   40    0    0    0
SMALL
NO_CHARGES


@<TRIPOS>ATOM
   1 C1            -0.3986     1.1115    -1.9425 C.2     
   2 C2            -0.2784    -0.2684    -1.4370 C.ar    
   3 C3             0.9056    -0.9886    -1.6362 C.ar    
   4 C4             1.0127    -2.2800    -1.1610 C.ar    
   5 C5            -0.0517    -2.8640    -0.4866 C.ar    
   6 C6            -1.2301    -2.1508    -0.2869 C.ar    
   7 C7            -1.3443    -0.8597    -0.7524 C.ar    
   8 O8             0.5316     1.6257    -2.5335 O.2     
   9 N9            -1.5413     1.8009    -1.7545 N.am    
  10 S10           -1.6763     3.3507    -2.3222 S.o2    
  11 O11           -2.9789     3.7569    -1.9257 O.2     
  12 O12           -0.5199     4.0087    -1.8231 O.2     
  13 C13           -1.5837     3.1817    -4.1260 C.3     
  14 F14            1.9410    -0.4209    -2.2926 F       
  15 O15            0.0574    -4.1341    -0.0213 O.3     
  16 C16            1.5454    -5.5219    -1.2607 C.ar    
  17 C17            1.2602    -4.7568    -0.1412 C.ar    
  18 C18            2.2206    -4.6330     0.8591 C.ar    
  19 C19            3.4315    -5.2842     0.6945 C.ar    
  20 C20            3.6460    -6.0341    -0.4556 C.ar    
  21 N21            2.7102    -6.1293    -1.3846 N.ar    
  22 O22            4.8298    -6.6766    -0.6270 O.3     
  23 C23            4.9901    -7.4314    -1.8298 C.3     
  24 C24            6.3764    -8.0786    -1.8447 C.3     
  25 F25            6.5066    -8.9277    -0.7405 F       
  26 F26            6.5334    -8.8175    -3.0222 F       
  27 F27            7.3568    -7.0824    -1.7851 F       
  28 Cl28           4.6661    -5.1647     1.9091 Cl      
  29 Cl29          -2.5563    -2.8880     0.5565 Cl      
  30 H30            1.9252    -2.8372    -1.3140 H       
  31 H31           -2.2578    -0.3062    -0.5927 H       
  32 H32           -2.2847     1.3893    -1.2867 H       
  33 H33           -2.3997     2.5483    -4.4739 H       
  34 H34           -1.6651     4.1656    -4.5878 H       
  35 H35           -0.6305     2.7295    -4.4001 H       
  36 H36            0.8037    -5.6263    -2.0388 H       
  37 H37            2.0259    -4.0428     1.7424 H       
  38 H38            4.2263    -8.2075    -1.8762 H       
  39 H39            4.8887    -6.7698    -2.6901 H       
@<TRIPOS>BOND
   1    1    2 1
   2    1    8 2
   3    1    9 am
   4    2    3 ar
   5    2    7 ar
   6    3    4 ar
   7    3   14 1
   8    4    5 ar
   9    4   30 1
  10    5    6 ar
  11    5   15 1
  12    6    7 ar
  13    6   29 1
  14    7   31 1
  15    9   10 am
  16    9   32 1
  17   10   11 2
  18   10   12 2
  19   10   13 1
  20   13   33 1
  21   13   34 1
  22   13   35 1
  23   15   17 1
  24   16   17 ar
  25   16   21 ar
  26   16   36 1
  27   17   18 ar
  28   18   19 ar
  29   18   37 1
  30   19   20 ar
  31   19   28 1
  32   20   21 ar
  33   20   22 1
  34   22   23 1
  35   23   24 1
  36   23   38 1
  37   23   39 1
  38   24   25 1
  39   24   26 1
  40   24   27 1

#	End of record

