#	Name: ASD17030001
#	Creating user name:	WinNT
#	Creation time:	15. 06. 2019 21:31

#	Modifying user name:	WinNT
#	Modification time:	15. 06. 2019 21:31

#	Program:	/corina/corina34_cracker 3.40 0067  02.08.2006

@<TRIPOS>MOLECULE
ASD17030001
  83   83    0    0    0
SMALL
NO_CHARGES


@<TRIPOS>ATOM
   1 C1            -0.0187     1.5258     0.0104 C.3     
   2 C2             0.0021    -0.0041     0.0020 C.3     
   3 C3             0.7421    -0.5109     1.2415 C.3     
   4 C4             0.7628    -2.0407     1.2331 C.3     
   5 C5             1.4917    -2.5400     2.4540 C.2     
   6 O6             1.9478    -1.7529     3.2493 O.2     
   7 O7             1.6342    -3.8590     2.6580 O.3     
   8 C8             2.3474    -4.2676     3.8549 C.3     
   9 C9             2.4089    -5.7952     3.9155 C.3     
  10 C10            0.9925    -6.3666     3.8243 C.3     
  11 O11            0.3526    -5.8682     2.6478 O.3     
  12 P12           -1.1520    -6.2638     2.2335 P.3     
  13 O13           -2.1794    -5.6914     3.3330 O.3     
  14 O14           -1.2736    -7.7371     2.1645 O.2     
  15 O15           -1.4971    -5.6288     0.7948 O.3     
  16 C16           -2.7213    -5.8858     0.1040 C.3     
  17 C17           -3.4647    -4.5681    -0.1239 C.3     
  18 C18           -2.5938    -3.6295    -0.9615 C.3     
  19 C19           -2.2904    -4.2839    -2.3108 C.3     
  20 C20           -1.5470    -5.6016    -2.0829 C.3     
  21 C21           -2.4179    -6.5402    -1.2453 C.3     
  22 O22           -1.7236    -7.7709    -1.0324 O.3     
  23 O23           -1.2636    -6.2128    -3.3432 O.3     
  24 O24           -1.4770    -3.4073    -3.0931 O.3     
  25 O25           -1.3696    -3.3725    -0.2707 O.3     
  26 O26           -3.7481    -3.9570     1.1363 O.3     
  27 O27            3.2035    -6.2920     2.8064 O.3     
  28 C28            4.5216    -6.4341     3.0167 C.2     
  29 O29            4.9956    -6.1527     4.0918 O.2     
  30 C30            5.4101    -6.9446     1.9117 C.3     
  31 C31            6.8554    -7.0116     2.4093 C.3     
  32 C32            7.7575    -7.5300     1.2875 C.3     
  33 C33            9.2027    -7.5970     1.7850 C.3     
  34 C34           10.1048    -8.1153     0.6632 C.3     
  35 C35           11.5501    -8.1823     1.1608 C.3     
  36 C36           12.4522    -8.7006     0.0390 C.3     
  37 C37           13.8975    -8.7676     0.5366 C.3     
  38 C38           14.7996    -9.2859    -0.5853 C.3     
  39 H39            1.0039     1.9031     0.0027 H       
  40 H40           -0.5459     1.8868    -0.8726 H       
  41 H41           -0.5289     1.8773     0.9072 H       
  42 H42           -1.0205    -0.3814     0.0098 H       
  43 H43            0.5123    -0.3556    -0.8948 H       
  44 H44            1.7647    -0.1336     1.2338 H       
  45 H45            0.2319    -0.1594     2.1383 H       
  46 H46           -0.2598    -2.4180     1.2409 H       
  47 H47            1.2730    -2.3923     0.3363 H       
  48 H48            3.3597    -3.8640     3.8304 H       
  49 H49            1.8269    -3.8898     4.7349 H       
  50 H50            2.8651    -6.1035     4.8562 H       
  51 H51            1.0418    -7.4545     3.7780 H       
  52 H52            0.4221    -6.0658     4.7032 H       
  53 H53           -2.1542    -4.7298     3.4321 H       
  54 H54           -3.3417    -6.5545     0.7007 H       
  55 H55           -4.3985    -4.7642    -0.6508 H       
  56 H56           -3.1234    -2.6908    -1.1239 H       
  57 H57           -3.2242    -4.4800    -2.8377 H       
  58 H58           -0.6132    -5.4056    -1.5560 H       
  59 H59           -3.3517    -6.7362    -1.7722 H       
  60 H60           -1.4984    -8.2414    -1.8467 H       
  61 H61           -0.7142    -5.6726    -3.9275 H       
  62 H62           -1.2451    -3.7583    -3.9638 H       
  63 H63           -0.7669    -2.7832    -0.7445 H       
  64 H64           -4.2194    -3.1153     1.0682 H       
  65 H65            5.0823    -7.9402     1.6126 H       
  66 H66            5.3509    -6.2706     1.0571 H       
  67 H67            7.1832    -6.0161     2.7084 H       
  68 H68            6.9145    -7.6857     3.2638 H       
  69 H69            7.4297    -8.5255     0.9883 H       
  70 H70            7.6983    -6.8559     0.4329 H       
  71 H71            9.5305    -6.6014     2.0842 H       
  72 H72            9.2619    -8.2710     2.6396 H       
  73 H73            9.7770    -9.1108     0.3641 H       
  74 H74           10.0456    -7.4412    -0.1913 H       
  75 H75           11.8779    -7.1867     1.4599 H       
  76 H76           11.6093    -8.8563     2.0153 H       
  77 H77           12.1244    -9.6962    -0.2602 H       
  78 H78           12.3930    -8.0266    -0.8156 H       
  79 H79           14.2253    -7.7720     0.8357 H       
  80 H80           13.9566    -9.4416     1.3911 H       
  81 H81           14.4718   -10.2815    -0.8844 H       
  82 H82           14.7404    -8.6119    -1.4398 H       
  83 H83           15.8292    -9.3337    -0.2308 H       
@<TRIPOS>BOND
   1    1    2 1
   2    1   39 1
   3    1   40 1
   4    1   41 1
   5    2    3 1
   6    2   42 1
   7    2   43 1
   8    3    4 1
   9    3   44 1
  10    3   45 1
  11    4    5 1
  12    4   46 1
  13    4   47 1
  14    5    7 1
  15    5    6 2
  16    7    8 1
  17    8    9 1
  18    8   48 1
  19    8   49 1
  20    9   10 1
  21    9   50 1
  22    9   27 1
  23   10   11 1
  24   10   51 1
  25   10   52 1
  26   11   12 1
  27   12   13 1
  28   12   15 1
  29   12   14 2
  30   13   53 1
  31   15   16 1
  32   16   54 1
  33   16   17 1
  34   16   21 1
  35   17   55 1
  36   17   18 1
  37   17   26 1
  38   18   56 1
  39   18   19 1
  40   18   25 1
  41   19   57 1
  42   19   20 1
  43   19   24 1
  44   20   23 1
  45   20   58 1
  46   20   21 1
  47   21   59 1
  48   21   22 1
  49   22   60 1
  50   23   61 1
  51   24   62 1
  52   25   63 1
  53   26   64 1
  54   27   28 1
  55   28   29 2
  56   28   30 1
  57   30   65 1
  58   30   66 1
  59   30   31 1
  60   31   67 1
  61   31   68 1
  62   31   32 1
  63   32   69 1
  64   32   70 1
  65   32   33 1
  66   33   71 1
  67   33   72 1
  68   33   34 1
  69   34   73 1
  70   34   74 1
  71   34   35 1
  72   35   75 1
  73   35   76 1
  74   35   36 1
  75   36   77 1
  76   36   78 1
  77   36   37 1
  78   37   79 1
  79   37   80 1
  80   37   38 1
  81   38   81 1
  82   38   82 1
  83   38   83 1

#	End of record

