#	Name: ASD10950067
#	Creating user name:	WinNT
#	Creation time:	15. 06. 2019 21:28

#	Modifying user name:	WinNT
#	Modification time:	15. 06. 2019 21:28

#	Program:	/corina/corina34_cracker 3.40 0067  02.08.2006

@<TRIPOS>MOLECULE
ASD10950067
  58   62    0    0    0
SMALL
NO_CHARGES


@<TRIPOS>ATOM
   1 C1             0.6415     1.3396    -2.1832 C.3     
   2 O2             0.5569    -0.0616    -1.8122 O.3     
   3 C3             1.0713    -0.4099    -0.6169 C.2     
   4 O4             1.5767     0.4338     0.0960 O.2     
   5 C5             1.0208    -1.8180    -0.1730 C.ar    
   6 C6             1.5530    -2.1825     1.0654 C.ar    
   7 C7             1.5025    -3.4991     1.4737 C.ar    
   8 C8             0.9261    -4.4577     0.6591 C.ar    
   9 C9             0.3968    -4.1035    -0.5692 C.ar    
  10 C10            0.4354    -2.7895    -0.9874 C.ar    
  11 C11            0.8751    -5.8943     1.1117 C.3     
  12 N12           -0.4763    -6.4348     0.9235 N.am    
  13 C13           -1.7003    -5.9344     1.5540 C.3     
  14 C14           -2.3310    -4.8620     0.6635 C.3     
  15 N15           -3.5551    -4.3616     1.2940 N.pl3   
  16 C16           -4.8217    -4.7954     1.0530 C.2     
  17 N17           -5.6683    -4.1331     1.7860 N.2     
  18 C18           -5.0019    -3.2281     2.5481 C.ar    
  19 C19           -3.6364    -3.3664     2.2473 C.ar    
  20 C20           -2.7036    -2.5596     2.8848 C.ar    
  21 C21           -3.1250    -1.6278     3.8092 C.ar    
  22 C22           -4.4738    -1.4916     4.1059 C.ar    
  23 C23           -5.4054    -2.2799     3.4919 C.ar    
  24 C24           -0.3925    -7.4711     0.0696 C.2     
  25 O25           -1.3321    -8.1450    -0.3033 O.2     
  26 C26            1.0120    -7.6679    -0.3486 C.2     
  27 C27            1.7904    -6.7406     0.2582 C.2     
  28 C28            3.2403    -6.5873     0.1144 C.2     
  29 O29            3.7131    -6.2499    -0.9542 O.2     
  30 C30            4.1306    -6.8434     1.2705 C.ar    
  31 C31            5.5146    -6.6695     1.1647 C.ar    
  32 C32            6.3070    -6.9192     2.2679 C.ar    
  33 N33            5.7757    -7.3158     3.4074 N.ar    
  34 C34            4.4770    -7.4921     3.5501 C.ar    
  35 C35            3.6101    -7.2603     2.5002 C.ar    
  36 O36            1.4497    -8.6227    -1.2007 O.3     
  37 H37            1.6875     1.6447    -2.2144 H       
  38 H38            0.1917     1.4831    -3.1656 H       
  39 H39            0.1088     1.9429    -1.4481 H       
  40 H40            2.0035    -1.4353     1.7019 H       
  41 H41            1.9141    -3.7825     2.4311 H       
  42 H42           -0.0513    -4.8567    -1.2002 H       
  43 H43            0.0219    -2.5143    -1.9464 H       
  44 H44            1.1651    -5.9671     2.1599 H       
  45 H45           -2.4034    -6.7568     1.6859 H       
  46 H46           -1.4585    -5.5037     2.5257 H       
  47 H47           -1.6279    -4.0396     0.5315 H       
  48 H48           -2.5728    -5.2927    -0.3082 H       
  49 H49           -5.0860    -5.5757     0.3546 H       
  50 H50           -1.6527    -2.6617     2.6578 H       
  51 H51           -2.4005    -0.9997     4.3062 H       
  52 H52           -4.7899    -0.7575     4.8322 H       
  53 H53           -6.4526    -2.1653     3.7300 H       
  54 H54            5.9567    -6.3452     0.2342 H       
  55 H55            7.3766    -6.7881     2.1961 H       
  56 H56            4.0853    -7.8181     4.5023 H       
  57 H57            2.5473    -7.4064     2.6244 H       
  58 H58            0.7506    -9.1993    -1.5380 H       
@<TRIPOS>BOND
   1    1    2 1
   2    1   37 1
   3    1   38 1
   4    1   39 1
   5    2    3 1
   6    3    4 2
   7    3    5 1
   8    5    6 ar
   9    5   10 ar
  10    6    7 ar
  11    6   40 1
  12    7    8 ar
  13    7   41 1
  14    8    9 ar
  15    8   11 1
  16    9   10 ar
  17    9   42 1
  18   10   43 1
  19   11   12 1
  20   11   27 1
  21   11   44 1
  22   12   13 1
  23   12   24 am
  24   13   14 1
  25   13   45 1
  26   13   46 1
  27   14   15 1
  28   14   47 1
  29   14   48 1
  30   15   16 1
  31   15   19 1
  32   16   17 2
  33   16   49 1
  34   17   18 1
  35   18   19 ar
  36   18   23 ar
  37   19   20 ar
  38   20   21 ar
  39   20   50 1
  40   21   22 ar
  41   21   51 1
  42   22   23 ar
  43   22   52 1
  44   23   53 1
  45   24   25 2
  46   24   26 1
  47   26   27 2
  48   26   36 1
  49   27   28 1
  50   28   29 2
  51   28   30 1
  52   30   31 ar
  53   30   35 ar
  54   31   32 ar
  55   31   54 1
  56   32   33 ar
  57   32   55 1
  58   33   34 ar
  59   34   35 ar
  60   34   56 1
  61   35   57 1
  62   36   58 1

#	End of record

