#	Name: ASD16730002
#	Creating user name:	WinNT
#	Creation time:	15. 06. 2019 21:31

#	Modifying user name:	WinNT
#	Modification time:	15. 06. 2019 21:31

#	Program:	/corina/corina34_cracker 3.40 0067  02.08.2006

@<TRIPOS>MOLECULE
ASD16730002
  31   33    0    0    0
SMALL
NO_CHARGES


@<TRIPOS>ATOM
   1 N1             0.0699     1.3292    -0.0058 N.2     
   2 C2             4.8386    -3.3663     1.1205 C.ar    
   3 N3             2.1417     0.7323     0.0128 N.2     
   4 N4             1.3477    -0.4220     0.0022 N.pl3   
   5 C5             3.0364    -2.2231     0.0149 C.ar    
   6 C6             0.5765    -2.6713    -0.0101 C.2     
   7 C7             0.8316    -4.1145    -0.0111 C.2     
   8 C8            -0.7452    -2.1716    -0.0225 C.2     
   9 N9            -0.9617    -0.8795    -0.0213 N.2     
  10 C10            5.1811    -2.4086    -1.0560 C.ar    
  11 O11            1.3648    -4.6356    -0.9683 O.2     
  12 C12            5.6633    -3.1064     0.0401 C.ar    
  13 C13           -1.9096    -3.1282    -0.0375 C.3     
  14 C14            0.0480     0.0021    -0.0093 C.2     
  15 C15            1.3259     1.7583     0.0074 C.2     
  16 C16            3.8749    -1.9587    -1.0714 C.ar    
  17 C17            3.5299    -2.9324     1.1142 C.ar    
  18 C18            1.6386    -1.7561     0.0021 C.2     
  19 C19            0.4316    -4.9511     1.1768 C.3     
  20 F20            5.9941    -2.1546    -2.1047 F       
  21 H21            5.2200    -3.9145     1.9693 H       
  22 H22            6.6875    -3.4489     0.0510 H       
  23 H23           -2.1418    -3.4340     0.9827 H       
  24 H24           -2.7781    -2.6366    -0.4760 H       
  25 H25           -1.6512    -4.0059    -0.6300 H       
  26 H26            1.6295     2.7947     0.0124 H       
  27 H27            3.4994    -1.4150    -1.9256 H       
  28 H28            2.8869    -3.1403     1.9567 H       
  29 H29           -0.6140    -5.2434     1.0798 H       
  30 H30            1.0560    -5.8436     1.2194 H       
  31 H31            0.5636    -4.3715     2.0904 H       
@<TRIPOS>BOND
   1    1   14 2
   2    1   15 1
   3    2   17 ar
   4    2   21 1
   5    2   12 ar
   6    3   15 2
   7    3    4 1
   8    4   14 1
   9    4   18 1
  10    5   18 1
  11    5   16 ar
  12    5   17 ar
  13    6    8 1
  14    6    7 1
  15    6   18 2
  16    7   19 1
  17    7   11 2
  18    8   13 1
  19    8    9 2
  20    9   14 1
  21   10   16 ar
  22   10   12 ar
  23   10   20 1
  24   12   22 1
  25   13   23 1
  26   13   24 1
  27   13   25 1
  28   15   26 1
  29   16   27 1
  30   17   28 1
  31   19   29 1
  32   19   30 1
  33   19   31 1

#	End of record

