#	Name: ASD10690004
#	Creating user name:	WinNT
#	Creation time:	15. 06. 2019 21:28

#	Modifying user name:	WinNT
#	Modification time:	15. 06. 2019 21:28

#	Program:	/corina/corina34_cracker 3.40 0067  02.08.2006

@<TRIPOS>MOLECULE
ASD10690004
  29   31    0    0    0
SMALL
NO_CHARGES


@<TRIPOS>ATOM
   1 C1            -0.0168     1.3862     0.0097 C.ar    
   2 C2             0.0021    -0.0041     0.0020 C.ar    
   3 C3             1.2008    -0.6788    -0.0131 C.ar    
   4 C4             2.4062     0.0299    -0.0208 C.ar    
   5 C5             2.3919     1.4305    -0.0132 C.ar    
   6 C6             1.1428     2.0955     0.0024 C.ar    
   7 S7             4.0701    -0.5432    -0.0398 S.3     
   8 C8             4.6891     1.0988    -0.0370 C.2     
   9 C9             3.6840     1.9829    -0.0226 C.2     
  10 Cl10           3.9584     3.6971    -0.0167 Cl      
  11 C11            6.1128     1.4539    -0.0488 C.2     
  12 N12            7.0491     0.4845    -0.0634 N.am    
  13 O13            6.4482     2.6235    -0.0453 O.2     
  14 Cl14          -1.4905    -0.8905     0.0121 Cl      
  15 C15            8.4010     0.8216    -0.0746 C.2     
  16 C16            9.5213    -0.1239    -0.0909 C.2     
  17 N17            8.8858     2.0321    -0.0781 N.2     
  18 O18           10.2990     1.9340    -0.0908 O.3     
  19 N19           10.6328     0.5573    -0.0986 N.2     
  20 N20            9.4159    -1.5144    -0.0965 N.am    
  21 C21           10.5288    -2.2745    -0.1118 C.2     
  22 O22           11.6238    -1.7481    -0.1208 O.2     
  23 O23           10.4270    -3.6170    -0.1172 O.3     
  24 H24           -0.9624     1.9079     0.0170 H       
  25 H25            1.2110    -1.7587    -0.0186 H       
  26 H26            1.1106     3.1750     0.0085 H       
  27 H27            6.7817    -0.4480    -0.0662 H       
  28 H28            8.5416    -1.9345    -0.0893 H       
  29 H29           11.2529    -4.1198    -0.1283 H       
@<TRIPOS>BOND
   1    1    2 ar
   2    1    6 ar
   3    1   24 1
   4    2    3 ar
   5    2   14 1
   6    3    4 ar
   7    3   25 1
   8    4    5 ar
   9    4    7 1
  10    5    6 ar
  11    5    9 1
  12    6   26 1
  13    7    8 1
  14    8    9 2
  15    8   11 1
  16    9   10 1
  17   11   12 am
  18   11   13 2
  19   12   15 1
  20   12   27 1
  21   15   16 1
  22   15   17 2
  23   16   20 1
  24   16   19 2
  25   17   18 1
  26   18   19 1
  27   20   21 am
  28   20   28 1
  29   21   22 2
  30   21   23 1
  31   23   29 1

#	End of record

