#	Name: ASD10160556
#	Creating user name:	WinNT
#	Creation time:	15. 06. 2019 21:26

#	Modifying user name:	WinNT
#	Modification time:	15. 06. 2019 21:26

#	Program:	/corina/corina34_cracker 3.40 0067  02.08.2006

@<TRIPOS>MOLECULE
ASD10160556
  35   36    0    0    0
SMALL
NO_CHARGES


@<TRIPOS>ATOM
   1 C1            -2.2271    -2.6031     4.8625 C.2     
   2 C2            -1.6263    -3.0054     3.5792 C.ar    
   3 C3            -0.3012    -3.4572     3.5346 C.ar    
   4 C4             0.2563    -3.8332     2.3295 C.ar    
   5 C5            -0.4948    -3.7639     1.1632 C.ar    
   6 C6            -1.8119    -3.3154     1.2037 C.ar    
   7 C7            -2.3790    -2.9429     2.4020 C.ar    
   8 O8            -1.5730    -2.6629     5.8849 O.2     
   9 O9            -3.5005    -2.1635     4.9021 O.3     
  10 F10            0.4296    -3.5243     4.6688 F       
  11 O11            0.0574    -4.1342    -0.0197 O.3     
  12 C12            2.4200    -3.8535    -0.1444 C.ar    
  13 C13            1.3079    -4.6677    -0.0012 C.ar    
  14 C14            1.4868    -6.0386     0.1622 C.ar    
  15 C15            2.7783    -6.5379     0.1754 C.ar    
  16 C16            3.8451    -5.6600     0.0260 C.ar    
  17 N17            3.6369    -4.3634    -0.1271 N.ar    
  18 O18            5.1154    -6.1390     0.0379 O.3     
  19 C19            7.3610    -5.8550    -0.8092 C.3     
  20 C20            6.1693    -5.1870    -0.1202 C.3     
  21 C21            6.5992    -4.6692     1.2538 C.3     
  22 F22            6.9679    -6.3285    -2.0655 F       
  23 F23            8.3927    -4.9230    -0.9640 F       
  24 F24            7.8119    -6.9244    -0.0280 F       
  25 Cl25           3.0612    -8.2389     0.3765 Cl      
  26 Cl26          -2.7436    -3.2312    -0.2587 Cl      
  27 H27            1.2779    -4.1815     2.2931 H       
  28 H28           -3.4025    -2.5994     2.4322 H       
  29 H29           -3.8510    -1.9108     5.7672 H       
  30 H30            2.2891    -2.7896    -0.2761 H       
  31 H31            0.6384    -6.6970     0.2765 H       
  32 H32            5.8180    -4.3538    -0.7289 H       
  33 H33            6.9505    -5.5024     1.8625 H       
  34 H34            7.4031    -3.9430     1.1332 H       
  35 H35            5.7503    -4.1933     1.7446 H       
@<TRIPOS>BOND
   1    1    2 1
   2    1    8 2
   3    1    9 1
   4    2    3 ar
   5    2    7 ar
   6    3    4 ar
   7    3   10 1
   8    4    5 ar
   9    4   27 1
  10    5    6 ar
  11    5   11 1
  12    6    7 ar
  13    6   26 1
  14    7   28 1
  15    9   29 1
  16   11   13 1
  17   12   13 ar
  18   12   17 ar
  19   12   30 1
  20   13   14 ar
  21   14   15 ar
  22   14   31 1
  23   15   16 ar
  24   15   25 1
  25   16   17 ar
  26   16   18 1
  27   18   20 1
  28   19   20 1
  29   19   22 1
  30   19   23 1
  31   19   24 1
  32   20   21 1
  33   20   32 1
  34   21   33 1
  35   21   34 1
  36   21   35 1

#	End of record

