#	Name: ASD10610170
#	Creating user name:	WinNT
#	Creation time:	15. 06. 2019 21:28

#	Modifying user name:	WinNT
#	Modification time:	15. 06. 2019 21:28

#	Program:	/corina/corina34_cracker 3.40 0067  02.08.2006

@<TRIPOS>MOLECULE
ASD10610170
  38   40    0    0    0
SMALL
NO_CHARGES


@<TRIPOS>ATOM
   1 N1            -0.0178     1.4648     0.0101 N.3     
   2 C2             0.0021    -0.0041     0.0020 C.3     
   3 C3             0.6299    -0.4984    -1.3027 C.3     
   4 C4            -3.9986    -1.4854     0.3101 C.ar    
   5 C5            -2.9286    -2.2720     0.7335 C.ar    
   6 C6            -1.6376    -1.7891     0.6325 C.ar    
   7 C7            -1.4074    -0.5262     0.1106 C.ar    
   8 C8            -2.4665     0.2568    -0.3103 C.ar    
   9 C9            -3.7597    -0.2159    -0.2134 C.ar    
  10 C10           -5.3854    -1.9999     0.4101 C.ar    
  11 C11           -6.3866    -1.2178     1.0068 C.ar    
  12 C12           -7.6868    -1.7121     1.0945 C.ar    
  13 C13           -7.9838    -2.9670     0.5949 C.ar    
  14 C14           -6.9948    -3.7376     0.0069 C.ar    
  15 C15           -5.7023    -3.2585    -0.0925 C.ar    
  16 N16           -6.8975     0.9653     2.1238 N.2     
  17 N17           -6.2341     2.0222     2.4458 N.pl3   
  18 N18           -5.0062     1.8806     2.0863 N.2     
  19 N19           -4.8636     0.7272     1.5268 N.2     
  20 C20           -6.0626     0.1269     1.5414 C.2     
  21 C21           -6.7903     3.2002     3.1159 C.3     
  22 F22           -8.6563    -0.9661     1.6678 F       
  23 F23           -0.5988    -2.5495     1.0422 F       
  24 Cl24          -7.3822    -5.3114    -0.6149 Cl      
  25 H25            0.9191     1.8392     0.0032 H       
  26 H26           -0.5563     1.8234    -0.7642 H       
  27 H27            0.5890    -0.3641     0.8470 H       
  28 H28            1.6494    -0.1208    -1.3813 H       
  29 H29            0.6447    -1.5883    -1.3087 H       
  30 H30            0.0430    -0.1384    -2.1477 H       
  31 H31           -3.1080    -3.2563     1.1402 H       
  32 H32           -2.2814     1.2406    -0.7156 H       
  33 H33           -4.5856     0.3974    -0.5424 H       
  34 H34           -8.9919    -3.3480     0.6640 H       
  35 H35           -4.9369    -3.8627    -0.5566 H       
  36 H36           -6.7088     3.0762     4.1958 H       
  37 H37           -6.2369     4.0878     2.8092 H       
  38 H38           -7.8391     3.3130     2.8413 H       
@<TRIPOS>BOND
   1    1    2 1
   2    1   25 1
   3    1   26 1
   4    2    3 1
   5    2    7 1
   6    2   27 1
   7    3   28 1
   8    3   29 1
   9    3   30 1
  10    4    5 ar
  11    4    9 ar
  12    4   10 1
  13    5    6 ar
  14    5   31 1
  15    6    7 ar
  16    6   23 1
  17    7    8 ar
  18    8    9 ar
  19    8   32 1
  20    9   33 1
  21   10   11 ar
  22   10   15 ar
  23   11   12 ar
  24   11   20 1
  25   12   13 ar
  26   12   22 1
  27   13   14 ar
  28   13   34 1
  29   14   15 ar
  30   14   24 1
  31   15   35 1
  32   16   17 1
  33   16   20 2
  34   17   18 1
  35   17   21 1
  36   18   19 2
  37   19   20 1
  38   21   36 1
  39   21   37 1
  40   21   38 1

#	End of record

