#	Name: ASD10610001
#	Creating user name:	WinNT
#	Creation time:	15. 06. 2019 21:27

#	Modifying user name:	WinNT
#	Modification time:	15. 06. 2019 21:27

#	Program:	/corina/corina34_cracker 3.40 0067  02.08.2006

@<TRIPOS>MOLECULE
ASD10610001
  53   56    0    0    0
SMALL
NO_CHARGES


@<TRIPOS>ATOM
   1 C1             0.3584     2.1115     0.7147 C.ar    
   2 C2             0.8685     0.8146     0.6764 C.ar    
   3 C3             2.2406     0.6173     0.5350 C.ar    
   4 C4             3.0904     1.7027     0.4334 C.ar    
   5 C5             2.5784     2.9879     0.4721 C.ar    
   6 C6             1.2141     3.1877     0.6126 C.ar    
   7 C7             3.7056     3.9906     0.3427 C.3     
   8 C8            -0.0437    -0.3481     0.7860 C.ar    
   9 C9             0.1349    -1.2850     1.7994 C.ar    
  10 C10           -0.7169    -2.3672     1.8977 C.ar    
  11 C11           -1.7525    -2.5296     0.9926 C.ar    
  12 C12           -1.9461    -1.6119    -0.0190 C.ar    
  13 C13           -1.0992    -0.5085    -0.1305 C.ar    
  14 C14           -1.3012     0.4762    -1.2100 C.2     
  15 N15            4.0402     4.5513     1.6541 N.am    
  16 C16            3.3659     5.6205     2.1218 C.2     
  17 O17            2.5456     6.1743     1.4208 O.2     
  18 C18            3.6312     6.1279     3.5158 C.3     
  19 N19            5.0123     5.9924     3.9853 N.am    
  20 C20            5.9982     6.6921     3.3896 C.2     
  21 C21            7.3992     6.6401     3.9425 C.3     
  22 O22            5.7580     7.3635     2.4086 O.2     
  23 F23            8.2389     7.4409     3.1610 F       
  24 F24            7.3984     7.1116     5.2597 F       
  25 F25            7.8607     5.3196     3.9201 F       
  26 C26            4.5951     1.7563     0.2752 C.3     
  27 C27            4.8989     3.1874    -0.2165 C.3     
  28 C28            2.8428     7.3528     3.9837 C.3     
  29 C29            2.5147     5.9690     4.5498 C.3     
  30 O30           -2.3822     0.3873    -2.0094 O.3     
  31 O31           -0.4928     1.3674    -1.3783 O.2     
  32 C32           -2.5163     1.3904    -3.0507 C.3     
  33 H33           -0.7044     2.2726     0.8195 H       
  34 H34            2.6408    -0.3854     0.5051 H       
  35 H35            0.8190     4.1924     0.6422 H       
  36 H36            3.4265     4.7862    -0.3481 H       
  37 H37            0.9403    -1.1657     2.5089 H       
  38 H38           -0.5745    -3.0921     2.6855 H       
  39 H39           -2.4123    -3.3802     1.0791 H       
  40 H40           -2.7553    -1.7451    -0.7218 H       
  41 H41            4.7470     4.1531     2.1859 H       
  42 H42            5.2171     5.3993     4.7250 H       
  43 H43            5.0828     1.5739     1.2328 H       
  44 H44            4.9240     1.0250    -0.4631 H       
  45 H45            4.9164     3.2272    -1.3056 H       
  46 H46            5.8388     3.5489     0.2007 H       
  47 H47            3.3517     8.0578     4.6411 H       
  48 H48            2.1323     7.7917     3.2832 H       
  49 H49            1.5881     5.4978     4.2218 H       
  50 H50            2.8077     5.7641     5.5795 H       
  51 H51           -2.5680     2.3802    -2.5971 H       
  52 H52           -1.6547     1.3404    -3.7165 H       
  53 H53           -3.4268     1.2035    -3.6200 H       
@<TRIPOS>BOND
   1    1    2 ar
   2    1    6 ar
   3    1   33 1
   4    2    3 ar
   5    2    8 1
   6    3    4 ar
   7    3   34 1
   8    4    5 ar
   9    4   26 1
  10    5    6 ar
  11    5    7 1
  12    6   35 1
  13    7   15 1
  14    7   27 1
  15    7   36 1
  16    8    9 ar
  17    8   13 ar
  18    9   10 ar
  19    9   37 1
  20   10   11 ar
  21   10   38 1
  22   11   12 ar
  23   11   39 1
  24   12   13 ar
  25   12   40 1
  26   13   14 1
  27   14   30 1
  28   14   31 2
  29   15   16 am
  30   15   41 1
  31   16   17 2
  32   16   18 1
  33   18   19 1
  34   18   28 1
  35   18   29 1
  36   19   20 am
  37   19   42 1
  38   20   21 1
  39   20   22 2
  40   21   23 1
  41   21   24 1
  42   21   25 1
  43   26   27 1
  44   26   43 1
  45   26   44 1
  46   27   45 1
  47   27   46 1
  48   28   29 1
  49   28   47 1
  50   28   48 1
  51   29   49 1
  52   29   50 1
  53   30   32 1
  54   32   51 1
  55   32   52 1
  56   32   53 1

#	End of record

