#	Name: ASD16340001
#	Creating user name:	WinNT
#	Creation time:	15. 06. 2019 21:31

#	Modifying user name:	WinNT
#	Modification time:	15. 06. 2019 21:31

#	Program:	/corina/corina34_cracker 3.40 0067  02.08.2006

@<TRIPOS>MOLECULE
ASD16340001
   9    8    0    0    0
SMALL
NO_CHARGES


@<TRIPOS>ATOM
   1 C1            -0.0184     1.5028     0.0103 C.3     
   2 C2             0.0021    -0.0041     0.0020 C.2     
   3 C3             1.3954     2.0244    -0.0004 C.2     
   4 O4             1.0661    -0.5992    -0.0113 O.co2   
   5 O5            -1.0454    -0.6280     0.0087 O.co2   
   6 O6             2.3328     1.2448    -0.0135 O.co2   
   7 O7             1.6019     3.2260     0.0041 O.co2   
   8 H8            -0.5455     1.8639    -0.8728 H       
   9 H9            -0.5286     1.8543     0.9071 H       
@<TRIPOS>BOND
   1    1    2 1
   2    1    3 1
   3    1    8 1
   4    1    9 1
   5    2    4 ar
   6    2    5 ar
   7    3    6 ar
   8    3    7 ar

#	End of record

