#	Name: ASD11650002
#	Creating user name:	WinNT
#	Creation time:	15. 06. 2019 21:29

#	Modifying user name:	WinNT
#	Modification time:	15. 06. 2019 21:29

#	Program:	/corina/corina34_cracker 3.40 0067  02.08.2006

@<TRIPOS>MOLECULE
ASD11650002
  31   33    0    0    0
SMALL
NO_CHARGES


@<TRIPOS>ATOM
   1 O1            -0.0161     1.3390    -0.0411 O.3     
   2 O2             1.1290    -2.0788     0.0821 O.3     
   3 O3             3.4628    -0.6410     0.0628 O.2     
   4 O4             2.1776     5.5521    -0.1520 O.3     
   5 O5            -4.5018    -0.6428     1.7215 O.3     
   6 O6            -4.8722    -2.7762     0.0241 O.3     
   7 C7             0.0021    -0.0041     0.0020 C.2     
   8 C8             2.3661     1.4381    -0.0164 C.ar    
   9 C9             1.1140     2.0757    -0.0515 C.ar    
  10 C10           -1.2804    -0.7314     0.0097 C.ar    
  11 C11            1.1624    -0.7190     0.0385 C.2     
  12 C12            2.4040    -0.0345     0.0313 C.2     
  13 C13            3.5401     2.1927    -0.0278 C.ar    
  14 C14            1.0588     3.4616    -0.0971 C.ar    
  15 C15           -2.3039    -0.3380     0.8767 C.ar    
  16 C16           -1.4779    -1.8125    -0.8541 C.ar    
  17 C17            2.2325     4.1963    -0.1074 C.ar    
  18 C18            3.4694     3.5559    -0.0728 C.ar    
  19 C19           -3.5039    -1.0228     0.8793 C.ar    
  20 C20           -2.6777    -2.4907    -0.8457 C.ar    
  21 C21           -3.6917    -2.1034     0.0193 C.ar    
  22 H22            4.5010     1.7005    -0.0007 H       
  23 H23            0.1039     3.9654    -0.1249 H       
  24 H24           -2.1569     0.4991     1.5431 H       
  25 H25           -0.6906    -2.1160    -1.5283 H       
  26 H26            4.3773     4.1407    -0.0813 H       
  27 H27           -2.8291    -3.3259    -1.5136 H       
  28 H28            2.0025    -2.4931     0.1056 H       
  29 H29            2.1515     5.9735     0.7179 H       
  30 H30           -5.1040     0.0143     1.3465 H       
  31 H31           -5.5281    -2.4240    -0.5930 H       
@<TRIPOS>BOND
   1    1    7 1
   2    1    9 1
   3    2   11 1
   4    2   28 1
   5    3   12 2
   6    4   17 1
   7    4   29 1
   8    5   19 1
   9    5   30 1
  10    6   21 1
  11    6   31 1
  12    7   10 1
  13    7   11 2
  14    8    9 ar
  15    8   12 1
  16    8   13 ar
  17    9   14 ar
  18   10   15 ar
  19   10   16 ar
  20   11   12 1
  21   13   18 ar
  22   13   22 1
  23   14   17 ar
  24   14   23 1
  25   15   19 ar
  26   15   24 1
  27   16   20 ar
  28   16   25 1
  29   17   18 ar
  30   18   26 1
  31   19   21 ar
  32   20   21 ar
  33   20   27 1

#	End of record

