#	Name: ASD10160432
#	Creating user name:	WinNT
#	Creation time:	15. 06. 2019 21:25

#	Modifying user name:	WinNT
#	Modification time:	15. 06. 2019 21:25

#	Program:	/corina/corina34_cracker 3.40 0067  02.08.2006

@<TRIPOS>MOLECULE
ASD10160432
  50   52    0    0    0
SMALL
NO_CHARGES


@<TRIPOS>ATOM
   1 C1             0.2249     1.4264     0.1368 C.2     
   2 C2             0.2081    -0.0440     0.0516 C.ar    
   3 C3             1.3960    -0.7701     0.2031 C.ar    
   4 C4             1.3748    -2.1478     0.1223 C.ar    
   5 C5             0.1783    -2.8133    -0.1091 C.ar    
   6 C6            -1.0053    -2.0951    -0.2608 C.ar    
   7 C7            -0.9955    -0.7200    -0.1752 C.ar    
   8 O8             1.2708     2.0114     0.3389 O.2     
   9 O9            -0.9188     2.1233    -0.0149 O.3     
  10 F10           -2.1662    -2.7483    -0.4863 F       
  11 F11            2.5607    -0.1232     0.4275 F       
  12 O12            0.1622    -4.1682    -0.1882 O.3     
  13 C13            2.0331    -5.3420    -1.0868 C.ar    
  14 C14            1.3333    -4.8321    -0.0022 C.ar    
  15 C15            1.8478    -5.0098     1.2779 C.ar    
  16 C16            3.0462    -5.6935     1.4172 C.ar    
  17 C17            3.6853    -6.1724     0.2875 C.ar    
  18 N18            3.1695    -5.9863    -0.9119 N.ar    
  19 C19            4.9883    -6.9161     0.4293 C.3     
  20 C20            4.7069    -8.4107     0.5956 C.3     
  21 C21            4.0675    -8.9548    -0.6835 C.3     
  22 C22            6.0193    -9.1500     0.8640 C.3     
  23 Cl23           3.7365    -5.9449     2.9900 Cl      
  24 C24           -0.8285     3.4781     0.0467 C.ar    
  25 C25           -0.3727     4.1947    -1.0503 C.ar    
  26 C26           -0.2823     5.5716    -0.9854 C.ar    
  27 C27           -0.6453     6.2356     0.1718 C.ar    
  28 C28           -1.0995     5.5237     1.2667 C.ar    
  29 C29           -1.1976     4.1471     1.2047 C.ar    
  30 C30           -0.5453     7.7377     0.2401 C.3     
  31 H31            2.2901    -2.7090     0.2390 H       
  32 H32           -1.9147    -0.1646    -0.2883 H       
  33 H33            1.6400    -5.2134    -2.0845 H       
  34 H34            1.3269    -4.6244     2.1420 H       
  35 H35            5.5959    -6.7577    -0.4617 H       
  36 H36            5.5236    -6.5475     1.3044 H       
  37 H37            4.0270    -8.5614     1.4341 H       
  38 H38            3.8671   -10.0196    -0.5650 H       
  39 H39            3.1326    -8.4281    -0.8747 H       
  40 H40            4.7474    -8.8041    -1.5220 H       
  41 H41            6.4748    -8.7624     1.7753 H       
  42 H42            5.8189   -10.2148     0.9825 H       
  43 H43            6.6992    -8.9993     0.0255 H       
  44 H44           -0.0883     3.6765    -1.9542 H       
  45 H45            0.0725     6.1299    -1.8391 H       
  46 H46           -1.3821     6.0446     2.1696 H       
  47 H47           -1.5566     3.5919     2.0586 H       
  48 H48           -1.4848     8.1799    -0.0916 H       
  49 H49           -0.3431     8.0421     1.2670 H       
  50 H50            0.2643     8.0777    -0.4057 H       
@<TRIPOS>BOND
   1    1    2 1
   2    1    8 2
   3    1    9 1
   4    2    3 ar
   5    2    7 ar
   6    3    4 ar
   7    3   11 1
   8    4    5 ar
   9    4   31 1
  10    5    6 ar
  11    5   12 1
  12    6    7 ar
  13    6   10 1
  14    7   32 1
  15    9   24 1
  16   12   14 1
  17   13   14 ar
  18   13   18 ar
  19   13   33 1
  20   14   15 ar
  21   15   16 ar
  22   15   34 1
  23   16   17 ar
  24   16   23 1
  25   17   18 ar
  26   17   19 1
  27   19   20 1
  28   19   35 1
  29   19   36 1
  30   20   21 1
  31   20   22 1
  32   20   37 1
  33   21   38 1
  34   21   39 1
  35   21   40 1
  36   22   41 1
  37   22   42 1
  38   22   43 1
  39   24   25 ar
  40   24   29 ar
  41   25   26 ar
  42   25   44 1
  43   26   27 ar
  44   26   45 1
  45   27   28 ar
  46   27   30 1
  47   28   29 ar
  48   28   46 1
  49   29   47 1
  50   30   48 1
  51   30   49 1
  52   30   50 1

#	End of record

