#	Name: ASD11720002
#	Creating user name:	WinNT
#	Creation time:	15. 06. 2019 21:29

#	Modifying user name:	WinNT
#	Modification time:	15. 06. 2019 21:29

#	Program:	/corina/corina34_cracker 3.40 0067  02.08.2006

@<TRIPOS>MOLECULE
ASD11720002
   6    5    0    0    0
SMALL
NO_CHARGES


@<TRIPOS>ATOM
   1 C1            -0.0182     1.4893     0.0102 C.2     
   2 C2             0.0021    -0.0041     0.0020 C.2     
   3 O3             1.0560    -0.5936    -0.0112 O.2     
   4 O4             1.0303     2.1138     0.0036 O.co2   
   5 O5            -1.0833     2.0851     0.0185 O.co2   
   6 H6            -0.9258    -0.5567     0.0079 H       
@<TRIPOS>BOND
   1    1    2 1
   2    1    4 ar
   3    1    5 ar
   4    2    3 2
   5    2    6 1

#	End of record

