#	Name: ASD10410229
#	Creating user name:	WinNT
#	Creation time:	15. 06. 2019 21:27

#	Modifying user name:	WinNT
#	Modification time:	15. 06. 2019 21:27

#	Program:	/corina/corina34_cracker 3.40 0067  02.08.2006

@<TRIPOS>MOLECULE
ASD10410229
  63   67    0    0    0
SMALL
NO_CHARGES


@<TRIPOS>ATOM
   1 C1             0.9752    -0.4672     0.3449 C.ar    
   2 C2             0.1232    -0.0751    -0.6762 C.ar    
   3 C3             0.4121     1.0571    -1.4261 C.ar    
   4 C4             1.5491     1.7936    -1.1549 C.ar    
   5 C5             2.4027     1.4009    -0.1320 C.ar    
   6 C6             2.1125     0.2683     0.6171 C.ar    
   7 O7            -0.9961    -0.8002    -0.9437 O.3     
   8 Cl8           -0.6550     1.5469    -2.7048 Cl      
   9 N9             3.5552     2.1461     0.1433 N.pl3   
  10 C10            3.5528     3.5278    -0.0426 C.2     
  11 N11            4.5952     4.3133     0.0834 N.2     
  12 N12            2.4874     4.2626    -0.3837 N.2     
  13 C13            2.8324     5.5289    -0.4750 C.2     
  14 N14            4.1597     5.6203    -0.1887 N.pl3   
  15 C15            4.9298     6.7756    -0.1697 C.ar    
  16 N16            1.9973     6.5778    -0.8058 N.pl3   
  17 C17            6.1937     6.8149    -0.7999 C.ar    
  18 C18           -1.2310    -1.9534    -0.1332 C.3     
  19 C19           -2.5262    -2.6350    -0.5793 C.3     
  20 N20           -2.3642    -3.1473    -1.9465 N.3     
  21 C21           -3.4966    -4.0128    -2.3240 C.3     
  22 C22           -4.1173    -3.4201    -3.6065 C.3     
  23 C23           -2.9559    -2.5809    -4.2013 C.3     
  24 C24           -2.2738    -2.0388    -2.9205 C.3     
  25 N25            4.4963     7.8724     0.4353 N.ar    
  26 C26            5.2193     8.9804     0.4608 C.ar    
  27 N27            6.4006     9.0745    -0.1025 N.ar    
  28 C28            6.9317     8.0244    -0.7458 C.ar    
  29 C29            8.1900     8.0907    -1.3577 C.ar    
  30 C30            8.6871     6.9921    -2.0013 C.ar    
  31 C31            7.9540     5.7977    -2.0575 C.ar    
  32 C32            6.7261     5.7038    -1.4671 C.ar    
  33 O33            8.4730     4.7203    -2.7044 O.3     
  34 C34            7.6786     3.5327    -2.7273 C.3     
  35 O35            9.9073     7.0581    -2.5946 O.3     
  36 C36           10.6063     8.3012    -2.5043 C.3     
  37 H37            0.7473    -1.3454     0.9306 H       
  38 H38            1.7743     2.6742    -1.7383 H       
  39 H39            2.7756    -0.0374     1.4128 H       
  40 H40            4.3554     1.7012     0.4635 H       
  41 H41            1.0609     6.4108    -0.9962 H       
  42 H42            2.3471     7.4815    -0.8479 H       
  43 H43           -0.3987    -2.6490    -0.2410 H       
  44 H44           -1.3199    -1.6520     0.9105 H       
  45 H45           -2.7523    -3.4617     0.0941 H       
  46 H46           -3.3430    -1.9136    -0.5560 H       
  47 H47           -3.1413    -5.0250    -2.5176 H       
  48 H48           -4.2374    -4.0241    -1.5245 H       
  49 H49           -4.4114    -4.2129    -4.2943 H       
  50 H50           -4.9681    -2.7834    -3.3642 H       
  51 H51           -2.2721    -3.2095    -4.7716 H       
  52 H52           -3.3381    -1.7653    -4.8152 H       
  53 H53           -2.8057    -1.1629    -2.5490 H       
  54 H54           -1.2308    -1.7937    -3.1207 H       
  55 H55            4.8191     9.8461     0.9676 H       
  56 H56            8.7639     9.0049    -1.3216 H       
  57 H57            6.1687     4.7800    -1.5154 H       
  58 H58            7.4933     3.1998    -1.7060 H       
  59 H59            6.7286     3.7404    -3.2197 H       
  60 H60            8.2079     2.7520    -3.2735 H       
  61 H61           10.0115     9.0871    -2.9697 H       
  62 H62           10.7767     8.5469    -1.4561 H       
  63 H63           11.5639     8.2178    -3.0183 H       
@<TRIPOS>BOND
   1    1    2 ar
   2    1    6 ar
   3    1   37 1
   4    2    3 ar
   5    2    7 1
   6    3    4 ar
   7    3    8 1
   8    4    5 ar
   9    4   38 1
  10    5    6 ar
  11    5    9 1
  12    6   39 1
  13    7   18 1
  14    9   10 1
  15    9   40 1
  16   10   11 2
  17   10   12 1
  18   11   14 1
  19   12   13 2
  20   13   14 1
  21   13   16 1
  22   14   15 1
  23   15   17 ar
  24   15   25 ar
  25   16   41 1
  26   16   42 1
  27   17   28 ar
  28   17   32 ar
  29   18   19 1
  30   18   43 1
  31   18   44 1
  32   19   20 1
  33   19   45 1
  34   19   46 1
  35   20   21 1
  36   20   24 1
  37   21   22 1
  38   21   47 1
  39   21   48 1
  40   22   23 1
  41   22   49 1
  42   22   50 1
  43   23   24 1
  44   23   51 1
  45   23   52 1
  46   24   53 1
  47   24   54 1
  48   25   26 ar
  49   26   27 ar
  50   26   55 1
  51   27   28 ar
  52   28   29 ar
  53   29   30 ar
  54   29   56 1
  55   30   31 ar
  56   30   35 1
  57   31   32 ar
  58   31   33 1
  59   32   57 1
  60   33   34 1
  61   34   58 1
  62   34   59 1
  63   34   60 1
  64   35   36 1
  65   36   61 1
  66   36   62 1
  67   36   63 1

#	End of record

