#	Name: ASD16920001
#	Creating user name:	WinNT
#	Creation time:	15. 06. 2019 21:31

#	Modifying user name:	WinNT
#	Modification time:	15. 06. 2019 21:31

#	Program:	/corina/corina34_cracker 3.40 0067  02.08.2006

@<TRIPOS>MOLECULE
ASD16920001
  43   45    0    0    0
SMALL
NO_CHARGES


@<TRIPOS>ATOM
   1 O1             0.0021    -0.0041     0.0020 O.2     
   2 C2            -0.0144     1.2093     0.0087 C.2     
   3 C3            -1.3294     1.9449     0.0315 C.3     
   4 N4            -2.4328     0.9752     0.0422 N.3     
   5 C5            -2.5400     0.3054     1.3636 C.3     
   6 C6            -3.9917    -0.2361     1.3698 C.3     
   7 C7            -4.7811     0.8828     0.6523 C.3     
   8 C8            -3.7319     1.6480    -0.1754 C.3     
   9 C9             1.2435     1.9586     0.0007 C.2     
  10 C10            1.4039     3.4190     0.0134 C.2     
  11 C11            2.7263     3.6557    -0.0005 C.2     
  12 C12            3.3699     5.0184     0.0053 C.3     
  13 C13            2.5237     1.4367    -0.0143 C.2     
  14 C14            2.8819    -0.0271    -0.0255 C.3     
  15 N15            3.3951     2.4637    -0.0208 N.pl3   
  16 C16            4.7908     2.3291    -0.0395 C.ar    
  17 C17            5.4208     1.7735    -1.1448 C.ar    
  18 C18            6.7954     1.6418    -1.1613 C.ar    
  19 C19            5.5448     2.7565     1.0451 C.ar    
  20 C20            6.9192     2.6231     1.0249 C.ar    
  21 C21            7.5454     2.0634    -0.0762 C.ar    
  22 F22            8.8900     1.9333    -0.0940 F       
  23 H23           -1.3829     2.5660     0.9256 H       
  24 H24           -1.4085     2.5754    -0.8541 H       
  25 H25           -1.8239    -0.5129     1.4393 H       
  26 H26           -2.3905     1.0218     2.1713 H       
  27 H27           -4.0569    -1.1715     0.8140 H       
  28 H28           -4.3501    -0.3671     2.3908 H       
  29 H29           -5.5383     0.4514    -0.0025 H       
  30 H30           -5.2447     1.5465     1.3821 H       
  31 H31           -3.6753     2.6828     0.1622 H       
  32 H32           -3.9955     1.6133    -1.2325 H       
  33 H33            0.6149     4.1563     0.0301 H       
  34 H34            3.5374     5.3367     1.0342 H       
  35 H35            4.3236     4.9720    -0.5205 H       
  36 H36            2.7142     5.7320    -0.4937 H       
  37 H37            2.9579    -0.3747    -1.0558 H       
  38 H38            3.8378    -0.1711     0.4780 H       
  39 H39            2.1089    -0.5943     0.4931 H       
  40 H40            4.8362     1.4442    -1.9911 H       
  41 H41            7.2858     1.2093    -2.0209 H       
  42 H42            5.0569     3.1934     1.9038 H       
  43 H43            7.5062     2.9558     1.8682 H       
@<TRIPOS>BOND
   1    1    2 2
   2    2    9 1
   3    2    3 1
   4    3   23 1
   5    3   24 1
   6    3    4 1
   7    4    8 1
   8    4    5 1
   9    5   25 1
  10    5   26 1
  11    5    6 1
  12    6    7 1
  13    6   27 1
  14    6   28 1
  15    7    8 1
  16    7   29 1
  17    7   30 1
  18    8   31 1
  19    8   32 1
  20    9   13 2
  21    9   10 1
  22   10   11 2
  23   10   33 1
  24   11   12 1
  25   11   15 1
  26   12   34 1
  27   12   35 1
  28   12   36 1
  29   13   15 1
  30   13   14 1
  31   14   37 1
  32   14   38 1
  33   14   39 1
  34   15   16 1
  35   16   19 ar
  36   16   17 ar
  37   17   18 ar
  38   17   40 1
  39   18   21 ar
  40   18   41 1
  41   19   20 ar
  42   19   42 1
  43   20   43 1
  44   20   21 ar
  45   21   22 1

#	End of record

