#	Name: ASD10950035
#	Creating user name:	WinNT
#	Creation time:	15. 06. 2019 21:28

#	Modifying user name:	WinNT
#	Modification time:	15. 06. 2019 21:28

#	Program:	/corina/corina34_cracker 3.40 0067  02.08.2006

@<TRIPOS>MOLECULE
ASD10950035
  53   56    0    0    0
SMALL
NO_CHARGES


@<TRIPOS>ATOM
   1 C1            -0.0176     1.4478     0.0100 C.3     
   2 O2             0.0021    -0.0041     0.0020 O.3     
   3 C3             0.6006    -0.6019    -1.0466 C.2     
   4 O4             1.0926     0.0714    -1.9301 O.2     
   5 C5             0.6585    -2.0745    -1.1219 C.ar    
   6 C6             0.0941    -2.8521    -0.1082 C.ar    
   7 C7             0.1513    -4.2275    -0.1851 C.ar    
   8 C8             0.7667    -4.8402    -1.2632 C.ar    
   9 C9             1.3288    -4.0796    -2.2715 C.ar    
  10 C10            1.2741    -2.6992    -2.2121 C.ar    
  11 F11            1.8235    -1.9561    -3.1976 F       
  12 C12            0.8245    -6.3442    -1.3378 C.3     
  13 N13            0.5903    -6.7901    -2.7162 N.am    
  14 C14           -0.6205    -6.5500    -3.5052 C.3     
  15 C15           -0.4756    -5.2355    -4.2745 C.3     
  16 C16           -1.7210    -4.9885    -5.0862 C.2     
  17 C17           -1.9105    -5.3097    -6.3757 C.2     
  18 N18           -3.1648    -4.9320    -6.7710 N.pl3   
  19 C19           -3.8299    -4.3435    -5.7188 C.ar    
  20 C20           -2.9568    -4.3580    -4.6159 C.ar    
  21 C21           -3.3684    -3.8207    -3.3946 C.ar    
  22 C22           -4.6188    -3.2829    -3.2771 C.ar    
  23 C23           -5.4843    -3.2666    -4.3625 C.ar    
  24 C24           -5.1000    -3.7943    -5.5755 C.ar    
  25 C25            1.6832    -7.4579    -3.1277 C.2     
  26 O26            1.8210    -7.9611    -4.2247 O.2     
  27 C27            2.6931    -7.4879    -2.0467 C.2     
  28 C28            2.2060    -6.8298    -0.9658 C.2     
  29 C29            2.8644    -6.6354     0.2716 C.2     
  30 O30            3.9806    -7.0807     0.4416 O.2     
  31 C31            2.1796    -5.8755     1.3782 C.3     
  32 O32            3.9073    -8.0767    -2.1244 O.3     
  33 H33            1.0050     1.8251     0.0023 H       
  34 H34           -0.5448     1.8089    -0.8731 H       
  35 H35           -0.5278     1.7993     0.9068 H       
  36 H36           -0.3860    -2.3768     0.7345 H       
  37 H37           -0.2850    -4.8290     0.5987 H       
  38 H38            1.8075    -4.5645    -3.1094 H       
  39 H39            0.0808    -6.7809    -0.6713 H       
  40 H40           -0.7635    -7.3694    -4.2097 H       
  41 H41           -1.4816    -6.4886    -2.8398 H       
  42 H42           -0.3326    -4.4161    -3.5700 H       
  43 H43            0.3856    -5.2969    -4.9399 H       
  44 H44           -1.1808    -5.7940    -7.0077 H       
  45 H45           -3.5308    -5.0594    -7.6603 H       
  46 H46           -2.7007    -3.8306    -2.5457 H       
  47 H47           -4.9366    -2.8674    -2.3322 H       
  48 H48           -6.4698    -2.8383    -4.2540 H       
  49 H49           -5.7806    -3.7768    -6.4139 H       
  50 H50            1.1928    -5.5561     1.0431 H       
  51 H51            2.0759    -6.5198     2.2512 H       
  52 H52            2.7749    -5.0009     1.6407 H       
  53 H53            4.0855    -8.4997    -2.9755 H       
@<TRIPOS>BOND
   1    1    2 1
   2    1   33 1
   3    1   34 1
   4    1   35 1
   5    2    3 1
   6    3    4 2
   7    3    5 1
   8    5    6 ar
   9    5   10 ar
  10    6    7 ar
  11    6   36 1
  12    7    8 ar
  13    7   37 1
  14    8    9 ar
  15    8   12 1
  16    9   10 ar
  17    9   38 1
  18   10   11 1
  19   12   13 1
  20   12   28 1
  21   12   39 1
  22   13   14 1
  23   13   25 am
  24   14   15 1
  25   14   40 1
  26   14   41 1
  27   15   16 1
  28   15   42 1
  29   15   43 1
  30   16   17 2
  31   16   20 1
  32   17   18 1
  33   17   44 1
  34   18   19 1
  35   18   45 1
  36   19   20 ar
  37   19   24 ar
  38   20   21 ar
  39   21   22 ar
  40   21   46 1
  41   22   23 ar
  42   22   47 1
  43   23   24 ar
  44   23   48 1
  45   24   49 1
  46   25   26 2
  47   25   27 1
  48   27   28 2
  49   27   32 1
  50   28   29 1
  51   29   30 2
  52   29   31 1
  53   31   50 1
  54   31   51 1
  55   31   52 1
  56   32   53 1

#	End of record

