#	Name: ASD15030001
#	Creating user name:	WinNT
#	Creation time:	15. 06. 2019 21:31

#	Modifying user name:	WinNT
#	Modification time:	15. 06. 2019 21:31

#	Program:	/corina/corina34_cracker 3.40 0067  02.08.2006

@<TRIPOS>MOLECULE
ASD15030001
  24   24    0    0    0
SMALL
NO_CHARGES


@<TRIPOS>ATOM
   1 O1            -0.0173     1.4248     0.0099 O.3     
   2 O2            -0.0042    -0.0946     2.4186 O.3     
   3 O3             2.7834    -0.3354     2.5040 O.3     
   4 O4             3.3630     2.1544     1.2209 O.3     
   5 O5             1.1446     3.4485    -0.0172 O.3     
   6 O6            -2.0645    -0.1576    -1.2414 O.3     
   7 C7             0.7175    -0.5102     1.2573 C.3     
   8 C8             2.1334     0.0727     1.2986 C.3     
   9 C9             0.0021    -0.0041     0.0020 C.3     
  10 C10            2.0458     1.6014     1.2560 C.3     
  11 C11            1.2791     2.0260     0.0007 C.3     
  12 C12           -1.4332    -0.5337    -0.0158 C.3     
  13 H13            0.7722    -1.5986     1.2326 H       
  14 H14            2.7004    -0.2855     0.4394 H       
  15 H15            0.5305    -0.3556    -0.8842 H       
  16 H16            1.5232     1.9612     2.1423 H       
  17 H17            1.8241     1.7012    -0.8856 H       
  18 H18           -1.9869    -0.1113     0.8227 H       
  19 H19           -1.4205    -1.6204     0.0677 H       
  20 H20            0.3960    -0.3770     3.2523 H       
  21 H21            3.6861    -0.0014     2.5966 H       
  22 H22            3.3832     3.1208     1.1928 H       
  23 H23            0.6670     3.7888    -0.7860 H       
  24 H24           -2.9793    -0.4606    -1.3218 H       
@<TRIPOS>BOND
   1    1    9 1
   2    1   11 1
   3    2   20 1
   4    2    7 1
   5    3   21 1
   6    3    8 1
   7    4   22 1
   8    4   10 1
   9    5   11 1
  10    5   23 1
  11    6   12 1
  12    6   24 1
  13    7    8 1
  14    7   13 1
  15    7    9 1
  16    8   10 1
  17    8   14 1
  18    9   12 1
  19    9   15 1
  20   10   11 1
  21   10   16 1
  22   11   17 1
  23   12   18 1
  24   12   19 1

#	End of record

