#	Name: ASD10420048
#	Creating user name:	WinNT
#	Creation time:	15. 06. 2019 21:27

#	Modifying user name:	WinNT
#	Modification time:	15. 06. 2019 21:27

#	Program:	/corina/corina34_cracker 3.40 0067  02.08.2006

@<TRIPOS>MOLECULE
ASD10420048
 101  105    0    0    0
SMALL
NO_CHARGES


@<TRIPOS>ATOM
   1 N1             1.0825     0.7509     2.3493 N.am    
   2 C2             1.3620    -0.6634     2.6349 C.3     
   3 C3             1.5669    -1.4005     1.3056 C.3     
   4 N4             2.5239    -0.6402     0.4896 N.am    
   5 C5             2.2443     0.7741     0.2040 C.3     
   6 C6             2.0395     1.5113     1.5333 C.3     
   7 C7            -0.0342     1.3385     2.8226 C.2     
   8 O8            -0.8670     0.6765     3.4097 O.2     
   9 O9            -0.2271     2.6591     2.6449 O.3     
  10 C10            3.6381    -1.2292     0.0120 C.2     
  11 O11            3.9063    -2.3737     0.3308 O.2     
  12 C12            6.1474     0.7931    -1.6319 C.2     
  13 C13            5.5661     0.2763    -0.4747 C.2     
  14 C14            4.4974    -0.5169    -0.8607 C.2     
  15 N15            4.4108    -0.4971    -2.2381 N.pl3   
  16 C16            3.5425    -1.1071    -3.0964 C.2     
  17 C17            3.6566    -0.9358    -4.4317 C.2     
  18 C18            4.6737    -0.1252    -4.9566 C.2     
  19 C19            5.5472     0.4894    -4.1089 C.2     
  20 C20            5.4122     0.2991    -2.7247 C.2     
  21 C21            7.3172     1.6987    -1.6979 C.ar    
  22 C22            8.5008     1.2711    -2.2998 C.ar    
  23 C23            9.5873     2.1195    -2.3582 C.ar    
  24 C24            9.5047     3.3919    -1.8213 C.ar    
  25 C25            8.3338     3.8217    -1.2226 C.ar    
  26 C26            7.2383     2.9848    -1.1636 C.ar    
  27 C27            6.0187     0.5331     0.9396 C.3     
  28 C28            6.9130    -0.5920     1.3930 C.ar    
  29 C29            8.2863    -0.4397     1.3583 C.ar    
  30 C30            9.1076    -1.4732     1.7753 C.ar    
  31 C31            8.5520    -2.6586     2.2267 C.ar    
  32 C32            7.1788    -2.8086     2.2605 C.ar    
  33 C33            6.3595    -1.7737     1.8487 C.ar    
  34 C34            8.8894     0.8508     0.8663 C.3     
  35 F35           10.4501    -1.3256     1.7414 F       
  36 C36            0.1800    -1.2788     3.3865 C.3     
  37 C37            0.4845    -2.7444     3.7034 C.3     
  38 O38           -0.5654    -3.2859     4.5075 O.3     
  39 Si39          -0.4165    -4.8825     4.8056 Si      
  40 C40           -0.2707    -5.8043     3.1932 C.3     
  41 C41            1.1084    -5.1829     5.8328 C.3     
  42 C42           -1.9172    -5.4839     5.7313 C.3     
  43 C43           -3.1696    -5.2372     4.8877 C.3     
  44 C44           -1.7776    -6.9817     6.0109 C.3     
  45 C45           -2.0370    -4.7269     7.0555 C.3     
  46 C46           -1.4181     3.2374     3.2410 C.3     
  47 C47           -1.3862     3.0228     4.7555 C.3     
  48 C48           -1.4629     4.7367     2.9392 C.3     
  49 C49           -2.6603     2.5622     2.6562 C.3     
  50 H50            2.2650    -0.7428     3.2402 H       
  51 H51            1.9616    -2.3982     1.4977 H       
  52 H52            0.6157    -1.4759     0.7788 H       
  53 H53            3.0864     1.2126    -0.3314 H       
  54 H54            1.3413     0.8535    -0.4013 H       
  55 H55            1.6447     2.5090     1.3412 H       
  56 H56            2.9907     1.5867     2.0601 H       
  57 H57            2.7556    -1.7340    -2.7039 H       
  58 H58            2.9618    -1.4257    -5.0978 H       
  59 H59            4.7645     0.0110    -6.0242 H       
  60 H60            6.3355     1.1163    -4.4987 H       
  61 H61            8.5667     0.2779    -2.7190 H       
  62 H62           10.5043     1.7895    -2.8236 H       
  63 H63           10.3579     4.0523    -1.8694 H       
  64 H64            8.2756     4.8158    -0.8047 H       
  65 H65            6.3231     3.3233    -0.7006 H       
  66 H66            6.5687     1.4733     0.9801 H       
  67 H67            5.1492     0.5924     1.5943 H       
  68 H68            9.1917    -3.4657     2.5519 H       
  69 H69            6.7453    -3.7330     2.6125 H       
  70 H70            5.2862    -1.8902     1.8797 H       
  71 H71            9.0622     1.5167     1.7118 H       
  72 H72            9.8365     0.6427     0.3684 H       
  73 H73            8.2059     1.3264     0.1630 H       
  74 H74            0.0161    -0.7327     4.3155 H       
  75 H75           -0.7150    -1.2193     2.7673 H       
  76 H76            0.5586    -3.3092     2.7741 H       
  77 H77            1.4280    -2.8106     4.2450 H       
  78 H78            0.6073    -5.4524     2.6516 H       
  79 H79           -0.1712    -6.8713     3.3924 H       
  80 H80           -1.1629    -5.6285     2.5923 H       
  81 H81            0.9856    -4.7167     6.8104 H       
  82 H82            1.2568    -6.2555     5.9578 H       
  83 H83            1.9750    -4.7523     5.3312 H       
  84 H84           -3.0843    -5.7765     3.9443 H       
  85 H85           -4.0476    -5.5891     5.4293 H       
  86 H86           -3.2691    -4.1702     4.6885 H       
  87 H87           -0.8854    -7.1575     6.6119 H       
  88 H88           -2.6556    -7.3336     6.5525 H       
  89 H89           -1.6923    -7.5210     5.0675 H       
  90 H90           -2.1365    -3.6599     6.8563 H       
  91 H91           -2.9150    -5.0788     7.5971 H       
  92 H92           -1.1448    -4.9027     7.6565 H       
  93 H93           -0.5493     3.5748     5.1832 H       
  94 H94           -2.3185     3.3800     5.1928 H       
  95 H95           -1.2681     1.9605     4.9695 H       
  96 H96           -1.4856     4.8897     1.8602 H       
  97 H97           -2.3570     5.1709     3.3866 H       
  98 H98           -0.5779     5.2178     3.3558 H       
  99 H99           -2.6285     1.4941     2.8712 H       
 100 H100          -3.5545     2.9964     3.1037 H       
 101 H101          -2.6831     2.7152     1.5773 H       
@<TRIPOS>BOND
   1    1    2 1
   2    1    6 1
   3    1    7 am
   4    2    3 1
   5    2   36 1
   6    2   50 1
   7    3    4 1
   8    3   51 1
   9    3   52 1
  10    4    5 1
  11    4   10 am
  12    5    6 1
  13    5   53 1
  14    5   54 1
  15    6   55 1
  16    6   56 1
  17    7    8 2
  18    7    9 1
  19    9   46 1
  20   10   11 2
  21   10   14 1
  22   12   13 1
  23   12   20 2
  24   12   21 1
  25   13   14 2
  26   13   27 1
  27   14   15 1
  28   15   16 1
  29   15   20 1
  30   16   17 2
  31   16   57 1
  32   17   18 1
  33   17   58 1
  34   18   19 2
  35   18   59 1
  36   19   20 1
  37   19   60 1
  38   21   22 ar
  39   21   26 ar
  40   22   23 ar
  41   22   61 1
  42   23   24 ar
  43   23   62 1
  44   24   25 ar
  45   24   63 1
  46   25   26 ar
  47   25   64 1
  48   26   65 1
  49   27   28 1
  50   27   66 1
  51   27   67 1
  52   28   29 ar
  53   28   33 ar
  54   29   30 ar
  55   29   34 1
  56   30   31 ar
  57   30   35 1
  58   31   32 ar
  59   31   68 1
  60   32   33 ar
  61   32   69 1
  62   33   70 1
  63   34   71 1
  64   34   72 1
  65   34   73 1
  66   36   37 1
  67   36   74 1
  68   36   75 1
  69   37   38 1
  70   37   76 1
  71   37   77 1
  72   38   39 1
  73   39   40 1
  74   39   41 1
  75   39   42 1
  76   40   78 1
  77   40   79 1
  78   40   80 1
  79   41   81 1
  80   41   82 1
  81   41   83 1
  82   42   43 1
  83   42   45 1
  84   42   44 1
  85   43   84 1
  86   43   85 1
  87   43   86 1
  88   44   87 1
  89   44   88 1
  90   44   89 1
  91   45   90 1
  92   45   91 1
  93   45   92 1
  94   46   47 1
  95   46   49 1
  96   46   48 1
  97   47   93 1
  98   47   94 1
  99   47   95 1
 100   48   96 1
 101   48   97 1
 102   48   98 1
 103   49   99 1
 104   49  100 1
 105   49  101 1

#	End of record

