#	Name: ASD10248001
#	Creating user name:	WinNT
#	Creation time:	15. 06. 2019 21:26

#	Modifying user name:	WinNT
#	Modification time:	15. 06. 2019 21:26

#	Program:	/corina/corina34_cracker 3.40 0067  02.08.2006

@<TRIPOS>MOLECULE
ASD10248001
  62   65    0    0    0
SMALL
NO_CHARGES


@<TRIPOS>ATOM
   1 C1            -0.0184     1.5028     0.0103 C.2     
   2 C2             0.0021    -0.0041     0.0020 C.3     
   3 C3             1.4513    -0.4944    -0.0145 C.3     
   4 O4             1.0236     2.1234     0.0037 O.2     
   5 N5             1.4712    -1.9632    -0.0225 N.3     
   6 C6             2.8260    -2.4698    -0.2763 C.3     
   7 C7             2.7837    -3.9926    -0.4222 C.3     
   8 C8             2.2207    -4.6080     0.8619 C.3     
   9 C9             0.8292    -4.0276     1.1292 C.3     
  10 C10            0.9282    -2.5038     1.2302 C.3     
  11 C11            2.1189    -6.1260     0.6995 C.3     
  12 C12            1.6816    -6.7425     2.0032 C.ar    
  13 C13            0.3361    -6.9131     2.2701 C.ar    
  14 C14           -0.0650    -7.4786     3.4660 C.ar    
  15 C15            0.8794    -7.8739     4.3948 C.ar    
  16 C16            2.2250    -7.7041     4.1275 C.ar    
  17 C17            2.6263    -7.1426     2.9298 C.ar    
  18 S18           -3.7755     3.2349     1.5443 S.3     
  19 C19           -3.2243     1.5155     1.3149 C.3     
  20 C20           -2.4366     1.4004     0.0212 C.3     
  21 N21           -1.1946     2.1607     0.0195 N.am    
  22 C22           -1.1967     3.6257     0.0279 C.3     
  23 C23           -1.1994     4.1157     1.4591 C.ar    
  24 C24           -2.3322     3.9839     2.2415 C.ar    
  25 C25           -0.0631     4.6986     1.9867 C.ar    
  26 C26           -0.0663     5.1484     3.2997 C.ar    
  27 C27           -1.2037     5.0146     4.0820 C.ar    
  28 C28           -2.3411     4.4316     3.5538 C.ar    
  29 O29            1.0507     5.7225     3.8215 O.3     
  30 C30            0.9798     6.1637     5.1789 C.3     
  31 H31           -0.4983    -0.3791     0.8948 H       
  32 H32           -0.5153    -0.3696    -0.8850 H       
  33 H33            1.9516    -0.1193    -0.9073 H       
  34 H34            1.9686    -0.1289     0.8726 H       
  35 H35            3.2130    -2.0276    -1.1943 H       
  36 H36            3.4756    -2.2027     0.5573 H       
  37 H37            2.1452    -4.2599    -1.2642 H       
  38 H38            3.7916    -4.3698    -0.5950 H       
  39 H39            2.8799    -4.3735     1.6977 H       
  40 H40            0.1599    -4.2954     0.3116 H       
  41 H41            0.4407    -4.4298     2.0649 H       
  42 H42            1.5867    -2.2366     2.0567 H       
  43 H43           -0.0632    -2.0863     1.4063 H       
  44 H44            1.3896    -6.3603    -0.0760 H       
  45 H45            3.0921    -6.5271     0.4162 H       
  46 H46           -0.4018    -6.6043     1.5445 H       
  47 H47           -1.1163    -7.6112     3.6749 H       
  48 H48            0.5660    -8.3150     5.3295 H       
  49 H49            2.9629    -8.0126     4.8533 H       
  50 H50            3.6776    -7.0133     2.7193 H       
  51 H51           -2.5910     1.2226     2.1523 H       
  52 H52           -4.0931     0.8587     1.2705 H       
  53 H53           -2.2018     0.3500    -0.1511 H       
  54 H54           -3.0613     1.7534    -0.7993 H       
  55 H55           -0.3061     3.9939    -0.4813 H       
  56 H56           -2.0869     3.9914    -0.4838 H       
  57 H57            0.8241     4.8033     1.3800 H       
  58 H58           -1.2011     5.3652     5.1035 H       
  59 H59           -3.2294     4.3258     4.1588 H       
  60 H60            1.9351     6.6010     5.4692 H       
  61 H61            0.1929     6.9115     5.2772 H       
  62 H62            0.7572     5.3150     5.8256 H       
@<TRIPOS>BOND
   1    1    2 1
   2    1    4 2
   3    1   21 am
   4    2    3 1
   5    2   31 1
   6    2   32 1
   7    3    5 1
   8    3   33 1
   9    3   34 1
  10    5    6 1
  11    5   10 1
  12    6    7 1
  13    6   35 1
  14    6   36 1
  15    7    8 1
  16    7   37 1
  17    7   38 1
  18    8    9 1
  19    8   11 1
  20    8   39 1
  21    9   10 1
  22    9   40 1
  23    9   41 1
  24   10   42 1
  25   10   43 1
  26   11   12 1
  27   11   44 1
  28   11   45 1
  29   12   13 ar
  30   12   17 ar
  31   13   14 ar
  32   13   46 1
  33   14   15 ar
  34   14   47 1
  35   15   16 ar
  36   15   48 1
  37   16   17 ar
  38   16   49 1
  39   17   50 1
  40   18   19 1
  41   18   24 1
  42   19   20 1
  43   19   51 1
  44   19   52 1
  45   20   21 1
  46   20   53 1
  47   20   54 1
  48   21   22 1
  49   22   23 1
  50   22   55 1
  51   22   56 1
  52   23   24 ar
  53   23   25 ar
  54   24   28 ar
  55   25   26 ar
  56   25   57 1
  57   26   27 ar
  58   26   29 1
  59   27   28 ar
  60   27   58 1
  61   28   59 1
  62   29   30 1
  63   30   60 1
  64   30   61 1
  65   30   62 1

#	End of record

