#	Name: ASD13000001
#	Creating user name:	WinNT
#	Creation time:	15. 06. 2019 21:30

#	Modifying user name:	WinNT
#	Modification time:	15. 06. 2019 21:30

#	Program:	/corina/corina34_cracker 3.40 0067  02.08.2006

@<TRIPOS>MOLECULE
ASD13000001
  11   10    0    0    0
SMALL
NO_CHARGES


@<TRIPOS>ATOM
   1 C1            -0.0178     1.4648     0.0101 C.3     
   2 N2             0.0021    -0.0041     0.0020 N.3     
   3 C3             1.4175     1.9944    -0.0008 C.3     
   4 O4             2.0498     1.6316    -1.2299 O.3     
   5 H5            -0.5450     1.8259    -0.8730 H       
   6 H6            -0.5280     1.8163     0.9069 H       
   7 H7             0.5405    -0.3627     0.7764 H       
   8 H8            -0.9349    -0.3784     0.0090 H       
   9 H9             1.4050     3.0801     0.0948 H       
  10 H10            1.9704     1.5626     0.8335 H       
  11 H11            2.9647     1.9354    -1.3062 H       
@<TRIPOS>BOND
   1    1    2 1
   2    1    3 1
   3    1    5 1
   4    1    6 1
   5    2    7 1
   6    2    8 1
   7    3    4 1
   8    3    9 1
   9    3   10 1
  10    4   11 1

#	End of record

