#	Name: ASD10800069
#	Creating user name:	WinNT
#	Creation time:	15. 06. 2019 21:28

#	Modifying user name:	WinNT
#	Modification time:	15. 06. 2019 21:28

#	Program:	/corina/corina34_cracker 3.40 0067  02.08.2006

@<TRIPOS>MOLECULE
ASD10800069
  57   60    0    0    0
SMALL
NO_CHARGES


@<TRIPOS>ATOM
   1 C1            -0.0168     1.3858     0.0097 C.ar    
   2 C2             0.0021    -0.0041     0.0020 C.ar    
   3 C3             1.1996    -0.6889     0.0046 C.ar    
   4 C4             2.3901     0.0134     0.0148 C.ar    
   5 C5             2.3716     1.3925     0.0136 C.ar    
   6 C6             1.1650     2.0842     0.0021 C.ar    
   7 C7             3.6704     2.1567     0.0253 C.3     
   8 C8             4.0326     2.5247     1.4655 C.3     
   9 N9             4.7316     1.3249    -0.5478 N.2     
  10 C10            5.3743     1.7275    -1.6089 C.2     
  11 S11            5.0827     3.2449    -2.4656 S.3     
  12 C12            6.3556     2.9965    -3.7421 C.3     
  13 C13            6.9805     1.6401    -3.3974 C.3     
  14 N14            6.3773     1.0479    -2.2252 N.pl3   
  15 C15            5.2645     3.3928     1.4675 C.ar    
  16 C16            5.1414     4.7676     1.3919 C.ar    
  17 C17            6.2714     5.5638     1.3936 C.ar    
  18 C18            7.5244     4.9853     1.4715 C.ar    
  19 C19            7.6475     3.6106     1.5480 C.ar    
  20 C20            6.5174     2.8146     1.5506 C.ar    
  21 C21            1.2403     3.5910    -0.0421 C.3     
  22 C22           -1.3624     2.0602     0.0504 C.3     
  23 C23            6.1372     7.0625     1.3102 C.3     
  24 F24            6.0452     7.5951     2.6006 F       
  25 F25            7.2579     7.5958     0.6645 F       
  26 F26            4.9841     7.3880     0.5881 F       
  27 C27            0.0280     4.2303     0.6329 C.3     
  28 C28           -1.0518     4.4651    -0.4251 C.3     
  29 C29           -1.4685     3.1316    -1.0383 C.3     
  30 C30            9.0136     2.9799     1.6324 C.3     
  31 F31            9.9910     3.9807     1.6169 F       
  32 F32            9.1161     2.2464     2.8193 F       
  33 F33            9.2019     2.1272     0.5395 F       
  34 H34           -0.9284    -0.5523    -0.0057 H       
  35 H35            1.2069    -1.7689    -0.0009 H       
  36 H36            3.3314    -0.5159     0.0240 H       
  37 H37            3.5623     3.0660    -0.5659 H       
  38 H38            3.2046     3.0680     1.9209 H       
  39 H39            4.2277     1.6158     2.0347 H       
  40 H40            5.9012     2.9658    -4.7324 H       
  41 H41            7.1058     3.7856    -3.6906 H       
  42 H42            6.8536     0.9657    -4.2443 H       
  43 H43            8.0460     1.7772    -3.2131 H       
  44 H44            6.6753     0.1872    -1.8916 H       
  45 H45            4.1624     5.2195     1.3310 H       
  46 H46            8.4073     5.6074     1.4722 H       
  47 H47            6.6135     1.7405     1.6104 H       
  48 H48            2.1461     3.9178     0.4685 H       
  49 H49            1.2817     3.9155    -1.0818 H       
  50 H50           -2.1421     1.3142    -0.1036 H       
  51 H51           -1.5006     2.5258     1.0263 H       
  52 H52           -0.3552     3.5631     1.4050 H       
  53 H53            0.3169     5.1822     1.0785 H       
  54 H54           -1.9177     4.9374     0.0389 H       
  55 H55           -0.6591     5.1165    -1.2059 H       
  56 H56           -0.8048     2.8830    -1.8664 H       
  57 H57           -2.4966     3.1948    -1.3948 H       
@<TRIPOS>BOND
   1    1    2 ar
   2    1    6 ar
   3    1   22 1
   4    2    3 ar
   5    2   34 1
   6    3    4 ar
   7    3   35 1
   8    4    5 ar
   9    4   36 1
  10    5    6 ar
  11    5    7 1
  12    6   21 1
  13    7    8 1
  14    7    9 1
  15    7   37 1
  16    8   15 1
  17    8   38 1
  18    8   39 1
  19    9   10 2
  20   10   11 1
  21   10   14 1
  22   11   12 1
  23   12   13 1
  24   12   40 1
  25   12   41 1
  26   13   14 1
  27   13   42 1
  28   13   43 1
  29   14   44 1
  30   15   16 ar
  31   15   20 ar
  32   16   17 ar
  33   16   45 1
  34   17   18 ar
  35   17   23 1
  36   18   19 ar
  37   18   46 1
  38   19   20 ar
  39   19   30 1
  40   20   47 1
  41   21   27 1
  42   21   48 1
  43   21   49 1
  44   22   29 1
  45   22   50 1
  46   22   51 1
  47   23   24 1
  48   23   25 1
  49   23   26 1
  50   27   28 1
  51   27   52 1
  52   27   53 1
  53   28   29 1
  54   28   54 1
  55   28   55 1
  56   29   56 1
  57   29   57 1
  58   30   31 1
  59   30   32 1
  60   30   33 1

#	End of record

