#	Name: ASD13110039
#	Creating user name:	WinNT
#	Creation time:	15. 06. 2019 21:30

#	Modifying user name:	WinNT
#	Modification time:	15. 06. 2019 21:30

#	Program:	/corina/corina34_cracker 3.40 0067  02.08.2006

@<TRIPOS>MOLECULE
ASD13110039
  23   24    0    0    0
SMALL
NO_CHARGES


@<TRIPOS>ATOM
   1 C1            -0.0169     1.3931     0.0097 C.ar    
   2 C2             0.0021    -0.0041     0.0020 C.ar    
   3 C3             1.2337    -0.6800    -0.0134 C.ar    
   4 C4             2.4200     0.0403    -0.0202 C.ar    
   5 C5             2.3853     1.4203    -0.0117 C.ar    
   6 C6             1.1687     2.0934     0.0021 C.ar    
   7 N7             0.9287    -2.0271    -0.0177 N.pl3   
   8 C8            -0.4277    -2.1350    -0.0053 C.2     
   9 N9            -0.9702    -0.9527     0.0062 N.2     
  10 C10           -1.1904    -3.4348    -0.0046 C.3     
  11 N11           -1.5292    -3.8029     1.3766 N.3     
  12 C12           -2.2749    -5.0679     1.4164 C.3     
  13 Cl13           1.1442     3.8292     0.0117 Cl      
  14 F14            3.5404     2.1210    -0.0179 F       
  15 H15           -0.9584     1.9220     0.0170 H       
  16 H16            3.3677    -0.4774    -0.0316 H       
  17 H17            1.5637    -2.7603    -0.0282 H       
  18 H18           -2.1059    -3.3192    -0.5848 H       
  19 H19           -0.5752    -4.2173    -0.4487 H       
  20 H20           -0.7011    -3.8531     1.9509 H       
  21 H21           -2.5130    -5.3170     2.4505 H       
  22 H22           -3.1979    -4.9637     0.8461 H       
  23 H23           -1.6672    -5.8618     0.9822 H       
@<TRIPOS>BOND
   1    1    2 ar
   2    1    6 ar
   3    1   15 1
   4    2    9 1
   5    2    3 ar
   6    3    4 ar
   7    3    7 1
   8    4    5 ar
   9    4   16 1
  10    5    6 ar
  11    5   14 1
  12    6   13 1
  13    7    8 1
  14    7   17 1
  15    8   10 1
  16    8    9 2
  17   10   11 1
  18   10   18 1
  19   10   19 1
  20   11   12 1
  21   11   20 1
  22   12   21 1
  23   12   22 1
  24   12   23 1

#	End of record

