#	Name: ASD10160342
#	Creating user name:	WinNT
#	Creation time:	15. 06. 2019 21:25

#	Modifying user name:	WinNT
#	Modification time:	15. 06. 2019 21:25

#	Program:	/corina/corina34_cracker 3.40 0067  02.08.2006

@<TRIPOS>MOLECULE
ASD10160342
  15   15    0    0    0
SMALL
NO_CHARGES


@<TRIPOS>ATOM
   1 C1            -0.0179     1.4686     0.0101 C.2     
   2 C2             0.0021    -0.0041     0.0020 C.ar    
   3 C3             0.0232    -0.7141     1.2090 C.ar    
   4 C4             0.0414    -2.0962     1.1928 C.ar    
   5 C5             0.0387    -2.7789    -0.0155 C.ar    
   6 C6             0.0179    -2.0818    -1.2128 C.ar    
   7 C7            -0.0058    -0.7010    -1.2123 C.ar    
   8 O8             1.0261     2.0905     0.0035 O.2     
   9 O9            -1.1940     2.1265     0.0193 O.3     
  10 F10           -0.0313    -0.0240    -2.3811 F       
  11 F11            0.0570    -4.1297    -0.0243 F       
  12 F12            0.0622    -2.7838     2.3556 F       
  13 F13            0.0262    -0.0502     2.3856 F       
  14 H14            0.0160    -2.6200    -2.1492 H       
  15 H15           -1.1565     3.0928     0.0243 H       
@<TRIPOS>BOND
   1    1    2 1
   2    1    8 2
   3    1    9 1
   4    2    3 ar
   5    2    7 ar
   6    3    4 ar
   7    3   13 1
   8    4    5 ar
   9    4   12 1
  10    5    6 ar
  11    5   11 1
  12    6    7 ar
  13    6   14 1
  14    7   10 1
  15    9   15 1

#	End of record

