#	Name: ASD11940004
#	Creating user name:	WinNT
#	Creation time:	15. 06. 2019 21:29

#	Modifying user name:	WinNT
#	Modification time:	15. 06. 2019 21:29

#	Program:	/corina/corina34_cracker 3.40 0067  02.08.2006

@<TRIPOS>MOLECULE
ASD11940004
  38   41    0    0    0
SMALL
NO_CHARGES


@<TRIPOS>ATOM
   1 C1            -0.0169     1.3928     0.0097 C.ar    
   2 C2             0.0021    -0.0041     0.0020 C.ar    
   3 C3            -1.1838    -0.7091     0.0100 C.ar    
   4 C4            -2.3925    -0.0377     0.0252 C.ar    
   5 C5            -2.4219     1.3509     0.0325 C.ar    
   6 C6            -1.2387     2.0690     0.0308 C.ar    
   7 C7             1.2504     2.1516     0.0017 C.2     
   8 C8             2.5438     1.4319    -0.0145 C.2     
   9 O9             1.2312     3.3665     0.0084 O.2     
  10 N10            2.7646     0.1344    -0.0241 N.2     
  11 O11            3.9560    -0.0688    -0.0368 O.3     
  12 N12            4.6631     0.9111    -0.0381 N.2     
  13 C13            3.9156     1.9906    -0.0307 C.2     
  14 N14            4.3114     3.3209    -0.0299 N.pl3   
  15 O15           -3.6132     2.0049     0.0469 O.3     
  16 C16           -4.7946     1.2010     0.0540 C.3     
  17 C17           -6.0091     2.0930     0.0698 C.2     
  18 N18           -7.2410     1.6746     0.0797 N.2     
  19 N19           -5.9770     3.4530     0.0818 N.pl3   
  20 C20           -7.2850     3.8945     0.0948 C.ar    
  21 C21           -8.0845     2.7386     0.0933 C.ar    
  22 C22           -7.8823     5.1472     0.1095 C.ar    
  23 C23           -9.2576     5.2481     0.1191 C.ar    
  24 C24          -10.0463     4.1068     0.1143 C.ar    
  25 C25           -9.4757     2.8653     0.1046 C.ar    
  26 H26            0.9444    -0.5317    -0.0105 H       
  27 H27           -1.1679    -1.7890     0.0041 H       
  28 H28           -3.3175    -0.5952     0.0311 H       
  29 H29           -1.2603     3.1488     0.0365 H       
  30 H30            5.2548     3.5462    -0.0349 H       
  31 H31            3.6445     4.0253    -0.0243 H       
  32 H32           -4.8143     0.5763    -0.8390 H       
  33 H33           -4.7976     0.5673     0.9408 H       
  34 H34           -5.1824     4.0093     0.0819 H       
  35 H35           -7.2729     6.0388     0.1136 H       
  36 H36           -9.7238     6.2222     0.1309 H       
  37 H37          -11.1222     4.2005     0.1220 H       
  38 H38          -10.0992     1.9834     0.1005 H       
@<TRIPOS>BOND
   1    1    2 ar
   2    1    7 1
   3    1    6 ar
   4    2    3 ar
   5    2   26 1
   6    3    4 ar
   7    3   27 1
   8    4    5 ar
   9    4   28 1
  10    5    6 ar
  11    5   15 1
  12    6   29 1
  13    7    8 1
  14    7    9 2
  15    8   10 2
  16    8   13 1
  17   10   11 1
  18   11   12 1
  19   12   13 2
  20   13   14 1
  21   14   30 1
  22   14   31 1
  23   15   16 1
  24   16   17 1
  25   16   32 1
  26   16   33 1
  27   17   18 2
  28   17   19 1
  29   18   21 1
  30   19   20 1
  31   19   34 1
  32   20   21 ar
  33   20   22 ar
  34   21   25 ar
  35   22   23 ar
  36   22   35 1
  37   23   24 ar
  38   23   36 1
  39   24   25 ar
  40   24   37 1
  41   25   38 1

#	End of record

