#	Name: ASD11940009
#	Creating user name:	WinNT
#	Creation time:	15. 06. 2019 21:29

#	Modifying user name:	WinNT
#	Modification time:	15. 06. 2019 21:29

#	Program:	/corina/corina34_cracker 3.40 0067  02.08.2006

@<TRIPOS>MOLECULE
ASD11940009
  18   19    0    0    0
SMALL
NO_CHARGES


@<TRIPOS>ATOM
   1 C1            -0.0170     1.4032     0.0098 C.ar    
   2 C2             0.0021    -0.0041     0.0020 C.ar    
   3 C3            -1.1973    -0.7208     0.0096 C.ar    
   4 C4            -2.3871    -0.0495     0.0246 C.ar    
   5 C5            -2.4117     1.3387     0.0323 C.ar    
   6 C6            -1.2401     2.0640     0.0301 C.ar    
   7 O7             1.2613     1.8282    -0.0002 O.3     
   8 C8             2.1152     0.7831    -0.0139 C.2     
   9 C9             1.4146    -0.3813    -0.0135 C.2     
  10 C10            3.5794     0.8884    -0.0278 C.2     
  11 O11            4.1682     2.1017    -0.0268 O.3     
  12 O12            4.2611    -0.1182    -0.0401 O.2     
  13 H13           -1.1839    -1.8007     0.0033 H       
  14 H14           -3.3148    -0.6024     0.0301 H       
  15 H15           -3.3597     1.8558     0.0441 H       
  16 H16           -1.2719     3.1435     0.0365 H       
  17 H17            1.8193    -1.3826    -0.0224 H       
  18 H18            5.1350     2.1205    -0.0362 H       
@<TRIPOS>BOND
   1    1    2 ar
   2    1    7 1
   3    1    6 ar
   4    2    3 ar
   5    2    9 1
   6    3    4 ar
   7    3   13 1
   8    4    5 ar
   9    4   14 1
  10    5    6 ar
  11    5   15 1
  12    6   16 1
  13    7    8 1
  14    8    9 2
  15    8   10 1
  16    9   17 1
  17   10   11 1
  18   10   12 2
  19   11   18 1

#	End of record

