#	Name: ASD10410154
#	Creating user name:	WinNT
#	Creation time:	15. 06. 2019 21:27

#	Modifying user name:	WinNT
#	Modification time:	15. 06. 2019 21:27

#	Program:	/corina/corina34_cracker 3.40 0067  02.08.2006

@<TRIPOS>MOLECULE
ASD10410154
  69   74    0    0    0
SMALL
NO_CHARGES


@<TRIPOS>ATOM
   1 C1            -0.0319     1.3840    -0.1259 C.ar    
   2 C2            -0.0096     0.0058     0.0015 C.ar    
   3 C3             1.1819    -0.6601     0.1369 C.ar    
   4 C4             2.3755     0.0365     0.1466 C.ar    
   5 C5             2.3629     1.4207     0.0186 C.ar    
   6 C6             1.1546     2.0922    -0.1174 C.ar    
   7 N7             3.5637     2.1353     0.0272 N.pl3   
   8 C8             3.6700     3.3285    -0.6866 C.2     
   9 N9             4.7063     4.1318    -0.6737 N.2     
  10 N10            2.7330     3.8329    -1.4982 N.2     
  11 C11            3.1547     4.9683    -2.0116 C.2     
  12 N12            4.4021     5.2081    -1.5229 N.pl3   
  13 N13            2.4576     5.7718    -2.8922 N.pl3   
  14 C14            5.2125     6.2991    -1.8076 C.ar    
  15 C15           -1.3141    -0.7640    -0.0102 C.3     
  16 C16           -1.5753    -1.2968     1.4008 C.3     
  17 C17           -0.8739    -2.6231     1.6176 C.3     
  18 C18            0.6389    -2.5338     1.6533 C.3     
  19 C19            1.1982    -2.1684     0.2765 C.3     
  20 N20           -1.3372    -3.1926     2.8900 N.3     
  21 N21            5.4005     6.6992    -3.0573 N.ar    
  22 C22            5.8536     7.0158    -0.7726 C.ar    
  23 C23            6.1697     7.7374    -3.3431 C.ar    
  24 N24            6.7939     8.4369    -2.4252 N.ar    
  25 C25            6.6678     8.1210    -1.1280 C.ar    
  26 C26           -2.7951    -3.4122     2.8709 C.3     
  27 C27           -3.0365    -4.9057     3.1749 C.3     
  28 C28           -1.7362    -5.3277     3.9084 C.3     
  29 C29           -0.6704    -4.4828     3.1670 C.3     
  30 C30            7.3201     8.8465    -0.1229 C.ar    
  31 C31            7.1590     8.4840     1.1851 C.ar    
  32 C32            6.3486     7.3942     1.5354 C.ar    
  33 C33            5.7062     6.6649     0.5759 C.ar    
  34 O34            6.2063     7.0558     2.8446 O.3     
  35 C35            5.3679     5.9363     3.1378 C.3     
  36 O36            7.7926     9.1884     2.1587 O.3     
  37 C37            8.6045    10.2874     1.7404 C.3     
  38 H38           -0.9725     1.9032    -0.2359 H       
  39 H39            3.3119    -0.4910     0.2534 H       
  40 H40            1.1426     3.1676    -0.2168 H       
  41 H41            4.3233     1.8014     0.5296 H       
  42 H42            1.5700     5.5132    -3.1860 H       
  43 H43            2.8554     6.5947    -3.2169 H       
  44 H44           -2.1273    -0.1023    -0.3083 H       
  45 H45           -1.2413    -1.5976    -0.7088 H       
  46 H46           -1.2086    -0.5743     2.1300 H       
  47 H47           -2.6479    -1.4319     1.5398 H       
  48 H48           -1.1614    -3.3015     0.8143 H       
  49 H49            0.9359    -1.7720     2.3741 H       
  50 H50            1.0473    -3.4962     1.9618 H       
  51 H51            0.5783    -2.6148    -0.5010 H       
  52 H52            2.2214    -2.5334     0.1881 H       
  53 H53            6.2892     8.0215    -4.3782 H       
  54 H54           -3.2727    -2.7967     3.6332 H       
  55 H55           -3.1945    -3.1646     1.8874 H       
  56 H56           -3.9033    -5.0318     3.8237 H       
  57 H57           -3.1593    -5.4720     2.2516 H       
  58 H58           -1.7798    -5.0618     4.9645 H       
  59 H59           -1.5457    -6.3936     3.7832 H       
  60 H60           -0.3820    -4.9687     2.2349 H       
  61 H61            0.2021    -4.3303     3.8022 H       
  62 H62            7.9470     9.6875    -0.3801 H       
  63 H63            5.0842     5.8273     0.8549 H       
  64 H64            4.3591     6.1330     2.7749 H       
  65 H65            5.7638     5.0474     2.6469 H       
  66 H66            5.3412     5.7748     4.2155 H       
  67 H67            9.0513    10.7621     2.6139 H       
  68 H68            9.3928     9.9261     1.0801 H       
  69 H69            7.9885    11.0123     1.2082 H       
@<TRIPOS>BOND
   1    1    2 ar
   2    1    6 ar
   3    1   38 1
   4    2    3 ar
   5    2   15 1
   6    3    4 ar
   7    3   19 1
   8    4    5 ar
   9    4   39 1
  10    5    6 ar
  11    5    7 1
  12    6   40 1
  13    7    8 1
  14    7   41 1
  15    8    9 2
  16    8   10 1
  17    9   12 1
  18   10   11 2
  19   11   12 1
  20   11   13 1
  21   12   14 1
  22   13   42 1
  23   13   43 1
  24   14   21 ar
  25   14   22 ar
  26   15   16 1
  27   15   44 1
  28   15   45 1
  29   16   17 1
  30   16   46 1
  31   16   47 1
  32   17   18 1
  33   17   20 1
  34   17   48 1
  35   18   19 1
  36   18   49 1
  37   18   50 1
  38   19   51 1
  39   19   52 1
  40   20   26 1
  41   20   29 1
  42   21   23 ar
  43   22   25 ar
  44   22   33 ar
  45   23   24 ar
  46   23   53 1
  47   24   25 ar
  48   25   30 ar
  49   26   27 1
  50   26   54 1
  51   26   55 1
  52   27   28 1
  53   27   56 1
  54   27   57 1
  55   28   29 1
  56   28   58 1
  57   28   59 1
  58   29   60 1
  59   29   61 1
  60   30   31 ar
  61   30   62 1
  62   31   32 ar
  63   31   36 1
  64   32   33 ar
  65   32   34 1
  66   33   63 1
  67   34   35 1
  68   35   64 1
  69   35   65 1
  70   35   66 1
  71   36   37 1
  72   37   67 1
  73   37   68 1
  74   37   69 1

#	End of record

