#	Name: ASD13960001
#	Creating user name:	WinNT
#	Creation time:	15. 06. 2019 21:30

#	Modifying user name:	WinNT
#	Modification time:	15. 06. 2019 21:30

#	Program:	/corina/corina34_cracker 3.40 0067  02.08.2006

@<TRIPOS>MOLECULE
ASD13960001
  43   45    0    0    0
SMALL
NO_CHARGES


@<TRIPOS>ATOM
   1 P1            -0.0198     1.6058     0.0109 P.3     
   2 P2             2.1671     3.5690     0.3967 P.3     
   3 O3            -0.0429    -2.6265     1.2405 O.3     
   4 O4            -2.3507    -5.3736     1.0738 O.3     
   5 O5            -2.1473    -3.9524    -1.0959 O.3     
   6 O6             0.0021    -0.0041     0.0020 O.3     
   7 O7             1.4907     2.1630    -0.0006 O.3     
   8 O8            -0.7984     2.1391    -1.2935 O.3     
   9 O9            -0.7125     2.0831     1.2285 O.2     
  10 O10            0.9040    -6.2721     6.9377 O.2     
  11 O11            2.3461     3.6459     1.9948 O.3     
  12 O12            3.6080     3.6903    -0.3112 O.3     
  13 O13            1.2997     4.6793    -0.0566 O.2     
  14 N14           -0.0885    -4.2529     2.9935 N.pl3   
  15 N15            0.1702    -6.7601     3.0713 N.pl3   
  16 N16            0.3068    -3.9190     5.1094 N.2     
  17 N17            0.6826    -7.6328     5.1868 N.2     
  18 N18            0.4573    -9.0678     3.3901 N.pl3   
  19 C19           -1.9227    -4.0363     1.3393 C.3     
  20 C20           -2.0790    -3.1464     0.0822 C.3     
  21 C21           -0.3934    -3.9838     1.5861 C.3     
  22 C22           -0.8037    -2.2815     0.0707 C.3     
  23 C23           -1.1801    -0.7991     0.1135 C.3     
  24 C24            0.1416    -5.4745     3.5475 C.2     
  25 C25            0.0223    -3.3243     3.9864 C.2     
  26 C26            0.3927    -5.2526     4.8961 C.2     
  27 C27            0.6772    -6.4128     5.7462 C.2     
  28 C28            0.4391    -7.7991     3.9045 C.2     
  29 H29           -2.4683    -3.6157     2.1839 H       
  30 H30           -2.9668    -2.5196     0.1665 H       
  31 H31            0.1267    -4.6909     0.9399 H       
  32 H32           -0.2209    -2.4922    -0.8259 H       
  33 H33           -1.6790    -0.5780     1.0570 H       
  34 H34           -1.8511    -0.5706    -0.7146 H       
  35 H35           -3.2824    -5.4464     0.8254 H       
  36 H36           -2.9001    -4.5591    -1.1143 H       
  37 H37           -0.1056    -2.2593     3.8604 H       
  38 H38           -0.0033    -6.9291     2.1321 H       
  39 H39            0.2803    -9.2114     2.4473 H       
  40 H40            0.6472    -9.8230     3.9685 H       
  41 H41           -0.3990     1.8638    -2.1300 H       
  42 H42            4.0741     4.5147    -0.1156 H       
  43 H43            2.9042     2.9469     2.3622 H       
@<TRIPOS>BOND
   1    1    6 1
   2    1    7 1
   3    1    8 1
   4    1    9 2
   5    2    7 1
   6    2   11 1
   7    2   12 1
   8    2   13 2
   9    3   21 1
  10    3   22 1
  11    4   35 1
  12    4   19 1
  13    5   36 1
  14    5   20 1
  15    6   23 1
  16    8   41 1
  17   10   27 2
  18   11   43 1
  19   12   42 1
  20   14   24 1
  21   14   25 1
  22   14   21 1
  23   15   24 1
  24   15   28 1
  25   15   38 1
  26   16   25 2
  27   16   26 1
  28   17   27 1
  29   17   28 2
  30   18   28 1
  31   18   39 1
  32   18   40 1
  33   19   20 1
  34   19   29 1
  35   19   21 1
  36   20   22 1
  37   20   30 1
  38   21   31 1
  39   22   23 1
  40   22   32 1
  41   23   33 1
  42   23   34 1
  43   24   26 2
  44   25   37 1
  45   26   27 1

#	End of record

