#	Name: ASD10410309
#	Creating user name:	WinNT
#	Creation time:	15. 06. 2019 21:27

#	Modifying user name:	WinNT
#	Modification time:	15. 06. 2019 21:27

#	Program:	/corina/corina34_cracker 3.40 0067  02.08.2006

@<TRIPOS>MOLECULE
ASD10410309
  85   92    0    0    0
SMALL
NO_CHARGES


@<TRIPOS>ATOM
   1 C1             0.0705     1.5025     0.9862 C.ar    
   2 C2             0.4389     0.4647     0.1372 C.ar    
   3 C3            -0.4344     0.0344    -0.8519 C.ar    
   4 C4            -1.6694     0.6367    -0.9933 C.ar    
   5 C5            -2.0382     1.6736    -0.1463 C.ar    
   6 C6            -1.1679     2.1011     0.8480 C.ar    
   7 N7            -3.2901     2.2838    -0.2907 N.pl3   
   8 C8            -3.4488     3.6333     0.0248 C.2     
   9 N9            -4.5857     4.2870     0.0233 N.2     
  10 N10           -2.4662     4.4681     0.3834 N.2     
  11 C11           -2.9628     5.6652     0.6103 C.2     
  12 N12           -4.2985     5.6095     0.3979 N.pl3   
  13 N13           -2.2475     6.7817     0.9996 N.pl3   
  14 C14           -5.2106     6.6594     0.5263 C.ar    
  15 N15            1.6920    -0.1463     0.2801 N.3     
  16 C16            1.5490    -1.5794     0.5666 C.3     
  17 C17           -6.4009     6.6324    -0.1872 C.ar    
  18 N18           -4.9396     7.6716     1.3304 N.ar    
  19 C19           -5.7685     8.6947     1.4941 C.ar    
  20 C20           -6.9530     8.7594     0.8097 C.ar    
  21 C21           -7.2895     7.6938    -0.0497 C.ar    
  22 C22           -8.5693     7.7069    -0.8004 C.ar    
  23 C23           -8.8840     8.7834    -1.6273 C.ar    
  24 C24          -10.0756     8.7901    -2.3236 C.ar    
  25 C25          -10.9570     7.7311    -2.2014 C.ar    
  26 C26          -10.6499     6.6601    -1.3816 C.ar    
  27 C27           -9.4583     6.6401    -0.6855 C.ar    
  28 C28           -5.3656     9.7642     2.4813 C.3     
  29 C29           -5.5343    11.1412     1.8466 C.3     
  30 C30           -6.8974    11.7149     2.2348 C.3     
  31 C31           -7.9372    10.5809     2.2464 C.3     
  32 C32           -7.9401     9.8976     0.8820 C.3     
  33 C33           -7.6792     9.6140     3.3851 C.3     
  34 C34           -6.1948     9.6294     3.7514 C.3     
  35 F35            0.9202     1.9218     1.9493 F       
  36 C36            2.4900     0.5249     1.3140 C.3     
  37 C37            3.8984    -0.0730     1.3415 C.3     
  38 C38            3.8053    -1.5728     1.6357 C.3     
  39 C39            2.9294    -2.2402     0.5718 C.3     
  40 N40            5.1500    -2.1634     1.6055 N.3     
  41 C41            6.0151    -1.5607     2.6363 C.3     
  42 C42            6.5338    -2.7095     3.5266 C.3     
  43 C43            6.3918    -3.9533     2.6102 C.3     
  44 C44            5.0929    -3.6230     1.8335 C.3     
  45 H45           -0.1481    -0.7714    -1.5115 H       
  46 H46           -2.3484     0.3013    -1.7633 H       
  47 H47           -1.4549     2.9072     1.5070 H       
  48 H48           -4.0471     1.7682    -0.6102 H       
  49 H49           -1.2880     6.7221     1.1288 H       
  50 H50           -2.7049     7.6249     1.1436 H       
  51 H51            1.0803    -1.7098     1.5421 H       
  52 H52            0.9274    -2.0428    -0.1996 H       
  53 H53           -6.6329     5.8022    -0.8379 H       
  54 H54           -8.1969     9.6111    -1.7230 H       
  55 H55          -10.3205     9.6239    -2.9649 H       
  56 H56          -11.8885     7.7406    -2.7478 H       
  57 H57          -11.3421     5.8362    -1.2893 H       
  58 H58           -9.2196     5.8034    -0.0456 H       
  59 H59           -4.3169     9.6237     2.7432 H       
  60 H60           -4.7459    11.8046     2.2023 H       
  61 H61           -5.4729    11.0517     0.7620 H       
  62 H62           -6.8353    12.1623     3.2268 H       
  63 H63           -7.1934    12.4731     1.5099 H       
  64 H64           -8.9201    11.0241     2.4060 H       
  65 H65           -7.6880    10.6330     0.1180 H       
  66 H66           -8.9397     9.5116     0.6822 H       
  67 H67           -8.2695     9.9098     4.2524 H       
  68 H68           -7.9664     8.6082     3.0785 H       
  69 H69           -5.9354     8.7000     4.2585 H       
  70 H70           -5.9912    10.4734     4.4103 H       
  71 H71            2.5518     1.5900     1.0907 H       
  72 H72            2.0169     0.3847     2.2860 H       
  73 H73            4.3772     0.0791     0.3742 H       
  74 H74            4.4857     0.4147     2.1195 H       
  75 H75            3.3620    -1.7241     2.6199 H       
  76 H76            2.8243    -3.3008     0.7999 H       
  77 H77            3.3929    -2.1222    -0.4077 H       
  78 H78            6.8541    -1.0498     2.1639 H       
  79 H79            5.4401    -0.8564     3.2374 H       
  80 H80            7.5772    -2.5468     3.7965 H       
  81 H81            5.9159    -2.8152     4.4182 H       
  82 H82            7.2413    -4.0379     1.9324 H       
  83 H83            6.2734    -4.8618     3.2006 H       
  84 H84            4.2180    -3.8798     2.4307 H       
  85 H85            5.0737    -4.1552     0.8824 H       
@<TRIPOS>BOND
   1    1    2 ar
   2    1   35 1
   3    1    6 ar
   4    2    3 ar
   5    2   15 1
   6    3    4 ar
   7    3   45 1
   8    4    5 ar
   9    4   46 1
  10    5    6 ar
  11    5    7 1
  12    6   47 1
  13    7    8 1
  14    7   48 1
  15    8    9 2
  16    8   10 1
  17    9   12 1
  18   10   11 2
  19   11   12 1
  20   11   13 1
  21   12   14 1
  22   13   49 1
  23   13   50 1
  24   14   17 ar
  25   14   18 ar
  26   15   16 1
  27   15   36 1
  28   16   39 1
  29   16   51 1
  30   16   52 1
  31   17   21 ar
  32   17   53 1
  33   18   19 ar
  34   19   20 ar
  35   19   28 1
  36   20   21 ar
  37   20   32 1
  38   21   22 1
  39   22   23 ar
  40   22   27 ar
  41   23   24 ar
  42   23   54 1
  43   24   25 ar
  44   24   55 1
  45   25   26 ar
  46   25   56 1
  47   26   27 ar
  48   26   57 1
  49   27   58 1
  50   28   29 1
  51   28   34 1
  52   28   59 1
  53   29   30 1
  54   29   60 1
  55   29   61 1
  56   30   31 1
  57   30   62 1
  58   30   63 1
  59   31   32 1
  60   31   33 1
  61   31   64 1
  62   32   65 1
  63   32   66 1
  64   33   34 1
  65   33   67 1
  66   33   68 1
  67   34   69 1
  68   34   70 1
  69   36   37 1
  70   36   71 1
  71   36   72 1
  72   37   38 1
  73   37   73 1
  74   37   74 1
  75   38   39 1
  76   38   40 1
  77   38   75 1
  78   39   76 1
  79   39   77 1
  80   40   41 1
  81   40   44 1
  82   41   42 1
  83   41   78 1
  84   41   79 1
  85   42   43 1
  86   42   80 1
  87   42   81 1
  88   43   44 1
  89   43   82 1
  90   43   83 1
  91   44   84 1
  92   44   85 1

#	End of record

