#	Name: ASD10950052
#	Creating user name:	WinNT
#	Creation time:	15. 06. 2019 21:28

#	Modifying user name:	WinNT
#	Modification time:	15. 06. 2019 21:28

#	Program:	/corina/corina34_cracker 3.40 0067  02.08.2006

@<TRIPOS>MOLECULE
ASD10950052
  62   66    0    0    0
SMALL
NO_CHARGES


@<TRIPOS>ATOM
   1 C1             2.0658     2.9304     0.1316 C.3     
   2 C2             1.8002     1.4353     0.3186 C.3     
   3 O3             2.1574     0.7246    -0.8961 O.3     
   4 C4             1.9824    -0.6111    -0.8971 C.2     
   5 O5             1.5434    -1.1668     0.0898 O.2     
   6 C6             2.3244    -1.3999    -2.0984 C.ar    
   7 C7             2.1442    -2.7845    -2.1028 C.ar    
   8 C8             2.4656    -3.5151    -3.2280 C.ar    
   9 C9             2.9655    -2.8788    -4.3504 C.ar    
  10 C10            3.1465    -1.5070    -4.3528 C.ar    
  11 C11            2.8238    -0.7636    -3.2365 C.ar    
  12 C12            3.3148    -3.6836    -5.5757 C.3     
  13 N13            2.7416    -3.0558    -6.7720 N.am    
  14 C14            1.3174    -2.8253    -7.0262 C.3     
  15 C15            0.9180    -1.4521    -6.4824 C.3     
  16 C16           -0.5471    -1.2151    -6.7438 C.2     
  17 C17           -1.0759    -0.5599    -7.7894 C.2     
  18 N18           -2.4404    -0.5458    -7.6893 N.pl3   
  19 C19           -2.8329    -1.2083    -6.5479 C.ar    
  20 C20           -1.6647    -1.6613    -5.9085 C.ar    
  21 C21           -1.7575    -2.3753    -4.7122 C.ar    
  22 C22           -2.9845    -2.6305    -4.1681 C.ar    
  23 C23           -4.1404    -2.1860    -4.7955 C.ar    
  24 C24           -4.0720    -1.4829    -5.9780 C.ar    
  25 C25            3.7555    -2.7287    -7.5937 C.2     
  26 O26            3.6303    -2.1898    -8.6753 O.2     
  27 C27            5.0444    -3.1216    -6.9856 C.2     
  28 C28            4.8116    -3.6937    -5.7811 C.2     
  29 C29            5.8178    -4.2210    -4.8546 C.2     
  30 O30            6.6063    -3.4654    -4.3184 O.2     
  31 C31            5.8743    -5.6711    -4.5716 C.ar    
  32 C32            6.8003    -6.1820    -3.6535 C.ar    
  33 C33            6.8118    -7.5465    -3.4242 C.ar    
  34 C34            5.9171    -8.3548    -4.1024 C.ar    
  35 N35            5.0551    -7.8457    -4.9623 N.ar    
  36 C36            5.0013    -6.5540    -5.2108 C.ar    
  37 O37            6.2628    -2.9392    -7.5444 O.3     
  38 H38            3.1227     3.0875    -0.0838 H       
  39 H39            1.4664     3.3050    -0.6981 H       
  40 H40            1.7977     3.4640     1.0435 H       
  41 H41            2.3997     1.0608     1.1483 H       
  42 H42            0.7433     1.2783     0.5340 H       
  43 H43            1.7545    -3.2825    -1.2273 H       
  44 H44            2.3271    -4.5861    -3.2326 H       
  45 H45            3.5374    -1.0167    -5.2321 H       
  46 H46            2.9655     0.3071    -3.2397 H       
  47 H47            2.9429    -4.7030    -5.4726 H       
  48 H48            1.1296    -2.8598    -8.0993 H       
  49 H49            0.7300    -3.5977    -6.5295 H       
  50 H50            1.1058    -1.4177    -5.4092 H       
  51 H51            1.5053    -0.6798    -6.9790 H       
  52 H52           -0.5083    -0.1101    -8.5906 H       
  53 H53           -3.0417    -0.1306    -8.3273 H       
  54 H54           -0.8626    -2.7248    -4.2188 H       
  55 H55           -3.0557    -3.1828    -3.2427 H       
  56 H56           -5.1031    -2.3959    -4.3533 H       
  57 H57           -4.9770    -1.1414    -6.4584 H       
  58 H58            7.4879    -5.5279    -3.1380 H       
  59 H59            7.5122    -7.9761    -2.7234 H       
  60 H60            5.9243    -9.4202    -3.9254 H       
  61 H61            4.2816    -6.1749    -5.9213 H       
  62 H62            6.2377    -2.5130    -8.4121 H       
@<TRIPOS>BOND
   1    1    2 1
   2    1   38 1
   3    1   39 1
   4    1   40 1
   5    2    3 1
   6    2   41 1
   7    2   42 1
   8    3    4 1
   9    4    5 2
  10    4    6 1
  11    6    7 ar
  12    6   11 ar
  13    7    8 ar
  14    7   43 1
  15    8    9 ar
  16    8   44 1
  17    9   10 ar
  18    9   12 1
  19   10   11 ar
  20   10   45 1
  21   11   46 1
  22   12   13 1
  23   12   28 1
  24   12   47 1
  25   13   14 1
  26   13   25 am
  27   14   15 1
  28   14   48 1
  29   14   49 1
  30   15   16 1
  31   15   50 1
  32   15   51 1
  33   16   17 2
  34   16   20 1
  35   17   18 1
  36   17   52 1
  37   18   19 1
  38   18   53 1
  39   19   20 ar
  40   19   24 ar
  41   20   21 ar
  42   21   22 ar
  43   21   54 1
  44   22   23 ar
  45   22   55 1
  46   23   24 ar
  47   23   56 1
  48   24   57 1
  49   25   26 2
  50   25   27 1
  51   27   28 2
  52   27   37 1
  53   28   29 1
  54   29   30 2
  55   29   31 1
  56   31   32 ar
  57   31   36 ar
  58   32   33 ar
  59   32   58 1
  60   33   34 ar
  61   33   59 1
  62   34   35 ar
  63   34   60 1
  64   35   36 ar
  65   36   61 1
  66   37   62 1

#	End of record

