#	Name: ASD15230003
#	Creating user name:	WinNT
#	Creation time:	15. 06. 2019 21:31

#	Modifying user name:	WinNT
#	Modification time:	15. 06. 2019 21:31

#	Program:	/corina/corina34_cracker 3.40 0067  02.08.2006

@<TRIPOS>MOLECULE
ASD15230003
  59   60    0    0    0
SMALL
NO_CHARGES


@<TRIPOS>ATOM
   1 C1            -1.0614     4.3201    -1.4774 C.3     
   2 C2            -1.2937     2.8619    -1.8784 C.3     
   3 O3            -0.6029     2.5877    -3.0989 O.3     
   4 C4            -0.7059     1.3362    -3.5933 C.2     
   5 O5            -1.3650     0.5010    -3.0027 O.2     
   6 C6            -0.0478     0.9954    -4.7977 C.2     
   7 C7            -0.5959     1.3553    -5.9711 C.2     
   8 N8             0.0099     1.0345    -7.1552 N.pl3   
   9 C9             0.9649     0.0557    -7.1990 C.2     
  10 C10            1.5785    -0.3582    -6.0768 C.2     
  11 C11            1.2520     0.2442    -4.7379 C.3     
  12 C12            2.3575     1.1856    -4.3344 C.ar    
  13 C13            2.6625     2.2747    -5.1292 C.ar    
  14 C14            3.6761     3.1384    -4.7591 C.ar    
  15 C15            4.3857     2.9133    -3.5940 C.ar    
  16 C16            4.0815     1.8248    -2.7988 C.ar    
  17 C17            3.0632     0.9632    -3.1660 C.ar    
  18 Br18           2.6464    -0.5265    -2.0783 Br      
  19 C19            2.5549    -1.3779    -6.1581 C.2     
  20 O20            2.8316    -1.8708    -7.2357 O.2     
  21 O21            3.1798    -1.8043    -5.0406 O.3     
  22 C22            4.1550    -2.8372    -5.1967 C.3     
  23 C23            1.3330    -0.5664    -8.5213 C.3     
  24 C24           -1.8938     2.1211    -5.9826 C.3     
  25 O25           -1.6697     3.4303    -6.5097 O.3     
  26 C26           -2.8434     4.2436    -6.5644 C.3     
  27 C27           -2.4872     5.6150    -7.1419 C.3     
  28 N28           -2.0554     5.4615    -8.5375 N.3     
  29 C29           -3.1647     5.0031    -9.3845 C.3     
  30 C30           -1.4824     6.7125    -9.0519 C.3     
  31 H31            0.0057     4.4929    -1.3377 H       
  32 H32           -1.4361     4.9769    -2.2624 H       
  33 H33           -1.5883     4.5292    -0.5464 H       
  34 H34           -0.9190     2.2051    -1.0933 H       
  35 H35           -2.3608     2.6891    -2.0181 H       
  36 H36           -0.2390     1.5029    -7.9674 H       
  37 H37            1.1704    -0.5510    -3.9968 H       
  38 H38            2.1089     2.4506    -6.0398 H       
  39 H39            3.9141     3.9892    -5.3803 H       
  40 H40            5.1781     3.5881    -3.3055 H       
  41 H41            4.6360     1.6488    -1.8889 H       
  42 H42            3.6823    -3.7217    -5.6235 H       
  43 H43            4.9468    -2.4918    -5.8614 H       
  44 H44            4.5797    -3.0858    -4.2241 H       
  45 H45            0.7394    -0.1118    -9.3145 H       
  46 H46            2.3919    -0.3998    -8.7189 H       
  47 H47            1.1339    -1.6375    -8.4869 H       
  48 H48           -2.6189     1.5978    -6.6058 H       
  49 H49           -2.2782     2.1998    -4.9657 H       
  50 H50           -3.5883     3.7643    -7.1997 H       
  51 H51           -3.2476     4.3663    -5.5596 H       
  52 H52           -3.3616     6.2645    -7.1014 H       
  53 H53           -1.6794     6.0563    -6.5580 H       
  54 H54           -3.9750     5.7313    -9.3474 H       
  55 H55           -2.8176     4.8978   -10.4123 H       
  56 H56           -3.5246     4.0402    -9.0221 H       
  57 H57           -0.6193     6.9923    -8.4478 H       
  58 H58           -1.1710     6.5710   -10.0869 H       
  59 H59           -2.2318     7.5025    -9.0028 H       
@<TRIPOS>BOND
   1    1   31 1
   2    1   32 1
   3    1   33 1
   4    1    2 1
   5    2   34 1
   6    2   35 1
   7    2    3 1
   8    3    4 1
   9    4    5 2
  10    4    6 1
  11    6    7 2
  12    6   11 1
  13    7   24 1
  14    7    8 1
  15    8    9 1
  16    8   36 1
  17    9   23 1
  18    9   10 2
  19   10   19 1
  20   10   11 1
  21   11   37 1
  22   11   12 1
  23   12   13 ar
  24   12   17 ar
  25   13   38 1
  26   13   14 ar
  27   14   39 1
  28   14   15 ar
  29   15   40 1
  30   15   16 ar
  31   16   17 ar
  32   16   41 1
  33   17   18 1
  34   19   21 1
  35   19   20 2
  36   21   22 1
  37   22   42 1
  38   22   43 1
  39   22   44 1
  40   23   45 1
  41   23   46 1
  42   23   47 1
  43   24   25 1
  44   24   48 1
  45   24   49 1
  46   25   26 1
  47   26   27 1
  48   26   50 1
  49   26   51 1
  50   27   28 1
  51   27   52 1
  52   27   53 1
  53   28   29 1
  54   28   30 1
  55   29   54 1
  56   29   55 1
  57   29   56 1
  58   30   57 1
  59   30   58 1
  60   30   59 1

#	End of record

