#	Name: ASD10420021
#	Creating user name:	WinNT
#	Creation time:	15. 06. 2019 21:27

#	Modifying user name:	WinNT
#	Modification time:	15. 06. 2019 21:27

#	Program:	/corina/corina34_cracker 3.40 0067  02.08.2006

@<TRIPOS>MOLECULE
ASD10420021
  58   62    0    0    0
SMALL
NO_CHARGES


@<TRIPOS>ATOM
   1 N1            -0.1250     0.2609    -0.6020 N.pl3   
   2 C2            -0.5341    -0.9694    -1.0408 C.2     
   3 C3            -1.9397    -0.9687    -1.0944 C.2     
   4 C4            -2.3691     0.2907    -0.6777 C.2     
   5 C5            -1.2422     1.0410    -0.3819 C.2     
   6 C6             1.2055     0.5294    -0.4592 C.2     
   7 C7             2.1342    -0.4087    -0.7467 C.2     
   8 C8             1.7420    -1.6774    -1.1980 C.2     
   9 C9             0.4155    -1.9577    -1.3439 C.2     
  10 C10           -1.2378     2.3812     0.0778 C.2     
  11 N11           -1.2087     3.3971    -0.8073 N.am    
  12 C12           -1.3187     4.7932    -0.3579 C.3     
  13 C13           -0.1652     5.5943    -0.9711 C.3     
  14 N14           -0.1649     5.4091    -2.4284 N.3     
  15 C15            0.0775     4.0053    -2.7870 C.3     
  16 C16           -1.0598     3.1394    -2.2477 C.3     
  17 O17           -1.2605     2.6151     1.2729 O.2     
  18 C18           -3.7994     0.7538    -0.5732 C.3     
  19 C19           -4.3174     0.4754     0.8143 C.ar    
  20 C20           -4.4958     1.5157     1.7068 C.ar    
  21 C21           -4.9721     1.2597     2.9812 C.ar    
  22 C22           -5.2693    -0.0386     3.3603 C.ar    
  23 C23           -5.0902    -1.0770     2.4664 C.ar    
  24 C24           -4.6194    -0.8195     1.1921 C.ar    
  25 C25           -4.1714     2.9279     1.2929 C.3     
  26 C26           -2.8030    -2.0959    -1.5157 C.ar    
  27 C27           -2.8372    -3.2704    -0.7639 C.ar    
  28 C28           -3.6432    -4.3181    -1.1605 C.ar    
  29 C29           -4.4166    -4.2065    -2.3015 C.ar    
  30 C30           -4.3879    -3.0426    -3.0534 C.ar    
  31 C31           -3.5893    -1.9849    -2.6624 C.ar    
  32 F32           -5.1464     2.2756     3.8545 F       
  33 F33           -5.1459    -2.9399    -4.1670 F       
  34 H34            1.5195     1.5030    -0.1127 H       
  35 H35            3.1832    -0.1806    -0.6288 H       
  36 H36            2.4850    -2.4268    -1.4280 H       
  37 H37            0.0987    -2.9302    -1.6905 H       
  38 H38           -2.2702     5.2102    -0.6880 H       
  39 H39           -1.2554     4.8339     0.7295 H       
  40 H40           -0.2929     6.6516    -0.7389 H       
  41 H41            0.7809     5.2428    -0.5596 H       
  42 H42           -1.0257     5.7428    -2.8355 H       
  43 H43            0.1259     3.9102    -3.8718 H       
  44 H44            1.0203     3.6759    -2.3502 H       
  45 H45           -0.8279     2.0870    -2.4109 H       
  46 H46           -1.9886     3.3959    -2.7574 H       
  47 H47           -3.8501     1.8243    -0.7720 H       
  48 H48           -4.4084     0.2196    -1.3024 H       
  49 H49           -5.6406    -0.2396     4.3543 H       
  50 H50           -5.3219    -2.0896     2.7618 H       
  51 H51           -4.4839    -1.6311     0.4926 H       
  52 H52           -5.0323     3.3652     0.7871 H       
  53 H53           -3.9301     3.5191     2.1762 H       
  54 H54           -3.3172     2.9210     0.6158 H       
  55 H55           -2.2334    -3.3599     0.1270 H       
  56 H56           -3.6697    -5.2275    -0.5785 H       
  57 H57           -5.0452    -5.0295    -2.6079 H       
  58 H58           -3.5672    -1.0778    -3.2482 H       
@<TRIPOS>BOND
   1    1    2 1
   2    1    6 1
   3    1    5 1
   4    2    3 2
   5    2    9 1
   6    3    4 1
   7    3   26 1
   8    4    5 2
   9    4   18 1
  10    5   10 1
  11    6    7 2
  12    6   34 1
  13    7    8 1
  14    7   35 1
  15    8    9 2
  16    8   36 1
  17    9   37 1
  18   10   11 am
  19   10   17 2
  20   11   12 1
  21   11   16 1
  22   12   13 1
  23   12   38 1
  24   12   39 1
  25   13   14 1
  26   13   40 1
  27   13   41 1
  28   14   15 1
  29   14   42 1
  30   15   16 1
  31   15   43 1
  32   15   44 1
  33   16   45 1
  34   16   46 1
  35   18   19 1
  36   18   47 1
  37   18   48 1
  38   19   20 ar
  39   19   24 ar
  40   20   21 ar
  41   20   25 1
  42   21   22 ar
  43   21   32 1
  44   22   23 ar
  45   22   49 1
  46   23   24 ar
  47   23   50 1
  48   24   51 1
  49   25   52 1
  50   25   53 1
  51   25   54 1
  52   26   27 ar
  53   26   31 ar
  54   27   28 ar
  55   27   55 1
  56   28   29 ar
  57   28   56 1
  58   29   30 ar
  59   29   57 1
  60   30   31 ar
  61   30   33 1
  62   31   58 1

#	End of record

