#	Name: ASD11000301
#	Creating user name:	WinNT
#	Creation time:	15. 06. 2019 21:29

#	Modifying user name:	WinNT
#	Modification time:	15. 06. 2019 21:29

#	Program:	/corina/corina34_cracker 3.40 0067  02.08.2006

@<TRIPOS>MOLECULE
ASD11000301
  46   49    0    0    0
SMALL
NO_CHARGES


@<TRIPOS>ATOM
   1 N1             0.1052     1.2548    -0.8159 N.am    
   2 C2            -0.3722     1.0533    -2.0564 C.2     
   3 C3             0.2738     1.5830    -3.1938 C.2     
   4 C4             1.4056     2.3171    -3.0563 C.2     
   5 C5             1.9340     2.5431    -1.7096 C.ar    
   6 C6             3.0977     3.2923    -1.5070 C.ar    
   7 C7             3.5684     3.4860    -0.2238 C.ar    
   8 C8             2.8908     2.9394     0.8640 C.ar    
   9 C9             1.7442     2.2000     0.6770 C.ar    
  10 C10            1.2526     1.9928    -0.6079 C.ar    
  11 O11           -1.3885     0.3962    -2.2025 O.2     
  12 O12            4.6989     4.2133    -0.0205 O.3     
  13 C13            4.6134     5.5649    -0.1174 C.ar    
  14 C14            5.7644     6.3459    -0.0240 C.ar    
  15 C15            5.6277     7.7192    -0.1286 C.ar    
  16 C16            4.3457     8.2361    -0.3210 C.ar    
  17 N17            3.3102     7.4157    -0.3976 N.ar    
  18 N18            3.4395     6.1421    -0.3058 N.ar    
  19 N19            4.1566     9.6116    -0.4318 N.pl3   
  20 C20            5.3044    10.5180    -0.3463 C.3     
  21 C21            4.8326    11.9414    -0.4953 C.ar    
  22 C22            4.4687    12.6686     0.6230 C.ar    
  23 C23            4.0359    13.9736     0.4890 C.ar    
  24 C24            3.9665    14.5545    -0.7689 C.ar    
  25 C25            4.3322    13.8228    -1.8894 C.ar    
  26 C26            4.7697    12.5199    -1.7496 C.ar    
  27 O27            3.5406    15.8380    -0.9034 O.3     
  28 C28            3.4946    16.3709    -2.2285 C.3     
  29 F29            2.6253    15.6025    -3.0102 F       
  30 F30            3.0373    17.6923    -2.1842 F       
  31 F31            4.7763    16.3395    -2.7885 F       
  32 H32           -0.3659     0.8793    -0.0557 H       
  33 H33           -0.1345     1.4028    -4.1773 H       
  34 H34            1.9065     2.7259    -3.9213 H       
  35 H35            3.6247     3.7162    -2.3490 H       
  36 H36            3.2686     3.0968     1.8634 H       
  37 H37            1.2271     1.7807     1.5274 H       
  38 H38            6.7334     5.8930     0.1258 H       
  39 H39            6.4865     8.3707    -0.0629 H       
  40 H40            3.2650     9.9694    -0.5656 H       
  41 H41            5.7922    10.3963     0.6208 H       
  42 H42            6.0118    10.2845    -1.1420 H       
  43 H43            4.5226    12.2158     1.6020 H       
  44 H44            3.7514    14.5411     1.3628 H       
  45 H45            4.2790    14.2728    -2.8698 H       
  46 H46            5.0591    11.9514    -2.6211 H       
@<TRIPOS>BOND
   1    1    2 am
   2    1   10 1
   3    1   32 1
   4    2    3 1
   5    2   11 2
   6    3    4 2
   7    3   33 1
   8    4    5 1
   9    4   34 1
  10    5    6 ar
  11    5   10 ar
  12    6    7 ar
  13    6   35 1
  14    7    8 ar
  15    7   12 1
  16    8    9 ar
  17    8   36 1
  18    9   10 ar
  19    9   37 1
  20   12   13 1
  21   13   14 ar
  22   13   18 ar
  23   14   15 ar
  24   14   38 1
  25   15   16 ar
  26   15   39 1
  27   16   17 ar
  28   16   19 1
  29   17   18 ar
  30   19   20 1
  31   19   40 1
  32   20   21 1
  33   20   41 1
  34   20   42 1
  35   21   22 ar
  36   21   26 ar
  37   22   23 ar
  38   22   43 1
  39   23   24 ar
  40   23   44 1
  41   24   25 ar
  42   24   27 1
  43   25   26 ar
  44   25   45 1
  45   26   46 1
  46   27   28 1
  47   28   29 1
  48   28   30 1
  49   28   31 1

#	End of record

