#	Name: ASD10410118
#	Creating user name:	WinNT
#	Creation time:	15. 06. 2019 21:26

#	Modifying user name:	WinNT
#	Modification time:	15. 06. 2019 21:26

#	Program:	/corina/corina34_cracker 3.40 0067  02.08.2006

@<TRIPOS>MOLECULE
ASD10410118
  65   70    0    0    0
SMALL
NO_CHARGES


@<TRIPOS>ATOM
   1 C1             0.1358     1.2258     0.6567 C.ar    
   2 C2             0.0346    -0.0252     0.0663 C.ar    
   3 C3             1.1182    -0.5623    -0.6129 C.ar    
   4 C4             2.2991     0.1481    -0.7015 C.ar    
   5 C5             2.4014     1.4008    -0.1106 C.ar    
   6 C6             1.3157     1.9379     0.5688 C.ar    
   7 O7            -1.1277    -0.7259     0.1538 O.3     
   8 N8             3.5980     2.1216    -0.1999 N.pl3   
   9 C9             3.5737     3.5159    -0.2004 C.2     
  10 N10            4.6286     4.2945    -0.1785 N.2     
  11 N11            2.4702     4.2724    -0.2290 N.2     
  12 C12            2.8041     5.5450    -0.2210 C.2     
  13 N13            4.1619     5.6189    -0.1889 N.pl3   
  14 C14            4.9343     6.7759    -0.1707 C.ar    
  15 N15            1.9313     6.6155    -0.2445 N.pl3   
  16 C16            5.8627     7.0071     0.8754 C.ar    
  17 C17           -1.1617    -2.0075    -0.4774 C.3     
  18 C18           -2.5399    -2.6399    -0.2738 C.3     
  19 N19           -3.5546    -1.8371    -0.9695 N.3     
  20 C20           -4.8525    -2.5359    -0.9986 C.3     
  21 C21           -5.8905    -1.6001    -0.3442 C.3     
  22 C22           -5.2417    -0.1989    -0.4947 C.3     
  23 C23           -3.7395    -0.5280    -0.3077 C.3     
  24 N24            4.8193     7.6782    -1.1329 N.ar    
  25 C25            5.5467     8.7803    -1.1276 C.ar    
  26 N26            6.4158     9.0411    -0.1784 N.ar    
  27 C27            6.6057     8.1851     0.8342 C.ar    
  28 S28            7.6744     8.2536     2.2238 S.3     
  29 C29            7.1096     6.7034     2.8324 C.2     
  30 C30            6.1806     6.1782     2.0353 C.2     
  31 C31            7.6200     6.0686     4.1113 C.3     
  32 C32            7.9653     4.6010     3.8685 C.3     
  33 C33            6.7334     3.7438     4.1452 C.3     
  34 C34            5.4730     4.5159     3.7609 C.3     
  35 C35            5.5001     4.8381     2.2733 C.3     
  36 H36           -0.7099     1.6451     1.1816 H       
  37 H37            1.0385    -1.5364    -1.0723 H       
  38 H38            3.1430    -0.2704    -1.2297 H       
  39 H39            1.3943     2.9121     1.0282 H       
  40 H40            4.4441     1.6513    -0.2615 H       
  41 H41            0.9741     6.4604    -0.2693 H       
  42 H42            2.2756     7.5223    -0.2363 H       
  43 H43           -0.9686    -1.8925    -1.5439 H       
  44 H44           -0.3987    -2.6496    -0.0372 H       
  45 H45           -2.5383    -3.6524    -0.6774 H       
  46 H46           -2.7706    -2.6736     0.7910 H       
  47 H47           -5.1387    -2.7438    -2.0297 H       
  48 H48           -4.7853    -3.4667    -0.4354 H       
  49 H49           -6.8399    -1.6445    -0.8778 H       
  50 H50           -6.0263    -1.8509     0.7078 H       
  51 H51           -5.4305     0.2144    -1.4855 H       
  52 H52           -5.5925     0.4794     0.2830 H       
  53 H53           -3.4961    -0.6008     0.7522 H       
  54 H54           -3.1221     0.2308    -0.7885 H       
  55 H55            5.4228     9.4911    -1.9313 H       
  56 H56            8.5113     6.5987     4.4471 H       
  57 H57            6.8506     6.1363     4.8804 H       
  58 H58            8.2772     4.4668     2.8327 H       
  59 H59            8.7743     4.3021     4.5350 H       
  60 H60            6.7902     2.8269     3.5585 H       
  61 H61            6.6963     3.4935     5.2055 H       
  62 H62            4.5944     3.9107     3.9842 H       
  63 H63            5.4282     5.4441     4.3306 H       
  64 H64            4.4790     4.8781     1.8940 H       
  65 H65            6.0486     4.0583     1.7450 H       
@<TRIPOS>BOND
   1    1    2 ar
   2    1    6 ar
   3    1   36 1
   4    2    3 ar
   5    2    7 1
   6    3    4 ar
   7    3   37 1
   8    4    5 ar
   9    4   38 1
  10    5    6 ar
  11    5    8 1
  12    6   39 1
  13    7   17 1
  14    8    9 1
  15    8   40 1
  16    9   10 2
  17    9   11 1
  18   10   13 1
  19   11   12 2
  20   12   13 1
  21   12   15 1
  22   13   14 1
  23   14   16 ar
  24   14   24 ar
  25   15   41 1
  26   15   42 1
  27   16   27 ar
  28   16   30 1
  29   17   18 1
  30   17   43 1
  31   17   44 1
  32   18   19 1
  33   18   45 1
  34   18   46 1
  35   19   20 1
  36   19   23 1
  37   20   21 1
  38   20   47 1
  39   20   48 1
  40   21   22 1
  41   21   49 1
  42   21   50 1
  43   22   23 1
  44   22   51 1
  45   22   52 1
  46   23   53 1
  47   23   54 1
  48   24   25 ar
  49   25   26 ar
  50   25   55 1
  51   26   27 ar
  52   27   28 1
  53   28   29 1
  54   29   30 2
  55   29   31 1
  56   30   35 1
  57   31   32 1
  58   31   56 1
  59   31   57 1
  60   32   33 1
  61   32   58 1
  62   32   59 1
  63   33   34 1
  64   33   60 1
  65   33   61 1
  66   34   35 1
  67   34   62 1
  68   34   63 1
  69   35   64 1
  70   35   65 1

#	End of record

