#	Name: ASD13210004
#	Creating user name:	WinNT
#	Creation time:	15. 06. 2019 21:30

#	Modifying user name:	WinNT
#	Modification time:	15. 06. 2019 21:30

#	Program:	/corina/corina34_cracker 3.40 0067  02.08.2006

@<TRIPOS>MOLECULE
ASD13210004
  40   40    0    0    0
SMALL
NO_CHARGES


@<TRIPOS>ATOM
   1 C1            -0.0183     1.4701     0.0196 C.2     
   2 C2             0.0009    -0.0046    -0.0102 C.ar    
   3 C3             1.2217    -0.6935    -0.0158 C.ar    
   4 C4             1.2286    -2.0797    -0.0440 C.ar    
   5 C5             0.0374    -2.7780    -0.0664 C.ar    
   6 C6            -1.1721    -2.1011    -0.0610 C.ar    
   7 C7            -1.1972    -0.7224    -0.0273 C.ar    
   8 O8             1.0267     2.0915     0.0395 O.2     
   9 N9            -1.1941     2.1288     0.0193 N.am    
  10 O10            2.3916    -0.0067     0.0058 O.3     
  11 C11           -1.2149     3.5231     0.1326 C.ar    
  12 C12           -2.3315     4.1629     0.6582 C.ar    
  13 C13           -2.3480     5.5401     0.7690 C.ar    
  14 C14           -1.2553     6.2814     0.3574 C.ar    
  15 C15           -0.1436     5.6477    -0.1661 C.ar    
  16 C16           -0.1181     4.2706    -0.2744 C.ar    
  17 N17           -1.2762     7.7566     0.4774 N.pl3   
  18 O18           -2.2550     8.3163     0.9381 O.2     
  19 O19           -0.3146     8.4107     0.1155 O.2     
  20 Cl20          -3.7035     3.2328     1.1743 Cl      
  21 Cl21          -2.6616    -2.9923    -0.0901 Cl      
  22 H22            2.1671    -2.6142    -0.0487 H       
  23 H23            0.0482    -3.8577    -0.0887 H       
  24 H24           -2.1417    -0.1987    -0.0183 H       
  25 H25           -2.0260     1.6362    -0.0595 H       
  26 H26            2.7248     0.1747     0.8953 H       
  27 H27           -3.2152     6.0382     1.1769 H       
  28 H28            0.7076     6.2297    -0.4871 H       
  29 H29            0.7526     3.7764    -0.6794 H       
  30 C30            8.7236    16.4374     7.0599 C.3     
  31 C31            8.7443    14.9076     7.0515 C.3     
  32 O32           10.0642    16.9321     7.0498 O.3     
  33 N33            9.3482    14.4192     8.2984 N.3     
  34 H34            8.1964    16.7985     6.1769 H       
  35 H35            8.2134    16.7890     7.9567 H       
  36 H36            7.7248    14.5309     6.9697 H       
  37 H37            9.3306    14.5569     6.2022 H       
  38 H38           10.1275    17.8970     7.0544 H       
  39 H39            8.8608    14.7837     9.1032 H       
  40 H40            9.3735    13.4107     8.3172 H       
@<TRIPOS>BOND
   1    1    2 1
   2    1    8 2
   3    1    9 am
   4    2    3 ar
   5    2    7 ar
   6    3    4 ar
   7    3   10 1
   8    4    5 ar
   9    4   22 1
  10    5    6 ar
  11    5   23 1
  12    6    7 ar
  13    6   21 1
  14    7   24 1
  15    9   11 1
  16    9   25 1
  17   10   26 1
  18   11   12 ar
  19   11   16 ar
  20   12   13 ar
  21   12   20 1
  22   13   14 ar
  23   13   27 1
  24   14   15 ar
  25   14   17 1
  26   15   16 ar
  27   15   28 1
  28   16   29 1
  29   17   18 2
  30   17   19 2
  31   30   31 1
  32   30   32 1
  33   30   34 1
  34   30   35 1
  35   31   33 1
  36   31   36 1
  37   31   37 1
  38   32   38 1
  39   33   39 1
  40   33   40 1

#	End of record

