#	Name: ASD14300003
#	Creating user name:	WinNT
#	Creation time:	15. 06. 2019 21:31

#	Modifying user name:	WinNT
#	Modification time:	15. 06. 2019 21:31

#	Program:	/corina/corina34_cracker 3.40 0067  02.08.2006

@<TRIPOS>MOLECULE
ASD14300003
  63   67    0    0    0
SMALL
NO_CHARGES


@<TRIPOS>ATOM
   1 N1            -0.1267     1.2242     0.1652 N.pl3   
   2 C2            -0.1422    -0.1368     0.1729 C.2     
   3 C3             1.1251    -0.5825     0.0138 C.2     
   4 C4             1.9617     0.5367    -0.0973 C.2     
   5 C5             1.1719     1.6460    -0.0016 C.2     
   6 C6             1.6290     3.0461    -0.0665 C.ar    
   7 N7             2.9328     3.3234    -0.0596 N.ar    
   8 C8             3.3429     4.5859    -0.1186 C.ar    
   9 N9             2.4538     5.5722    -0.1846 N.ar    
  10 C10            1.1529     5.2975    -0.1917 C.ar    
  11 N11            0.7392     4.0360    -0.1379 N.ar    
  12 C12           -1.2463     2.0559     0.2988 C.ar    
  13 C13           -2.3013     1.9515    -0.5978 C.ar    
  14 C14           -3.4038     2.7725    -0.4633 C.ar    
  15 C15           -3.4574     3.6980     0.5627 C.ar    
  16 C16           -2.4081     3.8046     1.4570 C.ar    
  17 C17           -1.3056     2.9822     1.3314 C.ar    
  18 N18            0.2317     6.3232    -0.2598 N.3     
  19 C19           -1.0673     5.8224    -0.3842 C.3     
  20 C20            0.4221     7.2798     0.8485 C.3     
  21 N21            4.6929     4.8736    -0.1110 N.3     
  22 C22            5.4541     3.7036    -0.0371 C.3     
  23 C23            5.0485     5.7731    -1.2263 C.3     
  24 C24           -2.0862     6.9424    -0.6883 C.3     
  25 C25           -0.0217     8.6404     0.3728 C.3     
  26 C26           -2.3837     7.6949     0.5836 C.3     
  27 C27           -1.4801     8.9306     0.7665 C.3     
  28 C28            6.2289     6.6073    -0.7956 C.3     
  29 C29            6.9495     4.0073     0.2002 C.3     
  30 C30            7.5589     5.9901    -1.2605 C.3     
  31 C31            7.5717     4.4571    -1.0972 C.3     
  32 H32           -1.0190    -0.7569     0.2870 H       
  33 H33            1.4367    -1.6160    -0.0212 H       
  34 H34            3.0331     0.5238    -0.2327 H       
  35 H35           -2.2597     1.2294    -1.3998 H       
  36 H36           -4.2248     2.6918    -1.1604 H       
  37 H37           -4.3205     4.3391     0.6657 H       
  38 H38           -2.4525     4.5289     2.2569 H       
  39 H39           -0.4883     3.0630     2.0327 H       
  40 H40           -1.0905     5.0919    -1.1929 H       
  41 H41           -1.3486     5.3293     0.5463 H       
  42 H42           -0.1789     6.9750     1.7052 H       
  43 H43            1.4747     7.3131     1.1294 H       
  44 H44            5.0820     3.0889     0.7826 H       
  45 H45            5.3475     3.1509    -0.9705 H       
  46 H46            5.3144     5.1841    -2.1041 H       
  47 H47            4.2044     6.4221    -1.4595 H       
  48 H48           -1.6671     7.6258    -1.4268 H       
  49 H49           -3.0055     6.5036    -1.0760 H       
  50 H50            0.6238     9.3996     0.8144 H       
  51 H51            0.0695     8.6851    -0.7124 H       
  52 H52           -3.4243     8.0189     0.5659 H       
  53 H53           -2.2399     7.0248     1.4312 H       
  54 H54           -1.5105     9.2406     1.8111 H       
  55 H55           -1.8599     9.7425     0.1462 H       
  56 H56            6.1324     7.6064    -1.2206 H       
  57 H57            6.2328     6.6835     0.2917 H       
  58 H58            7.0475     4.7972     0.9448 H       
  59 H59            7.4529     3.1072     0.5531 H       
  60 H60            7.7160     6.2361    -2.3108 H       
  61 H61            8.3720     6.4161    -0.6728 H       
  62 H62            8.6036     4.1077    -1.1329 H       
  63 H63            7.0217     4.0101    -1.9253 H       
@<TRIPOS>BOND
   1    1    2 1
   2    1    5 1
   3    1   12 1
   4    2    3 2
   5    2   32 1
   6    3    4 1
   7    3   33 1
   8    4    5 2
   9    4   34 1
  10    5    6 1
  11    6    7 ar
  12    6   11 ar
  13    7    8 ar
  14    8    9 ar
  15    8   21 1
  16    9   10 ar
  17   10   11 ar
  18   10   18 1
  19   12   13 ar
  20   12   17 ar
  21   13   14 ar
  22   13   35 1
  23   14   15 ar
  24   14   36 1
  25   15   16 ar
  26   15   37 1
  27   16   17 ar
  28   16   38 1
  29   17   39 1
  30   18   19 1
  31   18   20 1
  32   19   24 1
  33   19   40 1
  34   19   41 1
  35   20   25 1
  36   20   42 1
  37   20   43 1
  38   21   22 1
  39   21   23 1
  40   22   29 1
  41   22   44 1
  42   22   45 1
  43   23   28 1
  44   23   46 1
  45   23   47 1
  46   24   26 1
  47   24   48 1
  48   24   49 1
  49   25   27 1
  50   25   50 1
  51   25   51 1
  52   26   27 1
  53   26   52 1
  54   26   53 1
  55   27   54 1
  56   27   55 1
  57   28   30 1
  58   28   56 1
  59   28   57 1
  60   29   31 1
  61   29   58 1
  62   29   59 1
  63   30   31 1
  64   30   60 1
  65   30   61 1
  66   31   62 1
  67   31   63 1

#	End of record

