#	Name: ASD10420076
#	Creating user name:	WinNT
#	Creation time:	15. 06. 2019 21:27

#	Modifying user name:	WinNT
#	Modification time:	15. 06. 2019 21:27

#	Program:	/corina/corina34_cracker 3.40 0067  02.08.2006

@<TRIPOS>MOLECULE
ASD10420076
  74   78    0    0    0
SMALL
NO_CHARGES


@<TRIPOS>ATOM
   1 N1             1.3535     0.3424    -4.0840 N.am    
   2 C2             0.9405     0.5558    -2.6898 C.3     
   3 C3             1.7578    -0.3778    -1.7882 C.3     
   4 N4             3.1793    -0.2395    -2.1349 N.am    
   5 C5             3.5923    -0.4529    -3.5291 C.3     
   6 C6             2.7749     0.4807    -4.4307 C.3     
   7 C7             0.4457     0.0203    -5.0267 C.2     
   8 O8            -0.7261    -0.0962    -4.7271 O.2     
   9 O9             0.8373    -0.1724    -6.3003 O.3     
  10 C10            4.0878     0.0776    -1.1913 C.2     
  11 O11            3.7238     0.3395    -0.0597 O.2     
  12 C12            7.5126     0.8380    -2.1808 C.2     
  13 C13            8.4320     1.7853    -2.6426 C.2     
  14 C14            7.9946     3.0849    -2.8856 C.2     
  15 C15            6.6373     3.4147    -2.6607 C.2     
  16 N16            5.7960     2.5176    -2.2306 N.2     
  17 N17            6.2052     1.2020    -1.9765 N.pl3   
  18 C18            7.6440    -0.5224    -1.8454 C.2     
  19 C19            6.3860    -0.9672    -1.4414 C.2     
  20 C20            5.5136     0.1072    -1.5276 C.2     
  21 C21            8.8841    -1.3291    -1.9094 C.ar    
  22 C22            9.9604    -1.0264    -1.0750 C.ar    
  23 C23           11.1130    -1.7820    -1.1391 C.ar    
  24 C24           11.2027    -2.8380    -2.0285 C.ar    
  25 C25           10.1390    -3.1430    -2.8589 C.ar    
  26 C26            8.9788    -2.3984    -2.8003 C.ar    
  27 C27            8.9340     4.1042    -3.3705 C.2     
  28 O28            8.5473     5.2347    -3.5804 O.2     
  29 C29            6.0383    -2.3618    -0.9885 C.3     
  30 C30            6.1420    -2.4429     0.5128 C.ar    
  31 C31            4.9959    -2.5244     1.2810 C.ar    
  32 C32            5.0915    -2.5993     2.6601 C.ar    
  33 C33            6.3356    -2.5925     3.2682 C.ar    
  34 C34            7.4800    -2.5110     2.4981 C.ar    
  35 C35            7.3834    -2.4415     1.1206 C.ar    
  36 C36            3.6427    -2.5311     0.6177 C.3     
  37 F37            3.9719    -2.6785     3.4120 F       
  38 C38           -0.1945    -0.5169    -7.2622 C.3     
  39 C39           -1.2351     0.6033    -7.3171 C.3     
  40 C40            0.4363    -0.6953    -8.6447 C.3     
  41 C41           -0.8717    -1.8218    -6.8384 C.3     
  42 H42            1.1264     1.5921    -2.4077 H       
  43 H43           -0.1206     0.3300    -2.5840 H       
  44 H44            1.6074    -0.1024    -0.7444 H       
  45 H45            1.4412    -1.4087    -1.9464 H       
  46 H46            4.6534    -0.2271    -3.6350 H       
  47 H47            3.4063    -1.4892    -3.8113 H       
  48 H48            2.9253     0.2053    -5.4745 H       
  49 H49            3.0915     1.5116    -4.2725 H       
  50 H50            9.4641     1.5135    -2.8077 H       
  51 H51            6.2946     4.4217    -2.8477 H       
  52 H52            9.8916    -0.2020    -0.3806 H       
  53 H53           11.9470    -1.5485    -0.4940 H       
  54 H54           12.1071    -3.4266    -2.0749 H       
  55 H55           10.2152    -3.9683    -3.5513 H       
  56 H56            8.1474    -2.6404    -3.4457 H       
  57 H57            9.9692     3.8474    -3.5402 H       
  58 H58            5.0201    -2.6004    -1.2958 H       
  59 H59            6.7300    -3.0734    -1.4394 H       
  60 H60            6.4113    -2.6506     4.3440 H       
  61 H61            8.4503    -2.5057     2.9722 H       
  62 H62            8.2786    -2.3824     0.5192 H       
  63 H63            3.3918    -3.5476     0.3144 H       
  64 H64            2.8925    -2.1656     1.3190 H       
  65 H65            3.6650    -1.8851    -0.2599 H       
  66 H66           -0.7526     1.5329    -7.6190 H       
  67 H67           -2.0096     0.3447    -8.0392 H       
  68 H68           -1.6844     0.7304    -6.3322 H       
  69 H69            1.1776    -1.4934    -8.6056 H       
  70 H70           -0.3382    -0.9539    -9.3668 H       
  71 H71            0.9187     0.2343    -8.9466 H       
  72 H72           -1.3210    -1.6947    -5.8535 H       
  73 H73           -1.6462    -2.0804    -7.5605 H       
  74 H74           -0.1303    -2.6199    -6.7993 H       
@<TRIPOS>BOND
   1    1    2 1
   2    1    6 1
   3    1    7 am
   4    2    3 1
   5    2   42 1
   6    2   43 1
   7    3    4 1
   8    3   44 1
   9    3   45 1
  10    4    5 1
  11    4   10 am
  12    5    6 1
  13    5   46 1
  14    5   47 1
  15    6   48 1
  16    6   49 1
  17    7    8 2
  18    7    9 1
  19    9   38 1
  20   10   11 2
  21   10   20 1
  22   12   13 1
  23   12   17 1
  24   12   18 2
  25   13   14 2
  26   13   50 1
  27   14   15 1
  28   14   27 1
  29   15   16 2
  30   15   51 1
  31   16   17 1
  32   17   20 1
  33   18   19 1
  34   18   21 1
  35   19   20 2
  36   19   29 1
  37   21   22 ar
  38   21   26 ar
  39   22   23 ar
  40   22   52 1
  41   23   24 ar
  42   23   53 1
  43   24   25 ar
  44   24   54 1
  45   25   26 ar
  46   25   55 1
  47   26   56 1
  48   27   28 2
  49   27   57 1
  50   29   30 1
  51   29   58 1
  52   29   59 1
  53   30   31 ar
  54   30   35 ar
  55   31   32 ar
  56   31   36 1
  57   32   33 ar
  58   32   37 1
  59   33   34 ar
  60   33   60 1
  61   34   35 ar
  62   34   61 1
  63   35   62 1
  64   36   63 1
  65   36   64 1
  66   36   65 1
  67   38   39 1
  68   38   41 1
  69   38   40 1
  70   39   66 1
  71   39   67 1
  72   39   68 1
  73   40   69 1
  74   40   70 1
  75   40   71 1
  76   41   72 1
  77   41   73 1
  78   41   74 1

#	End of record

