#	Name: ASD10160273
#	Creating user name:	WinNT
#	Creation time:	15. 06. 2019 21:25

#	Modifying user name:	WinNT
#	Modification time:	15. 06. 2019 21:25

#	Program:	/corina/corina34_cracker 3.40 0067  02.08.2006

@<TRIPOS>MOLECULE
ASD10160273
  34   35    0    0    0
SMALL
NO_CHARGES


@<TRIPOS>ATOM
   1 C1             0.3729     1.0981     1.9685 C.2     
   2 C2             0.2899    -0.2793     1.4444 C.ar    
   3 C3             1.3734    -0.8339     0.7574 C.ar    
   4 C4             1.2920    -2.1200     0.2703 C.ar    
   5 C5             0.1329    -2.8658     0.4614 C.ar    
   6 C6            -0.9460    -2.3168     1.1436 C.ar    
   7 C7            -0.8697    -1.0338     1.6389 C.ar    
   8 O8             1.3847     1.7517     1.8027 O.2     
   9 N9            -0.6749     1.6333     2.6259 N.am    
  10 S10           -0.5817     3.1786     3.2138 S.o2    
  11 O11           -1.8334     3.3861     3.8537 O.2     
  12 O12            0.6315     3.1997     3.9533 O.2     
  13 C13           -0.4433     4.2184     1.7339 C.3     
  14 O14            0.0558    -4.1323    -0.0201 O.3     
  15 C15           -3.4650    -6.0747     0.3119 C.ar    
  16 N16           -3.2402    -5.3352    -0.7556 N.ar    
  17 C17           -2.0987    -4.6828    -0.9015 C.ar    
  18 C18           -1.1302    -4.7863     0.0918 C.ar    
  19 C19           -1.4070    -5.5771     1.2025 C.ar    
  20 N20           -2.5728    -6.1979     1.2741 N.ar    
  21 C21           -4.7824    -6.7953     0.4387 C.3     
  22 Cl22           2.6366    -2.8107    -0.5833 Cl      
  23 H23            2.2728    -0.2550     0.6084 H       
  24 H24           -1.8442    -2.8985     1.2893 H       
  25 H25           -1.7071    -0.6099     2.1732 H       
  26 H26           -1.4835     1.1133     2.7546 H       
  27 H27           -1.3220     4.0745     1.1052 H       
  28 H28           -0.3761     5.2652     2.0303 H       
  29 H29            0.4514     3.9403     1.1768 H       
  30 H30           -1.9211    -4.0788    -1.7790 H       
  31 H31           -0.6805    -5.6825     1.9947 H       
  32 H32           -4.7003    -7.7846    -0.0115 H       
  33 H33           -5.0414    -6.8961     1.4927 H       
  34 H34           -5.5585    -6.2264    -0.0733 H       
@<TRIPOS>BOND
   1    1    2 1
   2    1    8 2
   3    1    9 am
   4    2    3 ar
   5    2    7 ar
   6    3    4 ar
   7    3   23 1
   8    4    5 ar
   9    4   22 1
  10    5    6 ar
  11    5   14 1
  12    6    7 ar
  13    6   24 1
  14    7   25 1
  15    9   10 am
  16    9   26 1
  17   10   11 2
  18   10   12 2
  19   10   13 1
  20   13   27 1
  21   13   28 1
  22   13   29 1
  23   14   18 1
  24   15   16 ar
  25   15   20 ar
  26   15   21 1
  27   16   17 ar
  28   17   18 ar
  29   17   30 1
  30   18   19 ar
  31   19   20 ar
  32   19   31 1
  33   21   32 1
  34   21   33 1
  35   21   34 1

#	End of record

