#	Name: ASD11320001
#	Creating user name:	WinNT
#	Creation time:	15. 06. 2019 21:29

#	Modifying user name:	WinNT
#	Modification time:	15. 06. 2019 21:29

#	Program:	/corina/corina34_cracker 3.40 0067  02.08.2006

@<TRIPOS>MOLECULE
ASD11320001
  44   46    0    0    0
SMALL
NO_CHARGES


@<TRIPOS>ATOM
   1 N1             0.0175    -1.1399    -0.0042 N.1     
   2 C2             0.0021    -0.0041     0.0020 C.1     
   3 C3            -0.0173     1.4278     0.0099 C.ar    
   4 C4             1.1849     2.1586     0.0023 C.ar    
   5 N5             2.3901     1.4857    -0.0128 N.pl3   
   6 N6             1.1768     3.4821     0.0091 N.ar    
   7 C7             0.0513     4.1805     0.0231 C.ar    
   8 C8            -1.2000     3.5357     0.0320 C.ar    
   9 C9            -1.2416     2.1271     0.0194 C.ar    
  10 C10           -2.5309     1.4039     0.0281 C.ar    
  11 C11           -2.9047     0.6263    -1.0699 C.ar    
  12 C12           -4.1069    -0.0467    -1.0579 C.ar    
  13 C13           -4.9469     0.0476     0.0446 C.ar    
  14 C14           -4.5787     0.8207     1.1387 C.ar    
  15 C15           -3.3755     1.4920     1.1366 C.ar    
  16 O16           -6.1310    -0.6171     0.0528 O.3     
  17 C17           -6.9460    -0.4763     1.2181 C.3     
  18 C18           -8.2294    -1.2910     1.0443 C.3     
  19 C19           -9.1858    -1.3653     2.2362 C.3     
  20 C20           -9.5534    -0.5249     1.0116 C.3     
  21 C21           -2.4115     4.2990     0.0481 C.1     
  22 N22           -3.3726     4.9045     0.0609 N.1     
  23 S23            0.1215     5.9411     0.0313 S.3     
  24 C24            1.9150     6.1843     0.0158 C.3     
  25 C25            2.2220     7.6597     0.0203 C.2     
  26 O26            1.3173     8.4673     0.0328 O.2     
  27 N27            3.5020     8.0817     0.0105 N.am    
  28 H28            2.4040     0.5158    -0.0181 H       
  29 H29            3.2231     1.9827    -0.0181 H       
  30 H30           -2.2524     0.5527    -1.9276 H       
  31 H31           -4.3968    -0.6481    -1.9069 H       
  32 H32           -5.2347     0.8921     1.9937 H       
  33 H33           -3.0898     2.0924     1.9877 H       
  34 H34           -6.4004    -0.8393     2.0891 H       
  35 H35           -7.1990     0.5744     1.3597 H       
  36 H36           -8.1432    -2.1749     0.4123 H       
  37 H37           -9.7292    -2.2979     2.3881 H       
  38 H38           -8.9008    -0.8338     3.1441 H       
  39 H39           -9.5102     0.5594     1.1139 H       
  40 H40          -10.3386    -0.9048     0.3579 H       
  41 H41            2.3524     5.7194     0.8994 H       
  42 H42            2.3358     5.7284    -0.8805 H       
  43 H43            4.2256     7.4358     0.0005 H       
  44 H44            3.6995     9.0314     0.0134 H       
@<TRIPOS>BOND
   1    1    2 3
   2    2    3 1
   3    3    4 ar
   4    3    9 ar
   5    4    5 1
   6    4    6 ar
   7    5   28 1
   8    5   29 1
   9    6    7 ar
  10    7    8 ar
  11    7   23 1
  12    8    9 ar
  13    8   21 1
  14    9   10 1
  15   10   11 ar
  16   10   15 ar
  17   11   12 ar
  18   11   30 1
  19   12   13 ar
  20   12   31 1
  21   13   14 ar
  22   13   16 1
  23   14   15 ar
  24   14   32 1
  25   15   33 1
  26   16   17 1
  27   17   18 1
  28   17   34 1
  29   17   35 1
  30   18   19 1
  31   18   20 1
  32   18   36 1
  33   19   20 1
  34   19   37 1
  35   19   38 1
  36   20   39 1
  37   20   40 1
  38   21   22 3
  39   23   24 1
  40   24   25 1
  41   24   41 1
  42   24   42 1
  43   25   26 2
  44   25   27 am
  45   27   43 1
  46   27   44 1

#	End of record

