#	Name: ASD10070001
#	Creating user name:	WinNT
#	Creation time:	15. 06. 2019 21:24

#	Modifying user name:	WinNT
#	Modification time:	15. 06. 2019 21:24

#	Program:	/corina/corina34_cracker 3.40 0067  02.08.2006

@<TRIPOS>MOLECULE
ASD10070001
  46   48    0    0    0
SMALL
NO_CHARGES


@<TRIPOS>ATOM
   1 N1             0.0419     1.3436     0.0621 N.am    
   2 C2             0.0538     0.0000     0.0500 C.2     
   3 C3             1.3141    -0.7386    -0.0018 C.2     
   4 C4             2.5173    -0.0262    -0.0395 C.2     
   5 C5             2.4583     1.4360    -0.0252 C.ar    
   6 C6             3.6377     2.1995    -0.0620 C.ar    
   7 C7             3.5573     3.5801    -0.0481 C.ar    
   8 C8             2.3232     4.2074     0.0018 C.ar    
   9 C9             1.1580     3.4702     0.0388 C.ar    
  10 C10            1.2088     2.0803     0.0259 C.ar    
  11 C11            1.3171    -2.2056    -0.0136 C.2     
  12 O12            1.1723    -2.8228     1.0252 O.2     
  13 N13            1.4803    -2.8698    -1.1749 N.am    
  14 C14            1.5992    -4.2633    -1.1728 C.ar    
  15 C15            1.9070    -4.9373    -2.3475 C.ar    
  16 C16            2.0237    -6.3135    -2.3420 C.ar    
  17 C17            1.8340    -7.0203    -1.1686 C.ar    
  18 C18            1.5269    -6.3522     0.0026 C.ar    
  19 C19            1.4153    -4.9756     0.0052 C.ar    
  20 C20            1.9616    -8.5218    -1.1664 C.3     
  21 F21            3.2866    -8.8768    -0.8918 F       
  22 F22            1.1217    -9.0598    -0.1853 F       
  23 F23            1.5948    -9.0229    -2.4201 F       
  24 O24           -0.9998    -0.6107     0.0832 O.2     
  25 C25           -1.2433     2.0452     0.1087 C.3     
  26 C26            1.5330    -2.1321    -2.4396 C.3     
  27 O27            4.8468     1.5863    -0.1105 O.3     
  28 C28            6.0005     2.4288    -0.1458 C.3     
  29 O29            3.7021    -0.6706    -0.0874 O.3     
  30 H30            4.4605     4.1716    -0.0759 H       
  31 H31            2.2728     5.2862     0.0122 H       
  32 H32            0.2034     3.9737     0.0779 H       
  33 H33            2.0546    -4.3860    -3.2643 H       
  34 H34            2.2630    -6.8382    -3.2551 H       
  35 H35            1.3786    -6.9072     0.9171 H       
  36 H36            1.1806    -4.4541     0.9214 H       
  37 H37           -2.0542     1.3171     0.1280 H       
  38 H38           -1.2879     2.6626     1.0060 H       
  39 H39           -1.3441     2.6780    -0.7730 H       
  40 H40            2.5726    -1.9400    -2.7050 H       
  41 H41            1.0607    -2.7226    -3.2246 H       
  42 H42            1.0050    -1.1848    -2.3299 H       
  43 H43            5.9590     3.0648    -1.0300 H       
  44 H44            6.0234     3.0512     0.7487 H       
  45 H45            6.8991     1.8129    -0.1830 H       
  46 H46            3.6300    -1.6322    -0.0149 H       
@<TRIPOS>BOND
   1    1    2 am
   2    1   10 1
   3    1   25 1
   4    2    3 1
   5    2   24 2
   6    3    4 2
   7    3   11 1
   8    4    5 1
   9    4   29 1
  10    5    6 ar
  11    5   10 ar
  12    6    7 ar
  13    6   27 1
  14    7    8 ar
  15    7   30 1
  16    8    9 ar
  17    8   31 1
  18    9   10 ar
  19    9   32 1
  20   11   12 2
  21   11   13 am
  22   13   14 1
  23   13   26 1
  24   14   15 ar
  25   14   19 ar
  26   15   16 ar
  27   15   33 1
  28   16   17 ar
  29   16   34 1
  30   17   18 ar
  31   17   20 1
  32   18   19 ar
  33   18   35 1
  34   19   36 1
  35   20   21 1
  36   20   22 1
  37   20   23 1
  38   25   37 1
  39   25   38 1
  40   25   39 1
  41   26   40 1
  42   26   41 1
  43   26   42 1
  44   27   28 1
  45   28   43 1
  46   28   44 1
  47   28   45 1
  48   29   46 1

#	End of record

