#	Name: ASD13220001
#	Creating user name:	WinNT
#	Creation time:	15. 06. 2019 21:30

#	Modifying user name:	WinNT
#	Modification time:	15. 06. 2019 21:30

#	Program:	/corina/corina34_cracker 3.40 0067  02.08.2006

@<TRIPOS>MOLECULE
ASD13220001
  54   54    0    0    0
SMALL
NO_CHARGES


@<TRIPOS>ATOM
   1 C1            -0.0187     1.5258     0.0104 C.3     
   2 C2             0.0021    -0.0041     0.0020 C.3     
   3 C3             0.7182    -0.4975    -1.2568 C.3     
   4 C4             2.1536     0.0321    -1.2676 C.3     
   5 C5             2.1328     1.5619    -1.2592 C.3     
   6 C6             1.4167     2.0553    -0.0004 C.3     
   7 O7             0.6932    -0.4774     1.1597 O.3     
   8 O8            -0.7098     1.9991    -1.1473 O.3     
   9 O9             1.3973     3.4842     0.0074 O.3     
  10 O10            3.4735     2.0566    -1.2694 O.3     
  11 O11            2.8447    -0.4413    -0.1099 O.3     
  12 O12            0.7376    -1.9263    -1.2646 O.3     
  13 P13            0.0046    -1.4218     2.2670 P.3     
  14 P14           -2.0352     2.9096    -1.0661 P.3     
  15 P15            2.0716     4.3639     1.1751 P.3     
  16 P16            4.0513     2.9997    -2.4393 P.3     
  17 P17            4.1701    -1.3518    -0.1911 P.3     
  18 P18            0.0633    -2.8060    -2.4324 P.3     
  19 O19            1.1061    -1.8650     3.3544 O.3     
  20 O20           -1.1788    -0.6135     3.0007 O.3     
  21 O21           -0.5531    -2.6255     1.6110 O.2     
  22 O22            0.3882    -4.3636    -2.1865 O.3     
  23 O23           -1.5310    -2.5820    -2.4204 O.3     
  24 O24            0.6103    -2.3888    -3.7427 O.2     
  25 O25            4.7504    -1.5882     1.2919 O.3     
  26 O26            3.8059    -2.7714    -0.8575 O.3     
  27 O27            5.1897    -0.6664    -1.0164 O.2     
  28 O28            5.6220     3.2558    -2.1956 O.3     
  29 O29            3.8567     2.3373    -3.7484 O.2     
  30 O30            3.2701     4.4075    -2.4288 O.3     
  31 O31            1.9746     5.9253     0.7948 O.3     
  32 O32            1.2966     4.1000     2.5614 O.3     
  33 O33            3.4932     3.9798     1.3238 O.2     
  34 O34           -2.4657     3.3641    -2.5494 O.3     
  35 O35           -3.2288     2.0614    -0.3970 O.3     
  36 O36           -1.7604     4.1086    -0.2430 O.2     
  37 H37           -0.5289     1.8773     0.9072 H       
  38 H38           -1.0205    -0.3814     0.0098 H       
  39 H39            0.1910    -0.1364    -2.1398 H       
  40 H40            2.6638    -0.3194    -2.1644 H       
  41 H41            1.6057     1.9230    -2.1423 H       
  42 H42            1.9439     1.6943     0.8826 H       
  43 H43            0.7608    -2.4369     4.0535 H       
  44 H44           -0.8852     0.1892     3.4530 H       
  45 H45            0.0121    -4.9539    -2.8537 H       
  46 H46           -1.9575    -2.8348    -1.5902 H       
  47 H47            5.5509    -2.1299     1.3193 H       
  48 H48            3.1421    -3.2767    -0.3685 H       
  49 H49            6.0373     3.8176    -2.8642 H       
  50 H50            3.3540     4.8977    -1.5994 H       
  51 H51            2.3622     6.5158     1.4553 H       
  52 H52            0.3576     4.3299     2.5370 H       
  53 H53           -3.2587     3.9169    -2.5768 H       
  54 H54           -3.4628     1.2597    -0.8845 H       
@<TRIPOS>BOND
   1    1    2 1
   2    1    6 1
   3    1    8 1
   4    1   37 1
   5    2    3 1
   6    2    7 1
   7    2   38 1
   8    3    4 1
   9    3   12 1
  10    3   39 1
  11    4    5 1
  12    4   11 1
  13    4   40 1
  14    5    6 1
  15    5   10 1
  16    5   41 1
  17    6    9 1
  18    6   42 1
  19    7   13 1
  20    8   14 1
  21    9   15 1
  22   10   16 1
  23   11   17 1
  24   12   18 1
  25   13   19 1
  26   13   20 1
  27   13   21 2
  28   14   34 1
  29   14   35 1
  30   14   36 2
  31   15   31 1
  32   15   32 1
  33   15   33 2
  34   16   28 1
  35   16   29 2
  36   16   30 1
  37   17   25 1
  38   17   26 1
  39   17   27 2
  40   18   22 1
  41   18   23 1
  42   18   24 2
  43   19   43 1
  44   20   44 1
  45   22   45 1
  46   23   46 1
  47   25   47 1
  48   26   48 1
  49   28   49 1
  50   30   50 1
  51   31   51 1
  52   32   52 1
  53   34   53 1
  54   35   54 1

#	End of record

