#	Name: ASD10610075
#	Creating user name:	WinNT
#	Creation time:	15. 06. 2019 21:27

#	Modifying user name:	WinNT
#	Modification time:	15. 06. 2019 21:27

#	Program:	/corina/corina34_cracker 3.40 0067  02.08.2006

@<TRIPOS>MOLECULE
ASD10610075
  61   66    0    0    0
SMALL
NO_CHARGES


@<TRIPOS>ATOM
   1 C1             0.0691     1.2590    -0.1703 C.ar    
   2 C2             0.1400    -0.1328    -0.1736 C.ar    
   3 C3             1.3971    -0.7417    -0.1233 C.ar    
   4 C4             2.5204     0.0665    -0.0721 C.ar    
   5 C5             2.3703     1.4418    -0.0719 C.ar    
   6 N6             1.1646     1.9855    -0.1206 N.ar    
   7 C7             3.9886    -0.2919    -0.0125 C.3     
   8 C8             4.7348     0.9980    -0.4149 C.3     
   9 C9             3.7335     2.1003    -0.0102 C.3     
  10 C10           -1.0944    -0.9520    -0.2288 C.ar    
  11 C11           -1.2112    -1.9787    -1.1607 C.ar    
  12 C12           -2.3635    -2.7404    -1.2102 C.ar    
  13 C13           -3.4074    -2.4888    -0.3359 C.ar    
  14 C14           -3.3078    -1.4725     0.5968 C.ar    
  15 C15           -2.1494    -0.6993     0.6628 C.ar    
  16 F16           -4.3301    -1.2325     1.4468 F       
  17 Cl17          -2.5030    -4.0196    -2.3756 Cl      
  18 C18           -2.0371     0.3910     1.6601 C.2     
  19 N19           -2.9745     0.7495     2.5672 N.2     
  20 C20           -2.4542     1.7492     3.2343 C.2     
  21 O21           -1.2373     1.9705     2.7273 O.3     
  22 N22           -1.0105     1.1839     1.8323 N.2     
  23 C23           -3.1053     2.5081     4.3617 C.3     
  24 N24            3.8006     3.2189    -0.9539 N.am    
  25 C25            3.4290     4.4539    -0.5625 C.2     
  26 O26            2.9545     4.6234     0.5406 O.2     
  27 C27            3.6033     5.6244    -1.4957 C.3     
  28 N28            4.8016     5.5882    -2.3377 N.am    
  29 C29            2.3392     6.2465    -2.0923 C.3     
  30 C30            3.1225     6.9931    -1.0096 C.3     
  31 C31            6.0236     5.6657    -1.7745 C.2     
  32 O32            6.1355     5.6739    -0.5639 O.2     
  33 C33            7.2254     5.7405    -2.6270 C.2     
  34 C34            8.5239     5.8227    -2.2088 C.2     
  35 C35            9.2665     5.8678    -3.4165 C.2     
  36 N36            8.3959     5.8118    -4.3876 N.2     
  37 O37            7.2630     5.7357    -3.9731 O.3     
  38 O38           10.6157     5.9529    -3.5384 O.3     
  39 C39           11.1465     5.9844    -4.8647 C.3     
  40 H40           -0.8940     1.7458    -0.2135 H       
  41 H41            1.4902    -1.8176    -0.1240 H       
  42 H42            4.2648    -0.5889     0.9992 H       
  43 H43            4.2113    -1.0933    -0.7170 H       
  44 H44            5.6661     1.0968     0.1429 H       
  45 H45            4.9210     1.0189    -1.4886 H       
  46 H46            3.9409     2.4461     1.0025 H       
  47 H47           -0.4011    -2.1803    -1.8459 H       
  48 H48           -4.3041    -3.0890    -0.3828 H       
  49 H49           -2.8606     2.0303     5.3104 H       
  50 H50           -2.7400     3.5350     4.3672 H       
  51 H51           -4.1865     2.5078     4.2231 H       
  52 H52            4.1124     3.0707    -1.8604 H       
  53 H53            4.7155     5.5084    -3.3006 H       
  54 H54            2.3993     6.6293    -3.1111 H       
  55 H55            1.3815     5.8093    -1.8098 H       
  56 H56            2.6799     7.0471    -0.0150 H       
  57 H57            3.6976     7.8667    -1.3165 H       
  58 H58            8.8972     5.8475    -1.1956 H       
  59 H59           12.2334     6.0531    -4.8195 H       
  60 H60           10.8617     5.0738    -5.3919 H       
  61 H61           10.7494     6.8502    -5.3946 H       
@<TRIPOS>BOND
   1    1    2 ar
   2    1    6 ar
   3    1   40 1
   4    2    3 ar
   5    2   10 1
   6    3    4 ar
   7    3   41 1
   8    4    5 ar
   9    4    7 1
  10    5    6 ar
  11    5    9 1
  12    7    8 1
  13    7   42 1
  14    7   43 1
  15    8    9 1
  16    8   44 1
  17    8   45 1
  18    9   24 1
  19    9   46 1
  20   10   11 ar
  21   10   15 ar
  22   11   12 ar
  23   11   47 1
  24   12   13 ar
  25   12   17 1
  26   13   14 ar
  27   13   48 1
  28   14   15 ar
  29   14   16 1
  30   15   18 1
  31   18   19 1
  32   18   22 2
  33   19   20 2
  34   20   21 1
  35   20   23 1
  36   21   22 1
  37   23   49 1
  38   23   50 1
  39   23   51 1
  40   24   25 am
  41   24   52 1
  42   25   26 2
  43   25   27 1
  44   27   28 1
  45   27   29 1
  46   27   30 1
  47   28   31 am
  48   28   53 1
  49   29   30 1
  50   29   54 1
  51   29   55 1
  52   30   56 1
  53   30   57 1
  54   31   32 2
  55   31   33 1
  56   33   34 2
  57   33   37 1
  58   34   35 1
  59   34   58 1
  60   35   36 2
  61   35   38 1
  62   36   37 1
  63   38   39 1
  64   39   59 1
  65   39   60 1
  66   39   61 1

#	End of record

