#	Name: ASD10410138
#	Creating user name:	WinNT
#	Creation time:	15. 06. 2019 21:26

#	Modifying user name:	WinNT
#	Modification time:	15. 06. 2019 21:26

#	Program:	/corina/corina34_cracker 3.40 0067  02.08.2006

@<TRIPOS>MOLECULE
ASD10410138
  64   70    0    0    0
SMALL
NO_CHARGES


@<TRIPOS>ATOM
   1 C1            -0.0184     1.3930    -0.0793 C.ar    
   2 C2            -0.0058     0.0095     0.0246 C.ar    
   3 C3             1.2046    -0.6700     0.1136 C.ar    
   4 C4             2.3940     0.0337     0.0985 C.ar    
   5 C5             2.3796     1.4189    -0.0055 C.ar    
   6 C6             1.1710     2.0961    -0.0943 C.ar    
   7 F7             1.2176    -2.0171     0.2153 F       
   8 N8             3.5845     2.1323    -0.0204 N.pl3   
   9 C9             3.6696     3.3428    -0.7074 C.2     
  10 N10            4.7071     4.1447    -0.7086 N.2     
  11 N11            2.7076     3.8682    -1.4751 N.2     
  12 C12            3.1147     5.0158    -1.9735 C.2     
  13 N13            4.3770     5.2420    -1.5204 N.pl3   
  14 C14            5.1808     6.3415    -1.8041 C.ar    
  15 N15            2.3903     5.8422    -2.8104 N.pl3   
  16 N16           -1.2123    -0.7032     0.0403 N.3     
  17 C17           -2.0509    -0.2940     1.1755 C.3     
  18 C18           -3.3884    -1.0354     1.1117 C.3     
  19 N19           -3.1439    -2.4843     1.1365 N.3     
  20 C20           -2.3053    -2.8935     0.0013 C.3     
  21 C21           -0.9679    -2.1521     0.0651 C.3     
  22 N22            4.7404     7.3114    -2.5904 N.ar    
  23 C23            5.4915     8.3613    -2.8685 C.ar    
  24 N24            6.7049     8.5007    -2.3861 N.ar    
  25 C25            7.2378     7.5736    -1.5822 C.ar    
  26 C26            6.4815     6.4439    -1.2515 C.ar    
  27 C27           -4.4087    -3.2313     1.1530 C.3     
  28 C28           -4.1365    -4.7633     1.0518 C.3     
  29 C29           -5.1238    -3.0504     2.5114 C.3     
  30 C30           -5.2163    -4.4901     3.1030 C.3     
  31 C31           -5.5457    -5.3972     0.8429 C.3     
  32 C32           -6.2608    -5.2163     2.2014 C.3     
  33 C33           -3.8818    -5.1130     2.5605 C.3     
  34 S34            8.8069     7.4834    -0.7957 S.3     
  35 C35            8.4210     5.9427    -0.0526 C.2     
  36 C36            7.2058     5.5434    -0.3748 C.2     
  37 H37           -0.9581     1.9203    -0.1530 H       
  38 H38            3.3342    -0.4931     0.1680 H       
  39 H39            1.1603     3.1730    -0.1752 H       
  40 H40            4.3599     1.7844     0.4472 H       
  41 H41            1.4930     5.5922    -3.0812 H       
  42 H42            2.7788     6.6726    -3.1274 H       
  43 H43           -1.5439    -0.5383     2.1089 H       
  44 H44           -2.2282     0.7805     1.1280 H       
  45 H45           -4.0007    -0.7552     1.9688 H       
  46 H46           -3.9078    -0.7699     0.1909 H       
  47 H47           -2.1280    -3.9679     0.0487 H       
  48 H48           -2.8124    -2.6491    -0.9321 H       
  49 H49           -0.3555    -2.4323    -0.7920 H       
  50 H50           -0.4485    -2.4175     0.9858 H       
  51 H51            5.0948     9.1306    -3.5143 H       
  52 H52           -5.0525    -2.9050     0.3362 H       
  53 H53           -3.3681    -5.0647     0.3398 H       
  54 H54           -4.5369    -2.4071     3.1671 H       
  55 H55           -6.1209    -2.6355     2.3637 H       
  56 H56           -5.3885    -4.5535     4.1775 H       
  57 H57           -6.0861    -4.8712     0.0560 H       
  58 H58           -5.4539    -6.4558     0.5998 H       
  59 H59           -6.5206    -6.1859     2.6261 H       
  60 H60           -7.1528    -4.6013     2.0822 H       
  61 H61           -3.8350    -6.1889     2.7285 H       
  62 H62           -3.0028    -4.6036     2.9554 H       
  63 H63            9.0920     5.3920     0.5899 H       
  64 H64            6.7835     4.6167    -0.0153 H       
@<TRIPOS>BOND
   1    1    2 ar
   2    1    6 ar
   3    1   37 1
   4    2    3 ar
   5    2   16 1
   6    3    4 ar
   7    3    7 1
   8    4    5 ar
   9    4   38 1
  10    5    6 ar
  11    5    8 1
  12    6   39 1
  13    8    9 1
  14    8   40 1
  15    9   10 2
  16    9   11 1
  17   10   13 1
  18   11   12 2
  19   12   13 1
  20   12   15 1
  21   13   14 1
  22   14   22 ar
  23   14   26 ar
  24   15   41 1
  25   15   42 1
  26   16   17 1
  27   16   21 1
  28   17   18 1
  29   17   43 1
  30   17   44 1
  31   18   19 1
  32   18   45 1
  33   18   46 1
  34   19   20 1
  35   19   27 1
  36   20   21 1
  37   20   47 1
  38   20   48 1
  39   21   49 1
  40   21   50 1
  41   22   23 ar
  42   23   24 ar
  43   23   51 1
  44   24   25 ar
  45   25   26 ar
  46   25   34 1
  47   26   36 1
  48   27   28 1
  49   27   29 1
  50   27   52 1
  51   28   31 1
  52   28   33 1
  53   28   53 1
  54   29   30 1
  55   29   54 1
  56   29   55 1
  57   30   32 1
  58   30   33 1
  59   30   56 1
  60   31   32 1
  61   31   57 1
  62   31   58 1
  63   32   59 1
  64   32   60 1
  65   33   61 1
  66   33   62 1
  67   34   35 1
  68   35   36 2
  69   35   63 1
  70   36   64 1

#	End of record

