#	Name: ASD17160004
#	Creating user name:	WinNT
#	Creation time:	15. 06. 2019 21:31

#	Modifying user name:	WinNT
#	Modification time:	15. 06. 2019 21:31

#	Program:	/corina/corina34_cracker 3.40 0067  02.08.2006

@<TRIPOS>MOLECULE
ASD17160004
  41   43    0    0    0
SMALL
NO_CHARGES


@<TRIPOS>ATOM
   1 C1            -0.0216     1.3674     0.1086 C.2     
   2 C2            -2.3173     1.1753     0.3798 C.ar    
   3 C3            -3.8789    -0.0576     1.7412 C.ar    
   4 C4            -3.1123     0.8255    -0.7948 C.ar    
   5 C5            -2.7552     1.2582    -2.0787 C.ar    
   6 C6            -3.5515     0.8881    -3.1287 C.ar    
   7 C7             2.9706     1.1112     1.2277 C.3     
   8 C8             2.4184     1.4965    -0.1462 C.3     
   9 C9             3.3670     2.4557    -0.8178 C.ar    
  10 C10            3.3573     3.7939    -0.4711 C.ar    
  11 C11            4.2274     4.6738    -1.0871 C.ar    
  12 C12            5.1075     4.2155    -2.0496 C.ar    
  13 C13            5.1177     2.8772    -2.3957 C.ar    
  14 C14            4.2506     1.9965    -1.7766 C.ar    
  15 N15            1.1102     2.1358     0.0151 N.pl3   
  16 N16            0.0714    -0.0042     0.0510 N.pl3   
  17 C17           -1.0536    -0.7592     0.0294 C.1     
  18 N18           -1.9967    -1.3922     0.0112 N.1     
  19 N19           -1.1944     1.9406     0.2587 N.2     
  20 C20           -2.7329     0.7162     1.6239 C.ar    
  21 C21           -4.6277    -0.4041     0.6586 C.ar    
  22 C22           -4.2720     0.0289    -0.6297 C.ar    
  23 C23           -4.6781     0.1041    -2.9014 C.ar    
  24 N24           -5.0023    -0.3070    -1.6983 N.ar    
  25 H25           -4.1779    -0.4064     2.7186 H       
  26 H26           -1.8768     1.8667    -2.2353 H       
  27 H27           -3.3058     1.2043    -4.1318 H       
  28 H28            3.0767     2.0062     1.8407 H       
  29 H29            2.2845     0.4173     1.7135 H       
  30 H30            3.9439     0.6355     1.1077 H       
  31 H31            2.3123     0.6014    -0.7592 H       
  32 H32            2.6697     4.1519     0.2809 H       
  33 H33            4.2194     5.7194    -0.8167 H       
  34 H34            5.7867     4.9031    -2.5315 H       
  35 H35            5.8051     2.5192    -3.1479 H       
  36 H36            4.2612     0.9503    -2.0443 H       
  37 H37            1.0446     3.1027     0.0557 H       
  38 H38            0.9423    -0.4307     0.0259 H       
  39 H39           -2.1599     0.9631     2.5054 H       
  40 H40           -5.5128    -1.0082     0.7931 H       
  41 H41           -5.2980    -0.1805    -3.7387 H       
@<TRIPOS>BOND
   1    1   16 1
   2    1   15 1
   3    1   19 2
   4    2    4 ar
   5    2   19 1
   6    2   20 ar
   7    3   21 ar
   8    3   20 ar
   9    3   25 1
  10    4    5 ar
  11    4   22 ar
  12    5    6 ar
  13    5   26 1
  14    6   27 1
  15    6   23 ar
  16    7    8 1
  17    7   28 1
  18    7   29 1
  19    7   30 1
  20    8    9 1
  21    8   31 1
  22    8   15 1
  23    9   14 ar
  24    9   10 ar
  25   10   11 ar
  26   10   32 1
  27   11   12 ar
  28   11   33 1
  29   12   13 ar
  30   12   34 1
  31   13   35 1
  32   13   14 ar
  33   14   36 1
  34   15   37 1
  35   16   17 1
  36   16   38 1
  37   17   18 3
  38   20   39 1
  39   21   22 ar
  40   21   40 1
  41   22   24 ar
  42   23   41 1
  43   23   24 ar

#	End of record

