#	Name: ASD11940011
#	Creating user name:	WinNT
#	Creation time:	15. 06. 2019 21:29

#	Modifying user name:	WinNT
#	Modification time:	15. 06. 2019 21:29

#	Program:	/corina/corina34_cracker 3.40 0067  02.08.2006

@<TRIPOS>MOLECULE
ASD11940011
  22   23    0    0    0
SMALL
NO_CHARGES


@<TRIPOS>ATOM
   1 C1            -0.0166     1.3761     0.0096 C.ar    
   2 C2             0.0021    -0.0041     0.0020 C.ar    
   3 C3             1.2191    -0.6816    -0.0132 C.ar    
   4 C4             2.4115     0.0387    -0.0207 C.ar    
   5 C5             2.3814     1.4186    -0.0130 C.ar    
   6 C6             1.1702     2.0863     0.0021 C.ar    
   7 C7             1.2454    -2.1661    -0.0210 C.2     
   8 C8             1.9819    -2.9809    -0.9027 C.2     
   9 N9             1.7460    -4.2287    -0.5949 N.2     
  10 N10            0.8570    -4.2599     0.4863 N.pl3   
  11 C11            0.5651    -2.9889     0.8286 C.2     
  12 C12            2.8843    -2.4977    -2.0087 C.3     
  13 F13            4.1824    -2.3338    -1.5133 F       
  14 F14            2.8959    -3.4374    -3.0451 F       
  15 F15            2.4124    -1.2735    -2.4943 F       
  16 H16           -0.9597     1.9023     0.0169 H       
  17 H17           -0.9252    -0.5577     0.0082 H       
  18 H18            3.3578    -0.4818    -0.0322 H       
  19 H19            3.3053     1.9779    -0.0188 H       
  20 H20            1.1511     3.1661     0.0081 H       
  21 H21            0.5132    -5.0581     0.9170 H       
  22 H22           -0.0934    -2.6783     1.6262 H       
@<TRIPOS>BOND
   1    1    2 ar
   2    1    6 ar
   3    1   16 1
   4    2    3 ar
   5    2   17 1
   6    3    4 ar
   7    3    7 1
   8    4    5 ar
   9    4   18 1
  10    5    6 ar
  11    5   19 1
  12    6   20 1
  13    7    8 1
  14    7   11 2
  15    8    9 2
  16    8   12 1
  17    9   10 1
  18   10   11 1
  19   10   21 1
  20   11   22 1
  21   12   13 1
  22   12   14 1
  23   12   15 1

#	End of record

