#	Name: ASD10220002
#	Creating user name:	WinNT
#	Creation time:	15. 06. 2019 21:26

#	Modifying user name:	WinNT
#	Modification time:	15. 06. 2019 21:26

#	Program:	/corina/corina34_cracker 3.40 0067  02.08.2006

@<TRIPOS>MOLECULE
ASD10220002
  27   29    0    0    0
SMALL
NO_CHARGES


@<TRIPOS>ATOM
   1 C1            -0.0061     1.4618    -0.1701 C.2     
   2 C2             0.0239     0.0550    -0.3172 C.2     
   3 C3            -1.1141    -0.6729    -0.3734 C.2     
   4 C4            -2.4363    -0.0537    -0.2865 C.2     
   5 C5            -2.5496     1.3198    -0.1415 C.2     
   6 C6            -1.3369     2.1502    -0.0690 C.2     
   7 O7            -3.6806    -0.5677    -0.3191 O.3     
   8 C8            -4.6055     0.3873    -0.2040 C.2     
   9 C9            -3.9876     1.6044    -0.0875 C.2     
  10 O10           -1.4101     3.3543     0.0578 O.2     
  11 O11            1.0262     2.1008    -0.1213 O.2     
  12 Cl12           1.5556    -0.7544    -0.4285 Cl      
  13 Cl13          -1.0024    -2.3957    -0.5549 Cl      
  14 C14           -4.6314     2.9211     0.0601 C.2     
  15 O15           -3.9534     3.9101     0.2631 O.2     
  16 C16           -6.1013     3.0403    -0.0384 C.ar    
  17 C17           -6.7709     4.0522     0.6529 C.ar    
  18 C18           -8.1428     4.1579     0.5561 C.ar    
  19 C19           -8.8555     3.2638    -0.2234 C.ar    
  20 C20           -8.1984     2.2584    -0.9108 C.ar    
  21 C21           -6.8262     2.1450    -0.8279 C.ar    
  22 H22           -5.6734     0.2261    -0.2033 H       
  23 H23           -6.2159     4.7501     1.2622 H       
  24 H24           -8.6619     4.9399     1.0902 H       
  25 H25           -9.9296     3.3509    -0.2955 H       
  26 H26           -8.7608     1.5636    -1.5168 H       
  27 H27           -6.3146     1.3601    -1.3651 H       
@<TRIPOS>BOND
   1    1    2 1
   2    1   11 2
   3    1    6 1
   4    2    3 2
   5    2   12 1
   6    3    4 1
   7    3   13 1
   8    4    5 2
   9    4    7 1
  10    5    6 1
  11    5    9 1
  12    6   10 2
  13    7    8 1
  14    8    9 2
  15    8   22 1
  16    9   14 1
  17   14   15 2
  18   14   16 1
  19   16   17 ar
  20   16   21 ar
  21   17   18 ar
  22   17   23 1
  23   18   19 ar
  24   18   24 1
  25   19   20 ar
  26   19   25 1
  27   20   21 ar
  28   20   26 1
  29   21   27 1

#	End of record

