#	Name: ASD14560001
#	Creating user name:	WinNT
#	Creation time:	15. 06. 2019 21:31

#	Modifying user name:	WinNT
#	Modification time:	15. 06. 2019 21:31

#	Program:	/corina/corina34_cracker 3.40 0067  02.08.2006

@<TRIPOS>MOLECULE
ASD14560001
  64   69    0    0    0
SMALL
NO_CHARGES


@<TRIPOS>ATOM
   1 F1             3.7227    -4.3271     2.3465 F       
   2 F2             3.6988     4.1778     6.5560 F       
   3 O3             0.1963    -7.0015    -2.0895 O.2     
   4 O4             0.9403    -1.2046     4.2687 O.3     
   5 O5             4.9926    -1.0216     2.6247 O.2     
   6 N6             1.0895    -9.0344    -2.1302 N.am    
   7 N7            -1.3343   -10.4099    -2.2366 N.ar    
   8 N8            -1.5185   -10.1799    -4.5204 N.ar    
   9 N9             5.3253    -1.9937     4.5950 N.am    
  10 C10            0.4881    -9.3216    -3.4348 C.3     
  11 C11            0.7383    -8.3200    -4.5640 C.3     
  12 C12            1.4317    -9.6837    -4.5834 C.3     
  13 C13           -0.8548   -10.0044    -3.3953 C.ar    
  14 C14            0.8526    -7.8542    -1.5241 C.2     
  15 C15            1.3910    -7.5966    -0.1712 C.ar    
  16 C16           -2.5101   -11.0128    -2.1630 C.ar    
  17 C17           -2.7005   -10.7750    -4.5245 C.ar    
  18 C18           -3.2377   -11.2152    -3.3251 C.ar    
  19 C19            1.1471    -6.3768     0.4572 C.ar    
  20 C20            2.1408    -8.5770     0.4822 C.ar    
  21 C21            1.6573    -6.1424     1.7300 C.ar    
  22 C22            2.4089    -7.1272     2.3697 C.ar    
  23 C23            2.6432    -8.3371     1.7451 C.ar    
  24 C24            1.4024    -4.8461     2.4056 C.ar    
  25 C25            2.4603    -3.9865     2.6863 C.ar    
  26 C26            2.2078    -2.7729     3.3206 C.ar    
  27 C27            2.9618    -6.8737     3.7485 C.3     
  28 C28            0.0996    -4.4861     2.7604 C.ar    
  29 C29            0.8980    -2.4162     3.6751 C.ar    
  30 C30            3.0602    -1.6511     3.7598 C.2     
  31 C31           -0.1489    -3.2867     3.3871 C.ar    
  32 C32            2.1957    -0.7322     4.3319 C.2     
  33 C33            2.5917     0.5617     4.9177 C.ar    
  34 C34            4.5159    -1.5340     3.6204 C.2     
  35 C35            1.6250     1.4081     5.4678 C.ar    
  36 C36            3.9360     0.9441     4.9303 C.ar    
  37 C37            2.0015     2.6161     6.0144 C.ar    
  38 C38            4.3001     2.1546     5.4797 C.ar    
  39 C39            3.3359     2.9923     6.0192 C.ar    
  40 C40            6.7790    -1.8768     4.4558 C.3     
  41 H41            2.5000    -9.7082    -4.3684 H       
  42 H42            1.0814   -10.4161    -5.3107 H       
  43 H43           -0.0682    -8.1552    -5.2785 H       
  44 H44            1.3504    -7.4473    -4.3362 H       
  45 H45            1.6583    -9.6936    -1.7026 H       
  46 H46           -2.8972   -11.3429    -1.2104 H       
  47 H47           -3.2393   -10.9153    -5.4498 H       
  48 H48           -4.2001   -11.7046    -3.2968 H       
  49 H49            0.5644    -5.6167    -0.0420 H       
  50 H50            2.3272    -9.5246    -0.0012 H       
  51 H51            3.2223    -9.0981     2.2470 H       
  52 H52           -0.7192    -5.1552     2.5408 H       
  53 H53            2.2373    -7.1978     4.4957 H       
  54 H54            3.8896    -7.4314     3.8761 H       
  55 H55            3.1583    -5.8086     3.8710 H       
  56 H56           -1.1602    -3.0196     3.6562 H       
  57 H57            0.5852     1.1163     5.4643 H       
  58 H58            4.6879     0.2923     4.5106 H       
  59 H59            4.9454    -2.4021     5.3886 H       
  60 H60            1.2554     3.2711     6.4395 H       
  61 H61            5.3385     2.4511     5.4904 H       
  62 H62            7.1036    -2.4177     3.5670 H       
  63 H63            7.0515    -0.8257     4.3612 H       
  64 H64            7.2635    -2.3000     5.3358 H       
@<TRIPOS>BOND
   1    1   25 1
   2    2   39 1
   3    3   14 2
   4    4   29 1
   5    4   32 1
   6    5   34 2
   7    6   10 1
   8    6   14 am
   9    6   45 1
  10    7   13 ar
  11    7   16 ar
  12    8   13 ar
  13    8   17 ar
  14    9   34 am
  15    9   40 1
  16    9   59 1
  17   10   11 1
  18   10   12 1
  19   10   13 1
  20   11   12 1
  21   11   43 1
  22   11   44 1
  23   12   41 1
  24   12   42 1
  25   14   15 1
  26   15   19 ar
  27   15   20 ar
  28   16   18 ar
  29   16   46 1
  30   17   18 ar
  31   17   47 1
  32   18   48 1
  33   19   21 ar
  34   19   49 1
  35   20   23 ar
  36   20   50 1
  37   21   22 ar
  38   21   24 1
  39   22   23 ar
  40   22   27 1
  41   23   51 1
  42   24   25 ar
  43   24   28 ar
  44   25   26 ar
  45   26   29 ar
  46   26   30 1
  47   27   53 1
  48   27   54 1
  49   27   55 1
  50   28   31 ar
  51   28   52 1
  52   29   31 ar
  53   30   32 2
  54   30   34 1
  55   31   56 1
  56   32   33 1
  57   33   35 ar
  58   33   36 ar
  59   35   37 ar
  60   35   57 1
  61   36   38 ar
  62   36   58 1
  63   37   39 ar
  64   37   60 1
  65   38   39 ar
  66   38   61 1
  67   40   62 1
  68   40   63 1
  69   40   64 1

#	End of record

