#	Name: ASD11000307
#	Creating user name:	WinNT
#	Creation time:	15. 06. 2019 21:29

#	Modifying user name:	WinNT
#	Modification time:	15. 06. 2019 21:29

#	Program:	/corina/corina34_cracker 3.40 0067  02.08.2006

@<TRIPOS>MOLECULE
ASD11000307
  57   61    0    0    0
SMALL
NO_CHARGES


@<TRIPOS>ATOM
   1 N1            -0.0144     1.3253     0.0177 N.ar    
   2 C2             0.0026    -0.0050     0.0129 C.ar    
   3 N3             1.1650    -0.6517     0.0114 N.ar    
   4 C4             2.2971     0.0285     0.0147 C.ar    
   5 N5             2.2761     1.3514     0.0199 N.ar    
   6 C6             1.1216     1.9984     0.0209 C.ar    
   7 N7            -1.1834    -0.7127     0.0100 N.pl3   
   8 C8            -2.4014    -0.0364     0.1313 C.ar    
   9 C9            -3.5260    -0.5028    -0.5373 C.ar    
  10 C10           -4.7273     0.1675    -0.4154 C.ar    
  11 C11           -4.8113     1.3017     0.3712 C.ar    
  12 C12           -3.6934     1.7689     1.0378 C.ar    
  13 C13           -2.4905     1.0998     0.9251 C.ar    
  14 C14           -6.1239     2.0305     0.5018 C.3     
  15 F15           -6.8405     1.5101     1.5848 F       
  16 F16           -5.8822     3.3921     0.7137 F       
  17 F17           -6.8675     1.8660    -0.6717 F       
  18 C18            3.6146    -0.7032     0.0129 C.3     
  19 C19            4.0615    -0.9456    -1.4301 C.3     
  20 N20            8.8405    -3.9029    -1.4377 N.pl3   
  21 N21            8.2977    -5.1920    -1.4417 N.2     
  22 C22            6.9967    -5.1295    -1.4420 C.2     
  23 C23            6.6181    -3.7202    -1.4379 C.ar    
  24 C24            5.3941    -3.0418    -1.4368 C.ar    
  25 C25            5.3789    -1.6772    -1.4318 C.ar    
  26 C26            6.5667    -0.9559    -1.4289 C.ar    
  27 C27            7.7737    -1.5955    -1.4308 C.ar    
  28 C28            7.8207    -2.9875    -1.4353 C.ar    
  29 C29           10.2700    -3.5826    -1.4309 C.3     
  30 C30           10.8437    -3.8378    -0.0346 C.3     
  31 C31           12.3497    -3.5584    -0.0510 C.3     
  32 C32           13.0090    -4.4358    -1.1196 C.3     
  33 C33           12.3517    -4.1576    -2.4740 C.3     
  34 O34           10.9477    -4.4074    -2.3809 O.3     
  35 H35            1.1086     3.0783     0.0245 H       
  36 H36           -1.1716    -1.6788    -0.0762 H       
  37 H37           -3.4609    -1.3884    -1.1520 H       
  38 H38           -5.6021    -0.1944    -0.9353 H       
  39 H39           -3.7623     2.6552     1.6510 H       
  40 H40           -1.6191     1.4623     1.4500 H       
  41 H41            4.3640    -0.1034     0.5295 H       
  42 H42            3.4998    -1.6595     0.5232 H       
  43 H43            3.3121    -1.5454    -1.9467 H       
  44 H44            4.1763     0.0107    -1.9404 H       
  45 H45            6.3192    -5.9706    -1.4452 H       
  46 H46            4.4667    -3.5951    -1.4403 H       
  47 H47            6.5351     0.1236    -1.4253 H       
  48 H48            8.6895    -1.0230    -1.4291 H       
  49 H49           10.4090    -2.5343    -1.6949 H       
  50 H50           10.3586    -3.1779     0.6846 H       
  51 H51           10.6689    -4.8762     0.2468 H       
  52 H52           12.5232    -2.5078    -0.2839 H       
  53 H53           12.7745    -3.7918     0.9253 H       
  54 H54           14.0724    -4.2036    -1.1763 H       
  55 H55           12.8779    -5.4863    -0.8601 H       
  56 H56           12.5180    -3.1168    -2.7517 H       
  57 H57           12.7876    -4.8100    -3.2305 H       
@<TRIPOS>BOND
   1    1    2 ar
   2    1    6 ar
   3    2    3 ar
   4    2    7 1
   5    3    4 ar
   6    4    5 ar
   7    4   18 1
   8    5    6 ar
   9    6   35 1
  10    7    8 1
  11    7   36 1
  12    8    9 ar
  13    8   13 ar
  14    9   10 ar
  15    9   37 1
  16   10   11 ar
  17   10   38 1
  18   11   12 ar
  19   11   14 1
  20   12   13 ar
  21   12   39 1
  22   13   40 1
  23   14   15 1
  24   14   16 1
  25   14   17 1
  26   18   19 1
  27   18   41 1
  28   18   42 1
  29   19   25 1
  30   19   43 1
  31   19   44 1
  32   20   21 1
  33   20   28 1
  34   20   29 1
  35   21   22 2
  36   22   23 1
  37   22   45 1
  38   23   24 ar
  39   23   28 ar
  40   24   25 ar
  41   24   46 1
  42   25   26 ar
  43   26   27 ar
  44   26   47 1
  45   27   28 ar
  46   27   48 1
  47   29   30 1
  48   29   34 1
  49   29   49 1
  50   30   31 1
  51   30   50 1
  52   30   51 1
  53   31   32 1
  54   31   52 1
  55   31   53 1
  56   32   33 1
  57   32   54 1
  58   32   55 1
  59   33   34 1
  60   33   56 1
  61   33   57 1

#	End of record

