#	Name: ASD13680029
#	Creating user name:	WinNT
#	Creation time:	15. 06. 2019 21:30

#	Modifying user name:	WinNT
#	Modification time:	15. 06. 2019 21:30

#	Program:	/corina/corina34_cracker 3.40 0067  02.08.2006

@<TRIPOS>MOLECULE
ASD13680029
  56   59    0    0    0
SMALL
NO_CHARGES


@<TRIPOS>ATOM
   1 C1            -0.0193     1.5123     0.0250 C.3     
   2 C2             0.0023    -0.0020     0.0103 C.2     
   3 C3             0.7558    -0.7678     0.8049 C.2     
   4 C4             1.7295    -0.2383     1.8435 C.3     
   5 C5             1.8869     2.2209     1.4608 C.3     
   6 C6             1.4085     2.0562     0.0211 C.3     
   7 C7             1.2752     1.1314     2.3387 C.3     
   8 C8             0.5458    -2.1873     0.5653 C.2     
   9 C9            -0.3620    -2.4431    -0.4227 C.2     
  10 S10           -0.9724    -0.9919    -1.0682 S.3     
  11 N11           -0.7345    -3.7100    -0.8416 N.am    
  12 C12            1.2412    -3.2402     1.3108 C.2     
  13 O13            0.7549    -3.6833     2.3348 O.2     
  14 N14            2.4191    -3.7177     0.8625 N.am    
  15 C15           -1.6418    -3.8539    -1.8278 C.2     
  16 C16           -2.0377    -5.2004    -2.2730 C.ar    
  17 C17           -1.4779    -6.3410    -1.6788 C.ar    
  18 C18           -1.8803    -7.5807    -2.1299 C.ar    
  19 C19           -2.8214    -7.6640    -3.1521 C.ar    
  20 N20           -3.3356    -6.5731    -3.6974 N.ar    
  21 C21           -2.9856    -5.3635    -3.2949 C.ar    
  22 O22           -2.1335    -2.8717    -2.3499 O.2     
  23 C23            3.1325    -4.6397     1.6251 C.ar    
  24 C24            4.2916    -5.2099     1.1100 C.ar    
  25 C25            4.9907    -6.1238     1.8781 C.ar    
  26 C26            4.5046    -6.4375     3.1403 C.ar    
  27 C27            3.3471    -5.8330     3.5885 C.ar    
  28 N28            2.7040    -4.9610     2.8355 N.ar    
  29 O29           -3.5413    -4.2742    -3.8767 O.3     
  30 C30           -4.4994    -4.5087    -4.9106 C.3     
  31 O31           -3.2171    -8.8813    -3.5963 O.3     
  32 C32           -4.1852    -8.9051    -4.6472 C.3     
  33 H33           -0.5469     1.8751    -0.8571 H       
  34 H34           -0.5355     1.8579     0.9206 H       
  35 H35            1.7727    -0.9305     2.6844 H       
  36 H36            2.7206    -0.1511     1.3983 H       
  37 H37            2.9737     2.1437     1.4924 H       
  38 H38            1.5836     3.1993     1.8336 H       
  39 H39            2.0624     1.3588    -0.5024 H       
  40 H40            1.4285     3.0229    -0.4821 H       
  41 H41            0.1881     1.1931     2.2894 H       
  42 H42            1.6002     1.2708     3.3698 H       
  43 H43           -0.3424    -4.4934    -0.4252 H       
  44 H44            2.7700    -3.4194     0.0088 H       
  45 H45           -0.7488    -6.2506    -0.8871 H       
  46 H46           -1.4686    -8.4790    -1.6941 H       
  47 H47            4.6411    -4.9432     0.1235 H       
  48 H48            5.8938    -6.5831     1.5042 H       
  49 H49            5.0265    -7.1473     3.7650 H       
  50 H50            2.9653    -6.0740     4.5696 H       
  51 H51           -4.0302    -5.0664    -5.7211 H       
  52 H52           -5.3337    -5.0840    -4.5092 H       
  53 H53           -4.8652    -3.5547    -5.2902 H       
  54 H54           -5.0948    -8.4048    -4.3147 H       
  55 H55           -3.7859    -8.3901    -5.5209 H       
  56 H56           -4.4135    -9.9387    -4.9075 H       
@<TRIPOS>BOND
   1    1    2 1
   2    1    6 1
   3    1   33 1
   4    1   34 1
   5    2   10 1
   6    2    3 2
   7    3    4 1
   8    3    8 1
   9    4    7 1
  10    4   35 1
  11    4   36 1
  12    5    6 1
  13    5    7 1
  14    5   37 1
  15    5   38 1
  16    6   39 1
  17    6   40 1
  18    7   41 1
  19    7   42 1
  20    8    9 2
  21    8   12 1
  22    9   10 1
  23    9   11 1
  24   11   15 am
  25   11   43 1
  26   12   13 2
  27   12   14 am
  28   14   23 1
  29   14   44 1
  30   15   16 1
  31   15   22 2
  32   16   17 ar
  33   16   21 ar
  34   17   18 ar
  35   17   45 1
  36   18   19 ar
  37   18   46 1
  38   19   20 ar
  39   19   31 1
  40   20   21 ar
  41   21   29 1
  42   23   24 ar
  43   23   28 ar
  44   24   25 ar
  45   24   47 1
  46   25   26 ar
  47   25   48 1
  48   26   27 ar
  49   26   49 1
  50   27   28 ar
  51   27   50 1
  52   29   30 1
  53   30   51 1
  54   30   52 1
  55   30   53 1
  56   31   32 1
  57   32   54 1
  58   32   55 1
  59   32   56 1

#	End of record

