#	Name: ASD10610063
#	Creating user name:	WinNT
#	Creation time:	15. 06. 2019 21:27

#	Modifying user name:	WinNT
#	Modification time:	15. 06. 2019 21:27

#	Program:	/corina/corina34_cracker 3.40 0067  02.08.2006

@<TRIPOS>MOLECULE
ASD10610063
  59   63    0    0    0
SMALL
NO_CHARGES


@<TRIPOS>ATOM
   1 C1            -0.1257     1.5441     0.2538 C.ar    
   2 C2            -1.0128     1.4507     1.3298 C.ar    
   3 C3            -0.7139     2.1833     2.4857 C.ar    
   4 C4             0.4397     2.9505     2.4847 C.ar    
   5 N5             1.2147     2.9734     1.4178 N.ar    
   6 N6             0.9468     2.3050     0.3563 N.ar    
   7 C7            -2.2274     0.6065     1.2504 C.2     
   8 O8            -2.9845     0.5405     2.1985 O.2     
   9 N9            -2.4927    -0.0885     0.1265 N.am    
  10 O10           -4.9928    -0.1327    -1.2064 O.3     
  11 C11           -5.0027    -0.3317     0.2132 C.3     
  12 C12           -3.6323    -1.0083     0.0859 C.3     
  13 C13           -4.1673    -1.2989    -1.3217 C.3     
  14 C14           -3.4526    -2.2277     0.9531 C.2     
  15 N15           -2.2344    -2.7898     1.0814 N.am    
  16 O16           -4.4043    -2.7032     1.5354 O.2     
  17 C17           -2.0787    -4.0368     1.8344 C.3     
  18 C18           -1.9268    -3.7180     3.3231 C.3     
  19 C19           -0.8528    -4.7668     1.3493 C.ar    
  20 C20           -0.9200    -6.1302     1.1120 C.ar    
  21 C21            0.2106    -6.7962     0.6655 C.ar    
  22 C22            1.3815    -6.0573     0.4718 C.ar    
  23 C23            1.3662    -4.6885     0.7336 C.ar    
  24 N24            0.2661    -4.0972     1.1521 N.ar    
  25 F25           -2.0741    -6.8029     1.3138 F       
  26 C26            2.6197    -6.7193    -0.0040 C.ar    
  27 C27            3.3335    -6.1848    -1.0886 C.ar    
  28 C28            4.4967    -6.8166    -1.5269 C.ar    
  29 C29            4.9404    -7.9630    -0.8933 C.ar    
  30 C30            4.2349    -8.4888     0.1759 C.ar    
  31 C31            3.0835    -7.8702     0.6256 C.ar    
  32 O32            1.6717    -3.3172    -2.2009 O.3     
  33 N33            1.7836    -4.2681    -1.4562 N.2     
  34 C34            2.8530    -4.9564    -1.7641 C.2     
  35 N35            3.4382    -4.3359    -2.8141 N.2     
  36 C36            2.6797    -3.3015    -3.0786 C.2     
  37 C37            2.9018    -2.2844    -4.1682 C.3     
  38 F38            5.1894    -6.3095    -2.5700 F       
  39 Cl39           4.8039    -9.9289     0.9609 Cl      
  40 H40           -0.3150     0.9925    -0.6552 H       
  41 H41           -1.3618     2.1515     3.3492 H       
  42 H42            0.7041     3.5297     3.3571 H       
  43 H43           -1.9292     0.0203    -0.6555 H       
  44 H44           -4.9750     0.5985     0.7808 H       
  45 H45           -5.7892    -1.0070     0.5500 H       
  46 H46           -4.7356    -2.2268    -1.3857 H       
  47 H47           -3.4076    -1.2162    -2.0990 H       
  48 H48           -1.4608    -2.3687     0.6752 H       
  49 H49           -2.9578    -4.6636     1.6849 H       
  50 H50           -1.0477    -3.0911     3.4726 H       
  51 H51           -2.8135    -3.1900     3.6739 H       
  52 H52           -1.8110    -4.6458     3.8833 H       
  53 H53            0.1877    -7.8586     0.4725 H       
  54 H54            2.2641    -4.1062     0.5880 H       
  55 H55            5.8416    -8.4508    -1.2343 H       
  56 H56            2.5410    -8.2829     1.4634 H       
  57 H57            2.1041    -1.5420    -4.1402 H       
  58 H58            3.8620    -1.7918    -4.0152 H       
  59 H59            2.8998    -2.7835    -5.1372 H       
@<TRIPOS>BOND
   1    1    2 ar
   2    1    6 ar
   3    1   40 1
   4    2    3 ar
   5    2    7 1
   6    3    4 ar
   7    3   41 1
   8    4    5 ar
   9    4   42 1
  10    5    6 ar
  11    7    8 2
  12    7    9 am
  13    9   12 1
  14    9   43 1
  15   10   11 1
  16   10   13 1
  17   11   12 1
  18   11   44 1
  19   11   45 1
  20   12   13 1
  21   12   14 1
  22   13   46 1
  23   13   47 1
  24   14   15 am
  25   14   16 2
  26   15   17 1
  27   15   48 1
  28   17   18 1
  29   17   19 1
  30   17   49 1
  31   18   50 1
  32   18   51 1
  33   18   52 1
  34   19   20 ar
  35   19   24 ar
  36   20   21 ar
  37   20   25 1
  38   21   22 ar
  39   21   53 1
  40   22   23 ar
  41   22   26 1
  42   23   24 ar
  43   23   54 1
  44   26   27 ar
  45   26   31 ar
  46   27   28 ar
  47   27   34 1
  48   28   29 ar
  49   28   38 1
  50   29   30 ar
  51   29   55 1
  52   30   31 ar
  53   30   39 1
  54   31   56 1
  55   32   33 1
  56   32   36 1
  57   33   34 2
  58   34   35 1
  59   35   36 2
  60   36   37 1
  61   37   57 1
  62   37   58 1
  63   37   59 1

#	End of record

