#	Name: ASD11920021
#	Creating user name:	WinNT
#	Creation time:	15. 06. 2019 21:29

#	Modifying user name:	WinNT
#	Modification time:	15. 06. 2019 21:29

#	Program:	/corina/corina34_cracker 3.40 0067  02.08.2006

@<TRIPOS>MOLECULE
ASD11920021
  43   45    0    0    0
SMALL
NO_CHARGES


@<TRIPOS>ATOM
   1 C1             0.2577     1.0220     1.8393 C.ar    
   2 C2             1.4603     1.6654     1.6201 C.ar    
   3 N3             2.5514     0.9807     1.3344 N.ar    
   4 C4             2.5395    -0.3398     1.2466 C.ar    
   5 C5             1.3641    -1.0528     1.4546 C.ar    
   6 C6             0.2032    -0.3636     1.7564 C.ar    
   7 N7             3.7166    -1.0223     0.9422 N.am    
   8 C8             4.8292    -0.3348     0.6169 C.2     
   9 O9             4.7803     0.8725     0.4822 O.2     
  10 N10            5.9962    -0.9858     0.4408 N.am    
  11 C11            7.2057    -0.2386     0.0872 C.3     
  12 C12            8.5010    -0.6063     0.8137 C.3     
  13 C13            8.3109    -0.9933    -0.6543 C.3     
  14 C14            8.0720    -2.4485    -0.9649 C.ar    
  15 C15            7.7059    -3.3197     0.0458 C.ar    
  16 C16            7.4830    -4.6630    -0.2303 C.ar    
  17 C17            7.6240    -5.1408    -1.5124 C.ar    
  18 C18            7.9941    -4.2701    -2.5456 C.ar    
  19 C19            8.2136    -2.9110    -2.2631 C.ar    
  20 O20            8.5668    -2.0573    -3.2557 O.3     
  21 C21            8.1463    -4.7727    -3.9148 C.2     
  22 O22            8.4670    -4.0156    -4.8068 O.2     
  23 C23            7.9044    -6.2298    -4.2138 C.3     
  24 C24            8.1290    -6.4886    -5.7049 C.3     
  25 Br25          -1.2960     2.0163     2.2555 Br      
  26 F26            7.5649    -2.8614     1.3088 F       
  27 H27            1.5080     2.7425     1.6830 H       
  28 H28            1.3577    -2.1304     1.3819 H       
  29 H29           -0.7244    -0.8909     1.9238 H       
  30 H30            3.7346    -1.9918     0.9646 H       
  31 H31            6.0352    -1.9490     0.5483 H       
  32 H32            7.0525     0.8098    -0.1691 H       
  33 H33            9.2002     0.2001     1.0351 H       
  34 H34            8.4533    -1.4042     1.5548 H       
  35 H35            8.8850    -0.4416    -1.3986 H       
  36 H36            7.1979    -5.3352     0.5655 H       
  37 H37            7.4500    -6.1859    -1.7222 H       
  38 H38            9.5217    -1.9827    -3.3890 H       
  39 H39            8.5947    -6.8398    -3.6311 H       
  40 H40            6.8790    -6.4894    -3.9504 H       
  41 H41            7.4387    -5.8786    -6.2876 H       
  42 H42            9.1544    -6.2290    -5.9682 H       
  43 H43            7.9540    -7.5425    -5.9211 H       
@<TRIPOS>BOND
   1    1    2 ar
   2    1    6 ar
   3    1   25 1
   4    2    3 ar
   5    2   27 1
   6    3    4 ar
   7    4    5 ar
   8    4    7 1
   9    5    6 ar
  10    5   28 1
  11    6   29 1
  12    7    8 am
  13    7   30 1
  14    8    9 2
  15    8   10 am
  16   10   11 1
  17   10   31 1
  18   11   12 1
  19   11   13 1
  20   11   32 1
  21   12   13 1
  22   12   33 1
  23   12   34 1
  24   13   14 1
  25   13   35 1
  26   14   15 ar
  27   14   19 ar
  28   15   16 ar
  29   15   26 1
  30   16   17 ar
  31   16   36 1
  32   17   18 ar
  33   17   37 1
  34   18   19 ar
  35   18   21 1
  36   19   20 1
  37   20   38 1
  38   21   22 2
  39   21   23 1
  40   23   24 1
  41   23   39 1
  42   23   40 1
  43   24   41 1
  44   24   42 1
  45   24   43 1

#	End of record

