#	Name: ASD10610167
#	Creating user name:	WinNT
#	Creation time:	15. 06. 2019 21:28

#	Modifying user name:	WinNT
#	Modification time:	15. 06. 2019 21:28

#	Program:	/corina/corina34_cracker 3.40 0067  02.08.2006

@<TRIPOS>MOLECULE
ASD10610167
  36   37    0    0    0
SMALL
NO_CHARGES


@<TRIPOS>ATOM
   1 C1            -0.0170     1.4032     0.0098 C.ar    
   2 C2             0.0021    -0.0041     0.0020 C.ar    
   3 C3             1.2264    -0.6761    -0.0133 C.ar    
   4 C4             2.4065     0.0417    -0.0207 C.ar    
   5 C5             2.3845     1.4257    -0.0126 C.ar    
   6 C6             1.1831     2.1069     0.0021 C.ar    
   7 C7            -1.3077     2.1310     0.0198 C.ar    
   8 C8            -1.5320     3.1449     0.9503 C.ar    
   9 C9            -2.7377     3.8203     0.9543 C.ar    
  10 C10           -3.7217     3.4903     0.0360 C.ar    
  11 C11           -3.5028     2.4854    -0.8883 C.ar    
  12 C12           -2.3001     1.8084    -0.9048 C.ar    
  13 C13           -1.2614    -0.7635     0.0105 C.2     
  14 O14           -1.7925    -1.0708    -1.0382 O.2     
  15 O15           -1.8273    -1.1169     1.1813 O.3     
  16 F16           -2.9575     4.8031     1.8548 F       
  17 Cl17           1.2649    -2.4117    -0.0224 Cl      
  18 C18           -5.0351     4.2291     0.0450 C.3     
  19 C19           -4.9036     5.5133    -0.7763 C.3     
  20 N20           -6.0796     3.3781    -0.5407 N.3     
  21 C21           -3.0708    -1.8634     1.1137 C.3     
  22 H22            3.3521    -0.4800    -0.0325 H       
  23 H23            3.3133     1.9767    -0.0181 H       
  24 H24            1.1753     3.1869     0.0080 H       
  25 H25           -0.7654     3.4016     1.6665 H       
  26 H26           -4.2732     2.2325    -1.6017 H       
  27 H27           -2.1297     1.0266    -1.6302 H       
  28 H28           -5.3039     4.4799     1.0711 H       
  29 H29           -5.8537     6.0476    -0.7698 H       
  30 H30           -4.1287     6.1447    -0.3417 H       
  31 H31           -4.6349     5.2624    -1.8024 H       
  32 H32           -6.1416     2.4958    -0.0551 H       
  33 H33           -6.9707     3.8513    -0.5461 H       
  34 H34           -3.8224    -1.2709     0.5921 H       
  35 H35           -2.9056    -2.7964     0.5748 H       
  36 H36           -3.4179    -2.0835     2.1232 H       
@<TRIPOS>BOND
   1    1    2 ar
   2    1    6 ar
   3    1    7 1
   4    2    3 ar
   5    2   13 1
   6    3    4 ar
   7    3   17 1
   8    4    5 ar
   9    4   22 1
  10    5    6 ar
  11    5   23 1
  12    6   24 1
  13    7    8 ar
  14    7   12 ar
  15    8    9 ar
  16    8   25 1
  17    9   10 ar
  18    9   16 1
  19   10   11 ar
  20   10   18 1
  21   11   12 ar
  22   11   26 1
  23   12   27 1
  24   13   14 2
  25   13   15 1
  26   15   21 1
  27   18   19 1
  28   18   20 1
  29   18   28 1
  30   19   29 1
  31   19   30 1
  32   19   31 1
  33   20   32 1
  34   20   33 1
  35   21   34 1
  36   21   35 1
  37   21   36 1

#	End of record

