#	Name: ASD10160344
#	Creating user name:	WinNT
#	Creation time:	15. 06. 2019 21:25

#	Modifying user name:	WinNT
#	Modification time:	15. 06. 2019 21:25

#	Program:	/corina/corina34_cracker 3.40 0067  02.08.2006

@<TRIPOS>MOLECULE
ASD10160344
  38   40    0    0    0
SMALL
NO_CHARGES


@<TRIPOS>ATOM
   1 C1             0.2235     1.4265     0.1325 C.2     
   2 C2             0.2069    -0.0440     0.0495 C.ar    
   3 C3             1.3948    -0.7697     0.2031 C.ar    
   4 C4             1.3738    -2.1475     0.1244 C.ar    
   5 C5             0.1775    -2.8135    -0.1067 C.ar    
   6 C6            -1.0061    -2.0956    -0.2606 C.ar    
   7 C7            -0.9964    -0.7204    -0.1775 C.ar    
   8 O8             1.2692     2.0120     0.3346 O.2     
   9 O9            -0.9201     2.1232    -0.0213 O.3     
  10 F10           -2.1668    -2.7493    -0.4857 F       
  11 F11            2.5592    -0.1224     0.4276 F       
  12 O12            0.1616    -4.1685    -0.1833 O.3     
  13 C13            2.0314    -5.3425    -1.0812 C.ar    
  14 C14            1.3333    -4.8321     0.0027 C.ar    
  15 C15            1.8483    -5.0078     1.2835 C.ar    
  16 C16            3.0461    -5.6904     1.4241 C.ar    
  17 C17            3.6866    -6.1718     0.2927 C.ar    
  18 N18            3.1690    -5.9869    -0.9076 N.ar    
  19 F19            4.8550    -6.8381     0.4200 F       
  20 Cl20           3.7364    -5.9390     2.9975 Cl      
  21 C21           -0.8302     3.4779     0.0394 C.ar    
  22 C22           -0.3729     4.1938    -1.0576 C.ar    
  23 C23           -0.6482     6.2356     0.1625 C.ar    
  24 C24           -1.2011     4.1478     1.1963 C.ar    
  25 C25           -0.2830     5.5708    -0.9935 C.ar    
  26 C26           -1.1093     5.5249     1.2553 C.ar    
  27 C27           -0.5486     7.7378     0.2297 C.3     
  28 H28            2.2891    -2.7084     0.2424 H       
  29 H29           -1.9156    -0.1652    -0.2922 H       
  30 H30            1.6369    -5.2147    -2.0784 H       
  31 H31            1.3273    -4.6213     2.1469 H       
  32 H32           -0.0872     3.6749    -1.9606 H       
  33 H33           -1.5616     3.5932     2.0500 H       
  34 H34            0.0733     6.1285    -1.8470 H       
  35 H35           -1.3940     6.0465     2.1571 H       
  36 H36           -1.4875     8.1795    -0.1040 H       
  37 H37           -0.3483     8.0431     1.2568 H       
  38 H38            0.2621     8.0774    -0.4149 H       
@<TRIPOS>BOND
   1    1    2 1
   2    1    8 2
   3    1    9 1
   4    2    3 ar
   5    2    7 ar
   6    3    4 ar
   7    3   11 1
   8    4    5 ar
   9    4   28 1
  10    5    6 ar
  11    5   12 1
  12    6    7 ar
  13    6   10 1
  14    7   29 1
  15    9   21 1
  16   12   14 1
  17   13   14 ar
  18   13   18 ar
  19   13   30 1
  20   14   15 ar
  21   15   16 ar
  22   15   31 1
  23   16   17 ar
  24   16   20 1
  25   17   18 ar
  26   17   19 1
  27   21   22 ar
  28   21   24 ar
  29   22   25 ar
  30   22   32 1
  31   23   25 ar
  32   23   26 ar
  33   23   27 1
  34   24   26 ar
  35   24   33 1
  36   25   34 1
  37   26   35 1
  38   27   36 1
  39   27   37 1
  40   27   38 1

#	End of record

