#	Name: ASD11000175
#	Creating user name:	WinNT
#	Creation time:	15. 06. 2019 21:28

#	Modifying user name:	WinNT
#	Modification time:	15. 06. 2019 21:28

#	Program:	/corina/corina34_cracker 3.40 0067  02.08.2006

@<TRIPOS>MOLECULE
ASD11000175
  26   27    0    0    0
SMALL
NO_CHARGES


@<TRIPOS>ATOM
   1 C1            -0.0290     1.4567     0.0069 C.3     
   2 O2            -0.0184     0.0279    -0.0112 O.3     
   3 C3             3.9048     2.8818    -0.0205 C.ar    
   4 N4             3.2836     2.6758    -1.1725 N.ar    
   5 C5             2.0401     2.2258    -1.1991 C.ar    
   6 C6             1.3880     1.9697    -0.0030 C.ar    
   7 C7             2.0674     2.1962     1.1838 C.ar    
   8 N8             3.3101     2.6471     1.1400 N.ar    
   9 N9             5.2091     3.3482    -0.0297 N.pl3   
  10 C10            5.8405     3.6833     1.1726 C.ar    
  11 C11            7.2019     3.4577     1.3300 C.ar    
  12 C12            7.8227     3.7895     2.5181 C.ar    
  13 C13            7.0896     4.3463     3.5514 C.ar    
  14 C14            5.7330     4.5718     3.3974 C.ar    
  15 C15            5.1083     4.2476     2.2091 C.ar    
  16 Cl16           7.8732     4.7622     5.0436 Cl      
  17 H17           -0.5557     1.8274    -0.8724 H       
  18 H18           -0.5352     1.8049     0.9073 H       
  19 H19           -0.8988    -0.3720    -0.0061 H       
  20 H20            1.5388     2.0602    -2.1412 H       
  21 H21            1.5880     2.0064     2.1328 H       
  22 H22            5.6846     3.4424    -0.8699 H       
  23 H23            7.7744     3.0228     0.5240 H       
  24 H24            8.8812     3.6139     2.6412 H       
  25 H25            5.1632     5.0062     4.2055 H       
  26 H26            4.0505     4.4286     2.0876 H       
@<TRIPOS>BOND
   1    1    2 1
   2    1    6 1
   3    1   17 1
   4    1   18 1
   5    2   19 1
   6    3    4 ar
   7    3    8 ar
   8    3    9 1
   9    4    5 ar
  10    5    6 ar
  11    5   20 1
  12    6    7 ar
  13    7    8 ar
  14    7   21 1
  15    9   10 1
  16    9   22 1
  17   10   11 ar
  18   10   15 ar
  19   11   12 ar
  20   11   23 1
  21   12   13 ar
  22   12   24 1
  23   13   14 ar
  24   13   16 1
  25   14   15 ar
  26   14   25 1
  27   15   26 1

#	End of record

