#	Name: ASD11200001
#	Creating user name:	WinNT
#	Creation time:	15. 06. 2019 21:29

#	Modifying user name:	WinNT
#	Modification time:	15. 06. 2019 21:29

#	Program:	/corina/corina34_cracker 3.40 0067  02.08.2006

@<TRIPOS>MOLECULE
ASD11200001
  72   76    0    0    0
SMALL
NO_CHARGES


@<TRIPOS>ATOM
   1 C1            -0.0167     1.3767     0.0096 C.ar    
   2 C2             0.0021    -0.0041     0.0020 C.ar    
   3 C3             1.2082    -0.6807    -0.0127 C.ar    
   4 C4             2.3986     0.0225    -0.0198 C.ar    
   5 C5             2.3866     1.4038    -0.0127 C.ar    
   6 C6             1.1774     2.0860     0.0020 C.ar    
   7 C7            -1.2931    -0.7745     0.0102 C.3     
   8 F8            -1.7065    -1.0058    -1.3061 F       
   9 F9            -1.1037    -1.9981     0.6614 F       
  10 F10           -2.2715    -0.0347     0.6831 F       
  11 N11            1.1618     3.4865     0.0088 N.pl3   
  12 C12            0.4239     4.2701    -0.8391 C.2     
  13 C13            0.6380     5.5668    -0.5659 C.2     
  14 C14            1.5899     5.6199     0.5468 C.ar    
  15 C15            1.8821     4.2831     0.8735 C.ar    
  16 C16            2.1878     6.6585     1.2631 C.ar    
  17 C17            3.0594     6.3706     2.2753 C.ar    
  18 C18            3.3554     5.0532     2.5975 C.ar    
  19 C19            2.7708     4.0130     1.9087 C.ar    
  20 C20            0.0171     6.7453    -1.2707 C.3     
  21 N21            0.9724     7.2934    -2.2428 N.3     
  22 C22            1.2302     6.3347    -3.3256 C.3     
  23 C23            0.0773    10.3175    -5.1072 C.3     
  24 N24            1.1485    10.5192    -4.1223 N.3     
  25 C25            1.6202     9.2350    -3.5872 C.3     
  26 C26            0.5006     8.5776    -2.7779 C.3     
  27 C27            2.2583    11.2878    -4.7015 C.3     
  28 C28            1.7914    12.6860    -5.0148 C.2     
  29 C29            1.9898    13.6799    -4.1301 C.2     
  30 O30            1.5981    14.9388    -4.3536 O.3     
  31 C31            0.9710    15.3101    -5.4884 C.ar    
  32 C32            0.7109    14.3544    -6.4838 C.ar    
  33 C33            1.1446    12.9637    -6.2481 C.2     
  34 O34            0.9480    12.0883    -7.0736 O.2     
  35 C35            0.5761    16.6273    -5.6897 C.ar    
  36 C36           -0.0637    16.9820    -6.8579 C.ar    
  37 C37           -0.3200    16.0367    -7.8407 C.ar    
  38 C38            0.0636    14.7258    -7.6611 C.ar    
  39 C39           -0.4898    18.4119    -7.0698 C.3     
  40 C40           -1.0212    16.4458    -9.1103 C.3     
  41 H41           -0.9589     1.9045     0.0170 H       
  42 H42            1.2203    -1.7606    -0.0182 H       
  43 H43            3.3389    -0.5087    -0.0306 H       
  44 H44            3.3168     1.9526    -0.0179 H       
  45 H45           -0.2326     3.8995    -1.6124 H       
  46 H46            1.9625     7.6859     1.0177 H       
  47 H47            3.5219     7.1744     2.8288 H       
  48 H48            4.0466     4.8414     3.4000 H       
  49 H49            3.0072     2.9913     2.1670 H       
  50 H50           -0.8856     6.4236    -1.7901 H       
  51 H51           -0.2381     7.5126    -0.5398 H       
  52 H52            0.2968     6.1097    -3.8415 H       
  53 H53            1.9406     6.7658    -4.0310 H       
  54 H54            1.6445     5.4173    -2.9075 H       
  55 H55           -0.7610     9.8074    -4.6329 H       
  56 H56           -0.2535    11.2841    -5.4873 H       
  57 H57            0.4517     9.7115    -5.9322 H       
  58 H58            1.9053     8.5808    -4.4111 H       
  59 H59            2.4829     9.4048    -2.9429 H       
  60 H60           -0.3620     8.4078    -3.4222 H       
  61 H61            0.2155     9.2318    -1.9539 H       
  62 H62            3.0815    11.3309    -3.9884 H       
  63 H63            2.5963    10.8037    -5.6178 H       
  64 H64            2.4868    13.4511    -3.1989 H       
  65 H65            0.7699    17.3718    -4.9317 H       
  66 H66           -0.1362    13.9909    -8.4269 H       
  67 H67            0.3156    18.9628    -7.5556 H       
  68 H68           -1.3786    18.4365    -7.7002 H       
  69 H69           -0.7145    18.8706    -6.1069 H       
  70 H70           -0.2824    16.7505    -9.8515 H       
  71 H71           -1.5962    15.6036    -9.4954 H       
  72 H72           -1.6923    17.2791    -8.9024 H       
@<TRIPOS>BOND
   1    1    2 ar
   2    1    6 ar
   3    1   41 1
   4    2    3 ar
   5    2    7 1
   6    3    4 ar
   7    3   42 1
   8    4    5 ar
   9    4   43 1
  10    5    6 ar
  11    5   44 1
  12    6   11 1
  13    7    8 1
  14    7    9 1
  15    7   10 1
  16   11   12 1
  17   11   15 1
  18   12   13 2
  19   12   45 1
  20   13   14 1
  21   13   20 1
  22   14   15 ar
  23   14   16 ar
  24   15   19 ar
  25   16   17 ar
  26   16   46 1
  27   17   18 ar
  28   17   47 1
  29   18   19 ar
  30   18   48 1
  31   19   49 1
  32   20   21 1
  33   20   50 1
  34   20   51 1
  35   21   22 1
  36   21   26 1
  37   22   52 1
  38   22   53 1
  39   22   54 1
  40   23   24 1
  41   23   55 1
  42   23   56 1
  43   23   57 1
  44   24   25 1
  45   24   27 1
  46   25   26 1
  47   25   58 1
  48   25   59 1
  49   26   60 1
  50   26   61 1
  51   27   28 1
  52   27   62 1
  53   27   63 1
  54   28   29 2
  55   28   33 1
  56   29   30 1
  57   29   64 1
  58   30   31 1
  59   31   32 ar
  60   31   35 ar
  61   32   33 1
  62   32   38 ar
  63   33   34 2
  64   35   36 ar
  65   35   65 1
  66   36   37 ar
  67   36   39 1
  68   37   38 ar
  69   37   40 1
  70   38   66 1
  71   39   67 1
  72   39   68 1
  73   39   69 1
  74   40   70 1
  75   40   71 1
  76   40   72 1

#	End of record

