#	Name: ASD10410171
#	Creating user name:	WinNT
#	Creation time:	15. 06. 2019 21:27

#	Modifying user name:	WinNT
#	Modification time:	15. 06. 2019 21:27

#	Program:	/corina/corina34_cracker 3.40 0067  02.08.2006

@<TRIPOS>MOLECULE
ASD10410171
  80   88    0    0    0
SMALL
NO_CHARGES


@<TRIPOS>ATOM
   1 C1             0.1967     0.9340     0.6867 C.ar    
   2 C2             0.3730    -0.4412     0.6086 C.ar    
   3 C3             1.6455    -0.9693     0.4337 C.ar    
   4 C4             2.7353    -0.1270     0.3372 C.ar    
   5 C5             2.5589     1.2483     0.4149 C.ar    
   6 C6             1.2865     1.7764     0.5902 C.ar    
   7 N7             3.6642     2.1026     0.3174 N.pl3   
   8 C8             3.5173     3.3720    -0.2409 C.2     
   9 N9             4.4507     4.2915    -0.2943 N.2     
  10 N10            2.4031     3.8437    -0.8125 N.2     
  11 C11            2.6069     5.0733    -1.2342 C.2     
  12 N12            3.8893     5.4097    -0.9319 N.pl3   
  13 C13            4.5204     6.6222    -1.2010 C.ar    
  14 N14            1.6836     5.8779    -1.8734 N.pl3   
  15 N15           -0.7317    -1.2951     0.7064 N.3     
  16 C16           -0.3211    -2.7020     0.5987 C.3     
  17 C17           -1.5431    -3.6034     0.7897 C.3     
  18 N18           -2.5549    -3.2740    -0.2239 N.3     
  19 C19           -2.9655    -1.8671    -0.1162 C.3     
  20 C20           -1.7434    -0.9657    -0.3072 C.3     
  21 N21            3.8668     7.5985    -1.8132 N.ar    
  22 C22            4.4626     8.7577    -2.0732 C.ar    
  23 N23            5.7162     8.9945    -1.7413 N.ar    
  24 C24            6.4581     8.0575    -1.1146 C.ar    
  25 C25            5.8571     6.8291    -0.8218 C.ar    
  26 C26           -3.7143    -4.1701    -0.1212 C.3     
  27 C27           -3.2840    -5.6470    -0.3761 C.3     
  28 C28           -4.7347    -3.8616    -1.2406 C.3     
  29 C29           -4.8249    -5.1812    -2.0664 C.3     
  30 C30           -2.4318    -5.5858    -1.6804 C.3     
  31 C31           -3.4522    -5.2773    -2.7998 C.3     
  32 C32           -4.6232    -6.2474    -0.9325 C.3     
  33 C33            7.8339     8.1062    -0.6661 C.2     
  34 C34            8.2669     7.0031    -0.0782 C.2     
  35 S35            7.0109     5.7809    -0.0120 S.3     
  36 C36            8.7061     9.3206    -0.8550 C.3     
  37 C37            3.6911     9.8208    -2.7603 C.ar    
  38 C38            4.2916    11.0464    -3.0451 C.ar    
  39 C39            2.3654     9.5948    -3.1280 C.ar    
  40 C40            1.6484    10.5882    -3.7693 C.ar    
  41 C41            2.2523    11.8137    -4.0471 C.ar    
  42 C42            3.5730    12.0349    -3.6846 C.ar    
  43 O43            0.3624    10.6224    -4.2265 O.3     
  44 C44            0.0598    12.0170    -4.4179 C.3     
  45 O45            1.3441    12.6134    -4.6781 O.3     
  46 H46           -0.7934     1.3449     0.8185 H       
  47 H47            1.7826    -2.0389     0.3736 H       
  48 H48            3.7249    -0.5378     0.2016 H       
  49 H49            1.1493     2.8459     0.6507 H       
  50 H50            4.5321     1.8113     0.6382 H       
  51 H51            0.7890     5.5458    -2.0475 H       
  52 H52            1.9298     6.7751    -2.1480 H       
  53 H53            0.1119    -2.8801    -0.3856 H       
  54 H54            0.4188    -2.9248     1.3675 H       
  55 H55           -1.2461    -4.6466     0.6814 H       
  56 H56           -1.9599    -3.4450     1.7844 H       
  57 H57           -3.7054    -1.6443    -0.8850 H       
  58 H58           -3.3984    -1.6890     0.8681 H       
  59 H59           -2.0405     0.0775    -0.1989 H       
  60 H60           -1.3266    -1.1241    -1.3019 H       
  61 H61           -4.1820    -4.0743     0.8587 H       
  62 H62           -2.8265    -6.1625     0.4683 H       
  63 H63           -5.7059    -3.6145    -0.8119 H       
  64 H64           -4.3761    -3.0450    -1.8672 H       
  65 H65           -5.7092    -5.2909    -2.6942 H       
  66 H66           -1.6900    -4.7901    -1.6126 H       
  67 H67           -1.9463    -6.5446    -1.8625 H       
  68 H68           -3.4684    -6.0844    -3.5322 H       
  69 H69           -3.2121    -4.3299    -3.2824 H       
  70 H70           -4.4852    -7.2510    -1.3349 H       
  71 H71           -5.4239    -6.2148    -0.1936 H       
  72 H72            9.2650     6.8729     0.3133 H       
  73 H73            8.6068     9.9772     0.0094 H       
  74 H74            9.7456     9.0090    -0.9571 H       
  75 H75            8.3967     9.8539    -1.7538 H       
  76 H76            5.3196    11.2220    -2.7646 H       
  77 H77            1.8991     8.6448    -2.9126 H       
  78 H78            4.0386    12.9852    -3.9003 H       
  79 H79           -0.6046    12.1510    -5.2715 H       
  80 H80           -0.3833    12.4400    -3.5163 H       
@<TRIPOS>BOND
   1    1    2 ar
   2    1    6 ar
   3    1   46 1
   4    2    3 ar
   5    2   15 1
   6    3    4 ar
   7    3   47 1
   8    4    5 ar
   9    4   48 1
  10    5    6 ar
  11    5    7 1
  12    6   49 1
  13    7    8 1
  14    7   50 1
  15    8    9 2
  16    8   10 1
  17    9   12 1
  18   10   11 2
  19   11   12 1
  20   11   14 1
  21   12   13 1
  22   13   21 ar
  23   13   25 ar
  24   14   51 1
  25   14   52 1
  26   15   16 1
  27   15   20 1
  28   16   17 1
  29   16   53 1
  30   16   54 1
  31   17   18 1
  32   17   55 1
  33   17   56 1
  34   18   19 1
  35   18   26 1
  36   19   20 1
  37   19   57 1
  38   19   58 1
  39   20   59 1
  40   20   60 1
  41   21   22 ar
  42   22   23 ar
  43   22   37 1
  44   23   24 ar
  45   24   25 ar
  46   24   33 1
  47   25   35 1
  48   26   27 1
  49   26   28 1
  50   26   61 1
  51   27   30 1
  52   27   32 1
  53   27   62 1
  54   28   29 1
  55   28   63 1
  56   28   64 1
  57   29   31 1
  58   29   32 1
  59   29   65 1
  60   30   31 1
  61   30   66 1
  62   30   67 1
  63   31   68 1
  64   31   69 1
  65   32   70 1
  66   32   71 1
  67   33   34 2
  68   33   36 1
  69   34   35 1
  70   34   72 1
  71   36   73 1
  72   36   74 1
  73   36   75 1
  74   37   38 ar
  75   37   39 ar
  76   38   42 ar
  77   38   76 1
  78   39   40 ar
  79   39   77 1
  80   40   41 ar
  81   40   43 1
  82   41   42 ar
  83   41   45 1
  84   42   78 1
  85   43   44 1
  86   44   45 1
  87   44   79 1
  88   44   80 1

#	End of record

