#	Name: ASD10800035
#	Creating user name:	WinNT
#	Creation time:	15. 06. 2019 21:28

#	Modifying user name:	WinNT
#	Modification time:	15. 06. 2019 21:28

#	Program:	/corina/corina34_cracker 3.40 0067  02.08.2006

@<TRIPOS>MOLECULE
ASD10800035
  54   57    0    0    0
SMALL
NO_CHARGES


@<TRIPOS>ATOM
   1 C1             0.0195     1.2574     0.2109 C.ar    
   2 C2             0.1016    -0.1283     0.4303 C.ar    
   3 C3             1.3216    -0.7287     0.4958 C.ar    
   4 C4             2.4935     0.0104     0.3486 C.ar    
   5 C5             2.4526     1.3543     0.1353 C.ar    
   6 C6             1.2120     2.0093     0.0610 C.ar    
   7 C7             3.7318     2.1354    -0.0213 C.3     
   8 C8             4.1409     2.7207     1.3318 C.3     
   9 N9             4.7898     1.2472    -0.5091 N.pl3   
  10 C10            5.3503     3.6019     1.1530 C.ar    
  11 C11            5.1908     4.9475     0.8797 C.ar    
  12 C12            6.6192     3.0656     1.2680 C.ar    
  13 C13            7.7286     3.8738     1.1040 C.ar    
  14 C14            7.5691     5.2182     0.8246 C.ar    
  15 C15            6.3002     5.7557     0.7157 C.ar    
  16 C16            9.1120     3.2894     1.2302 C.3     
  17 C17            6.1263     7.2214     0.4112 C.3     
  18 C18            4.9402     1.0336    -1.8598 C.2     
  19 N19            5.8851     0.3491    -2.3970 N.2     
  20 S20            3.8575     1.6544    -3.1115 S.3     
  21 C21            4.7674     0.9279    -4.5130 C.3     
  22 C22            5.9356     0.1961    -3.8339 C.3     
  23 C23            1.1317     3.3957    -0.1586 C.ar    
  24 C24           -0.0853     3.9985    -0.2255 C.ar    
  25 C25           -1.2631     3.2588    -0.0788 C.ar    
  26 C26           -1.2218     1.9100     0.1317 C.ar    
  27 O27           -2.4645     3.8898    -0.1500 O.3     
  28 C28           -2.4438     5.3007    -0.3755 C.3     
  29 H29           -0.7984    -0.7138     0.5466 H       
  30 H30            1.3820    -1.7937     0.6648 H       
  31 H31            3.4487    -0.4904     0.4048 H       
  32 H32            3.5785     2.9443    -0.7357 H       
  33 H33            3.3183     3.3105     1.7362 H       
  34 H34            4.3802     1.9106     2.0207 H       
  35 H35            5.3842     0.8096     0.1203 H       
  36 H36            4.1994     5.3673     0.7940 H       
  37 H37            6.7439     2.0152     1.4862 H       
  38 H38            8.4359     5.8498     0.6969 H       
  39 H39            9.4490     2.9395     0.2545 H       
  40 H40            9.7968     4.0531     1.5988 H       
  41 H41            9.0906     2.4529     1.9287 H       
  42 H42            6.0821     7.3654    -0.6683 H       
  43 H43            5.2015     7.5792     0.8637 H       
  44 H44            6.9695     7.7795     0.8180 H       
  45 H45            4.1384     0.2220    -5.0554 H       
  46 H46            5.1342     1.7085    -5.1795 H       
  47 H47            6.8762     0.6052    -4.2027 H       
  48 H48            5.8868    -0.8638    -4.0835 H       
  49 H49            2.0330     3.9795    -0.2734 H       
  50 H50           -0.1432     5.0637    -0.3940 H       
  51 H51           -2.1382     1.3495     0.2436 H       
  52 H52           -1.9034     5.7903     0.4347 H       
  53 H53           -1.9464     5.5101    -1.3226 H       
  54 H54           -3.4658     5.6781    -0.4107 H       
@<TRIPOS>BOND
   1    1    2 ar
   2    1    6 ar
   3    1   26 ar
   4    2    3 ar
   5    2   29 1
   6    3    4 ar
   7    3   30 1
   8    4    5 ar
   9    4   31 1
  10    5    6 ar
  11    5    7 1
  12    6   23 ar
  13    7    8 1
  14    7    9 1
  15    7   32 1
  16    8   10 1
  17    8   33 1
  18    8   34 1
  19    9   18 1
  20    9   35 1
  21   10   11 ar
  22   10   12 ar
  23   11   15 ar
  24   11   36 1
  25   12   13 ar
  26   12   37 1
  27   13   14 ar
  28   13   16 1
  29   14   15 ar
  30   14   38 1
  31   15   17 1
  32   16   39 1
  33   16   40 1
  34   16   41 1
  35   17   42 1
  36   17   43 1
  37   17   44 1
  38   18   19 2
  39   18   20 1
  40   19   22 1
  41   20   21 1
  42   21   22 1
  43   21   45 1
  44   21   46 1
  45   22   47 1
  46   22   48 1
  47   23   24 ar
  48   23   49 1
  49   24   25 ar
  50   24   50 1
  51   25   26 ar
  52   25   27 1
  53   26   51 1
  54   27   28 1
  55   28   52 1
  56   28   53 1
  57   28   54 1

#	End of record

