#	Name: ASD11870001
#	Creating user name:	WinNT
#	Creation time:	15. 06. 2019 21:29

#	Modifying user name:	WinNT
#	Modification time:	15. 06. 2019 21:29

#	Program:	/corina/corina34_cracker 3.40 0067  02.08.2006

@<TRIPOS>MOLECULE
ASD11870001
  34   34    0    0    0
SMALL
NO_CHARGES


@<TRIPOS>ATOM
   1 O1            -0.0173     1.4248     0.0099 O.3     
   2 C2             0.0021    -0.0041     0.0020 C.3     
   3 C3             0.7175    -0.5102     1.2573 C.3     
   4 C4             2.1334     0.0727     1.2986 C.3     
   5 C5             2.0458     1.6014     1.2560 C.3     
   6 C6             1.2791     2.0260     0.0007 C.3     
   7 O7             2.7834    -0.3354     2.5040 O.3     
   8 C8             4.2018    -0.4618     2.3854 C.3     
   9 C9             4.5528    -1.8887     1.9590 C.3     
  10 N10            3.3999     2.1699     1.2199 N.3     
  11 C11            4.8457    -0.1620     3.7145 C.2     
  12 O12            4.1579     0.0412     4.6869 O.2     
  13 O13            6.1834    -0.1207     3.8181 O.3     
  14 O14            1.1446     3.4485    -0.0172 O.3     
  15 O15            0.7892    -1.9370     1.2235 O.3     
  16 C16           -1.4332    -0.5337    -0.0158 C.3     
  17 O17           -2.0645    -0.1576    -1.2414 O.3     
  18 H18            0.5305    -0.3556    -0.8842 H       
  19 H19            0.1670    -0.1932     2.1431 H       
  20 H20            2.6999    -0.2842     0.4385 H       
  21 H21            1.5222     1.9611     2.1417 H       
  22 H22            1.8242     1.7010    -0.8855 H       
  23 H23            4.5680     0.2414     1.6374 H       
  24 H24            5.6347    -1.9851     1.8685 H       
  25 H25            4.1866    -2.5919     2.7070 H       
  26 H26            4.0870    -2.1055     0.9977 H       
  27 H27            3.3681     3.1780     1.1914 H       
  28 H28            3.9484     1.8474     2.0030 H       
  29 H29            6.5503     0.0755     4.6911 H       
  30 H30            0.6677     3.7889    -0.7865 H       
  31 H31           -0.0730    -2.3735     1.1915 H       
  32 H32           -1.4205    -1.6204     0.0677 H       
  33 H33           -1.9869    -0.1113     0.8227 H       
  34 H34           -2.9793    -0.4606    -1.3218 H       
@<TRIPOS>BOND
   1    1    2 1
   2    1    6 1
   3    2    3 1
   4    2   16 1
   5    2   18 1
   6    3    4 1
   7    3   15 1
   8    3   19 1
   9    4    5 1
  10    4    7 1
  11    4   20 1
  12    5    6 1
  13    5   10 1
  14    5   21 1
  15    6   14 1
  16    6   22 1
  17    7    8 1
  18    8    9 1
  19    8   11 1
  20    8   23 1
  21    9   24 1
  22    9   25 1
  23    9   26 1
  24   10   27 1
  25   10   28 1
  26   11   12 2
  27   11   13 1
  28   13   29 1
  29   14   30 1
  30   15   31 1
  31   16   17 1
  32   16   32 1
  33   16   33 1
  34   17   34 1

#	End of record

