#	Name: ASD11530010
#	Creating user name:	WinNT
#	Creation time:	15. 06. 2019 21:29

#	Modifying user name:	WinNT
#	Modification time:	15. 06. 2019 21:29

#	Program:	/corina/corina34_cracker 3.40 0067  02.08.2006

@<TRIPOS>MOLECULE
ASD11530010
  27   29    0    0    0
SMALL
NO_CHARGES


@<TRIPOS>ATOM
   1 C1            -0.0203     1.4265    -0.3121 C.ar    
   2 C2             0.0142    -0.0250    -0.3745 C.ar    
   3 C3             1.2104    -0.6554    -0.2810 C.ar    
   4 C4             4.4712    -2.8123    -0.6858 C.ar    
   5 C5             4.4478    -4.1894    -0.5865 C.ar    
   6 C6             3.5448    -4.8086     0.2581 C.ar    
   7 C7             1.2624     2.1577    -0.1479 C.ar    
   8 C8             2.4531     1.4175    -0.0598 C.ar    
   9 C9             2.4135     0.0576    -0.1252 C.ar    
  10 C10            3.5861    -2.0470     0.0641 C.ar    
  11 C11            2.6797    -2.6700     0.9120 C.ar    
  12 C12            2.6609    -4.0500     1.0074 C.ar    
  13 N13           -0.9022     2.3913    -0.3534 N.2     
  14 N14            0.8784     3.4113    -0.1302 N.2     
  15 N15            3.6085    -0.6538    -0.0345 N.pl3   
  16 N16            3.7491     2.1145     0.1037 N.pl3   
  17 O17           -0.3297     3.4579    -0.2499 O.3     
  18 O18            4.1752     2.3539     1.2193 O.2     
  19 O19            4.3890     2.4485    -0.8773 O.2     
  20 F20            1.7795    -4.6579     1.8313 F       
  21 H21           -0.8975    -0.5916    -0.4931 H       
  22 H22            1.2410    -1.7340    -0.3269 H       
  23 H23            5.1800    -2.3300    -1.3425 H       
  24 H24            5.1355    -4.7838    -1.1697 H       
  25 H25            3.5286    -5.8858     0.3334 H       
  26 H26            1.9909    -2.0780     1.4963 H       
  27 H27            4.4557    -0.1815    -0.0399 H       
@<TRIPOS>BOND
   1    1    2 ar
   2    1    7 ar
   3    1   13 2
   4    2    3 ar
   5    2   21 1
   6    3    9 ar
   7    3   22 1
   8    4    5 ar
   9    4   10 ar
  10    4   23 1
  11    5    6 ar
  12    5   24 1
  13    6   12 ar
  14    6   25 1
  15    7    8 ar
  16    7   14 2
  17    8    9 ar
  18    8   16 1
  19    9   15 1
  20   10   11 ar
  21   10   15 1
  22   11   12 ar
  23   11   26 1
  24   12   20 1
  25   13   17 1
  26   14   17 1
  27   15   27 1
  28   16   18 2
  29   16   19 2

#	End of record

