#	Name: ASD11000045
#	Creating user name:	WinNT
#	Creation time:	15. 06. 2019 21:28

#	Modifying user name:	WinNT
#	Modification time:	15. 06. 2019 21:28

#	Program:	/corina/corina34_cracker 3.40 0067  02.08.2006

@<TRIPOS>MOLECULE
ASD11000045
  47   48    0    0    0
SMALL
NO_CHARGES


@<TRIPOS>ATOM
   1 C1            -0.0167     1.3794     0.0096 C.ar    
   2 C2             0.0021    -0.0041     0.0020 C.ar    
   3 C3            -1.1813    -0.7131     0.0091 C.ar    
   4 C4            -2.3995    -0.0315     0.0243 C.ar    
   5 C5            -2.4113     1.3644     0.0324 C.ar    
   6 C6            -1.2206     2.0611     0.0305 C.ar    
   7 C7            -3.6712    -0.7845     0.0315 C.2     
   8 O8            -3.6579    -2.0000     0.0240 O.2     
   9 N9            -4.8457    -0.1235     0.0462 N.am    
  10 C10           -6.0373    -0.8291     0.0529 C.2     
  11 C11           -7.2839    -0.2556     0.0678 C.2     
  12 C12           -8.3502    -1.2335     0.0717 C.2     
  13 C13           -7.9112    -2.4837     0.0601 C.2     
  14 S14           -6.1574    -2.5292     0.0364 S.3     
  15 C15           -7.5105     1.1909     0.0791 C.2     
  16 O16           -8.7690     1.6762     0.0935 O.3     
  17 O17           -6.5640     1.9549     0.0754 O.2     
  18 C18           -8.7985    -3.7018     0.0609 C.3     
  19 C19            1.2800     2.1472     0.0014 C.3     
  20 C20            2.0744     1.7932    -1.2574 C.3     
  21 C21            0.9840     3.6483     0.0123 C.3     
  22 C22            2.0982     1.7798     1.2409 C.3     
  23 C23           -8.9184     3.1205     0.1040 C.3     
  24 C24          -10.4056     3.4793     0.1198 C.3     
  25 H25            0.9453    -0.5301    -0.0098 H       
  26 H26           -1.1653    -1.7929     0.0024 H       
  27 H27           -3.3503     1.8977     0.0443 H       
  28 H28           -1.2282     3.1410     0.0371 H       
  29 H29           -4.8563     0.8464     0.0522 H       
  30 H30           -9.3978    -0.9711     0.0832 H       
  31 H31           -9.0218    -3.9893    -0.9665 H       
  32 H32           -8.2883    -4.5226     0.5652 H       
  33 H33           -9.7270    -3.4747     0.5847 H       
  34 H34            1.4915     2.0550    -2.1405 H       
  35 H35            3.0122     2.3486    -1.2634 H       
  36 H36            2.2853     0.7238    -1.2652 H       
  37 H37            0.4181     3.9005     0.9090 H       
  38 H38            1.9219     4.2036     0.0063 H       
  39 H39            0.4011     3.9101    -0.8708 H       
  40 H40            2.3091     0.7104     1.2331 H       
  41 H41            3.0361     2.3351     1.2349 H       
  42 H42            1.5323     2.0320     2.1377 H       
  43 H43           -8.4366     3.5291     0.9923 H       
  44 H44           -8.4527     3.5405    -0.7875 H       
  45 H45          -10.8873     3.0706    -0.7685 H       
  46 H46          -10.8713     3.0593     1.0113 H       
  47 H47          -10.5178     4.5634     0.1277 H       
@<TRIPOS>BOND
   1    1    2 ar
   2    1   19 1
   3    1    6 ar
   4    2    3 ar
   5    2   25 1
   6    3    4 ar
   7    3   26 1
   8    4    5 ar
   9    4    7 1
  10    5    6 ar
  11    5   27 1
  12    6   28 1
  13    7    8 2
  14    7    9 am
  15    9   10 1
  16    9   29 1
  17   10   11 2
  18   10   14 1
  19   11   12 1
  20   11   15 1
  21   12   13 2
  22   12   30 1
  23   13   14 1
  24   13   18 1
  25   15   16 1
  26   15   17 2
  27   16   23 1
  28   18   31 1
  29   18   32 1
  30   18   33 1
  31   19   20 1
  32   19   21 1
  33   19   22 1
  34   20   34 1
  35   20   35 1
  36   20   36 1
  37   21   37 1
  38   21   38 1
  39   21   39 1
  40   22   40 1
  41   22   41 1
  42   22   42 1
  43   23   24 1
  44   23   43 1
  45   23   44 1
  46   24   45 1
  47   24   46 1
  48   24   47 1

#	End of record

