#	Name: ASD11000314
#	Creating user name:	WinNT
#	Creation time:	15. 06. 2019 21:29

#	Modifying user name:	WinNT
#	Modification time:	15. 06. 2019 21:29

#	Program:	/corina/corina34_cracker 3.40 0067  02.08.2006

@<TRIPOS>MOLECULE
ASD11000314
  59   63    0    0    0
SMALL
NO_CHARGES


@<TRIPOS>ATOM
   1 C1            -0.0162     1.3202     0.0176 C.ar    
   2 N2             0.0010    -0.0048     0.0229 N.ar    
   3 C3             1.1466    -0.6660     0.0167 C.ar    
   4 C4             2.3370     0.0439     0.0044 C.ar    
   5 C5             2.2826     1.4290    -0.0008 C.ar    
   6 N6             1.1036     2.0284     0.0059 N.ar    
   7 N7            -1.2337     1.9804     0.0186 N.pl3   
   8 C8             3.6618    -0.6745    -0.0025 C.3     
   9 C9             4.0991    -0.9240    -1.4473 C.3     
  10 N10            8.9074    -3.8333    -1.4714 N.pl3   
  11 N11            8.3776    -5.1278    -1.4606 N.2     
  12 C12            7.0762    -5.0784    -1.4504 C.2     
  13 C13            6.6834    -3.6729    -1.4544 C.ar    
  14 C14            5.4527    -3.0068    -1.4484 C.ar    
  15 C15            5.4238    -1.6425    -1.4542 C.ar    
  16 C16            6.6042    -0.9093    -1.4670 C.ar    
  17 C17            7.8175    -1.5367    -1.4739 C.ar    
  18 C18            7.8785    -2.9282    -1.4678 C.ar    
  19 C19           10.3337    -3.4987    -1.4791 C.3     
  20 C20           10.9214    -3.7369    -0.0857 C.3     
  21 C21           12.4244    -3.4426    -0.1170 C.3     
  22 C22           13.0836    -4.3219    -1.1840 C.3     
  23 C23           12.4123    -4.0612    -2.5350 C.3     
  24 O24           11.0117    -4.3243    -2.4282 O.3     
  25 C25           -1.2735     3.3756     0.1321 C.ar    
  26 C26           -2.2519     4.0993    -0.5371 C.ar    
  27 C27           -2.2906     5.4758    -0.4241 C.ar    
  28 C28           -1.3517     6.1348     0.3581 C.ar    
  29 C29           -0.3748     5.4122     1.0257 C.ar    
  30 C30           -0.3385     4.0354     0.9181 C.ar    
  31 O31           -1.3901     7.4898     0.4692 O.3     
  32 C32           -0.3936     8.1019     1.2903 C.3     
  33 F33           -0.5023     7.6144     2.5971 F       
  34 F34            0.8760     7.8019     0.7848 F       
  35 Cl35          -3.5129     6.3814    -1.2606 Cl      
  36 H36            1.1542    -1.7460     0.0214 H       
  37 H37            3.1919     2.0116    -0.0100 H       
  38 H38           -2.0588     1.4764    -0.0593 H       
  39 H39            4.4093    -0.0631     0.5029 H       
  40 H40            3.5608    -1.6278     0.5163 H       
  41 H41            3.3515    -1.5354    -1.9527 H       
  42 H42            4.2000     0.0292    -1.9661 H       
  43 H43            6.4071    -5.9261    -1.4413 H       
  44 H44            4.5308    -3.5694    -1.4397 H       
  45 H45            6.5618     0.1699    -1.4718 H       
  46 H46            8.7275    -0.9551    -1.4845 H       
  47 H47           10.4598    -2.4512    -1.7527 H       
  48 H48           10.4357    -3.0761     0.6323 H       
  49 H49           10.7595    -4.7747     0.2054 H       
  50 H50           12.5853    -2.3922    -0.3597 H       
  51 H51           12.8596    -3.6638     0.8576 H       
  52 H52           14.1441    -4.0795    -1.2515 H       
  53 H53           12.9652    -5.3715    -0.9151 H       
  54 H54           12.5658    -3.0210    -2.8225 H       
  55 H55           12.8485    -4.7153    -3.2899 H       
  56 H56           -2.9819     3.5865    -1.1457 H       
  57 H57            0.3557     5.9255     1.6334 H       
  58 H58            0.4200     3.4726     1.4419 H       
  59 H59           -0.5379     9.1823     1.2924 H       
@<TRIPOS>BOND
   1    1    2 ar
   2    1    6 ar
   3    1    7 1
   4    2    3 ar
   5    3    4 ar
   6    3   36 1
   7    4    5 ar
   8    4    8 1
   9    5    6 ar
  10    5   37 1
  11    7   25 1
  12    7   38 1
  13    8    9 1
  14    8   39 1
  15    8   40 1
  16    9   15 1
  17    9   41 1
  18    9   42 1
  19   10   11 1
  20   10   18 1
  21   10   19 1
  22   11   12 2
  23   12   13 1
  24   12   43 1
  25   13   14 ar
  26   13   18 ar
  27   14   15 ar
  28   14   44 1
  29   15   16 ar
  30   16   17 ar
  31   16   45 1
  32   17   18 ar
  33   17   46 1
  34   19   20 1
  35   19   24 1
  36   19   47 1
  37   20   21 1
  38   20   48 1
  39   20   49 1
  40   21   22 1
  41   21   50 1
  42   21   51 1
  43   22   23 1
  44   22   52 1
  45   22   53 1
  46   23   24 1
  47   23   54 1
  48   23   55 1
  49   25   26 ar
  50   25   30 ar
  51   26   27 ar
  52   26   56 1
  53   27   28 ar
  54   27   35 1
  55   28   29 ar
  56   28   31 1
  57   29   30 ar
  58   29   57 1
  59   30   58 1
  60   31   32 1
  61   32   33 1
  62   32   34 1
  63   32   59 1

#	End of record

