#	Name: ASD10160013
#	Creating user name:	WinNT
#	Creation time:	15. 06. 2019 21:25

#	Modifying user name:	WinNT
#	Modification time:	15. 06. 2019 21:25

#	Program:	/corina/corina34_cracker 3.40 0067  02.08.2006

@<TRIPOS>MOLECULE
ASD10160013
  34   37    0    0    0
SMALL
NO_CHARGES


@<TRIPOS>ATOM
   1 C1            -0.0167     1.3823     0.0096 C.ar    
   2 C2             0.0021    -0.0041     0.0020 C.ar    
   3 C3            -1.1847    -0.7125     0.0085 C.ar    
   4 C4            -2.3969    -0.0398     0.0220 C.ar    
   5 C5            -2.4182     1.3501     0.0326 C.ar    
   6 C6            -1.2267     2.0590     0.0306 C.ar    
   7 O7             1.1515     2.0782     0.0022 O.3     
   8 C8             1.3176    -0.7391    -0.0139 C.3     
   9 C9             1.4457    -1.6218     1.2062 C.ar    
  10 C10            1.5547    -2.9248     0.7362 C.ar    
  11 N11            1.5070    -2.9401    -0.6583 N.am    
  12 C12            1.3699    -1.7078    -1.1762 C.2     
  13 C13            1.4673    -1.3553     2.5563 C.ar    
  14 C14            1.5989    -2.3933     3.4628 C.ar    
  15 C15            1.7083    -3.6942     3.0076 C.ar    
  16 C16            1.6869    -3.9641     1.6546 C.ar    
  17 O17            1.3014    -1.4247    -2.3535 O.2     
  18 O18           -3.5567    -0.7540     0.0199 O.3     
  19 C19           -4.7437    -0.0551     0.4102 C.3     
  20 C20           -4.7691     1.2945    -0.3199 C.3     
  21 O21           -3.5980     2.0285     0.0538 O.3     
  22 H22           -1.1677    -1.7924     0.0028 H       
  23 H23           -1.2412     3.1389     0.0372 H       
  24 H24            1.4809     2.2843    -0.8833 H       
  25 H25            2.1473    -0.0340    -0.0640 H       
  26 H26            1.5660    -3.7476    -1.1924 H       
  27 H27            1.3820    -0.3378     2.9080 H       
  28 H28            1.6166    -2.1874     4.5229 H       
  29 H29            1.8110    -4.5038     3.7150 H       
  30 H30            1.7725    -4.9830     1.3068 H       
  31 H31           -5.6217    -0.6390     0.1340 H       
  32 H32           -4.7355     0.1100     1.4876 H       
  33 H33           -4.7712     1.1295    -1.3974 H       
  34 H34           -5.6601     1.8520    -0.0311 H       
@<TRIPOS>BOND
   1    1    2 ar
   2    1    7 1
   3    1    6 ar
   4    2    3 ar
   5    2    8 1
   6    3    4 ar
   7    3   22 1
   8    4    5 ar
   9    4   18 1
  10    5    6 ar
  11    5   21 1
  12    6   23 1
  13    7   24 1
  14    8    9 1
  15    8   12 1
  16    8   25 1
  17    9   10 ar
  18    9   13 ar
  19   10   11 1
  20   10   16 ar
  21   11   12 am
  22   11   26 1
  23   12   17 2
  24   13   14 ar
  25   13   27 1
  26   14   15 ar
  27   14   28 1
  28   15   16 ar
  29   15   29 1
  30   16   30 1
  31   18   19 1
  32   19   20 1
  33   19   31 1
  34   19   32 1
  35   20   21 1
  36   20   33 1
  37   20   34 1

#	End of record

