#	Name: ASD11030026
#	Creating user name:	WinNT
#	Creation time:	15. 06. 2019 21:29

#	Modifying user name:	WinNT
#	Modification time:	15. 06. 2019 21:29

#	Program:	/corina/corina34_cracker 3.40 0067  02.08.2006

@<TRIPOS>MOLECULE
ASD11030026
  39   42    0    0    0
SMALL
NO_CHARGES


@<TRIPOS>ATOM
   1 Cl1            0.0068    -0.0030    -0.1614 Cl      
   2 C2            -0.0105     1.7326    -0.1903 C.ar    
   3 C3             1.1510     2.4389     0.0918 C.ar    
   4 C4             1.1468     3.8097     0.0714 C.ar    
   5 C5            -0.0379     4.4998    -0.2369 C.ar    
   6 C6            -1.2085     3.7764    -0.5216 C.ar    
   7 C7            -1.1843     2.4058    -0.5011 C.ar    
   8 C8            -0.0525     5.9642    -0.2609 C.2     
   9 N9             0.9954     6.7503    -0.0080 N.2     
  10 N10            0.8105     7.9980    -0.0726 N.2     
  11 C11           -0.4404     8.3848    -0.3935 C.2     
  12 S12           -1.4147     6.9342    -0.6249 S.3     
  13 N13           -0.8606     9.6309    -0.5174 N.2     
  14 C14           -0.0119    10.6460    -0.3186 C.2     
  15 N15            1.2964    10.5383     0.0123 N.am    
  16 C16            2.0092    11.6426     0.1756 C.2     
  17 O17            3.1892    11.6333     0.4727 O.2     
  18 C18            1.2444    12.8808    -0.0349 C.2     
  19 C19            1.6950    14.1817     0.0589 C.2     
  20 C20            0.7470    15.2936    -0.0370 C.ar    
  21 C21           -0.5810    15.1276     0.3848 C.ar    
  22 C22           -1.4652    16.1795     0.2911 C.ar    
  23 C23           -1.0471    17.3984    -0.2176 C.ar    
  24 C24            0.2619    17.5721    -0.6366 C.ar    
  25 C25            1.1623    16.5336    -0.5458 C.ar    
  26 N26           -2.0054    18.5224    -0.3144 N.pl3   
  27 O27           -3.2509    18.3619     0.0823 O.2     
  28 O28           -1.6124    19.6830    -0.7974 O.2     
  29 S29           -0.3873    12.3201    -0.4451 S.3     
  30 H30            2.0605     1.9068     0.3286 H       
  31 H31            2.0511     4.3575     0.2918 H       
  32 H32           -2.1236     4.2985    -0.7592 H       
  33 H33           -2.0830     1.8482    -0.7196 H       
  34 H34            1.7052     9.6663     0.1282 H       
  35 H35            2.7468    14.3798     0.2030 H       
  36 H36           -0.9088    14.1780     0.7813 H       
  37 H37           -2.4878    16.0536     0.6149 H       
  38 H38            0.5786    18.5260    -1.0317 H       
  39 H39            2.1824    16.6709    -0.8726 H       
@<TRIPOS>BOND
   1    1    2 1
   2    2    3 ar
   3    2    7 ar
   4    3    4 ar
   5    3   30 1
   6    4    5 ar
   7    4   31 1
   8    5    6 ar
   9    5    8 1
  10    6    7 ar
  11    6   32 1
  12    7   33 1
  13    8    9 2
  14    8   12 1
  15    9   10 1
  16   10   11 2
  17   11   12 1
  18   11   13 1
  19   13   14 2
  20   14   15 1
  21   14   29 1
  22   15   16 am
  23   15   34 1
  24   16   17 2
  25   16   18 1
  26   18   19 2
  27   18   29 1
  28   19   20 1
  29   19   35 1
  30   20   21 ar
  31   20   25 ar
  32   21   22 ar
  33   21   36 1
  34   22   23 ar
  35   22   37 1
  36   23   24 ar
  37   23   26 1
  38   24   25 ar
  39   24   38 1
  40   25   39 1
  41   26   27 2
  42   26   28 2

#	End of record

