#	Name: ASD13390022
#	Creating user name:	WinNT
#	Creation time:	15. 06. 2019 21:30

#	Modifying user name:	WinNT
#	Modification time:	15. 06. 2019 21:30

#	Program:	/corina/corina34_cracker 3.40 0067  02.08.2006

@<TRIPOS>MOLECULE
ASD13390022
  33   32    0    0    0
SMALL
NO_CHARGES


@<TRIPOS>ATOM
   1 C1            -0.0166     1.3747     0.0096 C.ar    
   2 C2             0.0021    -0.0041     0.0020 C.ar    
   3 C3             1.2245    -0.6830    -0.0133 C.ar    
   4 C4             2.4194     0.0434    -0.0209 C.ar    
   5 C5             2.3841     1.4218    -0.0132 C.ar    
   6 C6             1.1703     2.0865     0.0021 C.ar    
   7 C7             1.2533    -2.1545    -0.0210 C.2     
   8 N8             2.3959    -2.7846    -0.0354 N.2     
   9 N9             2.4211    -4.0743    -0.0421 N.2     
  10 C10            3.5753    -4.7109    -0.0566 C.2     
  11 N11            4.7492    -4.0020    -0.0645 N.pl3   
  12 N12            3.6021    -6.0819    -0.0638 N.pl3   
  13 C13            1.1408     3.5932     0.0100 C.3     
  14 C14            1.8636     4.1109     1.2552 C.3     
  15 C15            1.8402     4.1236    -1.2432 C.3     
  16 H16           -0.9599     1.9005     0.0169 H       
  17 H17           -0.9249    -0.5582     0.0083 H       
  18 H18            3.3674    -0.4739    -0.0324 H       
  19 H19            3.3061     1.9842    -0.0190 H       
  20 H20            0.3288    -2.7127    -0.0148 H       
  21 H21            4.7302    -3.0322    -0.0594 H       
  22 H22            5.5985    -4.4704    -0.0752 H       
  23 H23            2.7717    -6.5833    -0.0582 H       
  24 H24            4.4514    -6.5503    -0.0744 H       
  25 H25            0.1062     3.9363     0.0214 H       
  26 H26            2.8981     3.7678     1.2437 H       
  27 H27            1.8422     5.2007     1.2609 H       
  28 H28            1.3653     3.7330     2.1480 H       
  29 H29            1.3252     3.7547    -2.1302 H       
  30 H30            1.8188     5.2133    -1.2374 H       
  31 H31            2.8747     3.7805    -1.2546 H       
  32 Cl32          10.5985    10.2133     7.1480 Cl      
  33 H33           10.5985    11.5833     7.1480 H       
@<TRIPOS>BOND
   1    1    2 ar
   2    1    6 ar
   3    1   16 1
   4    2    3 ar
   5    2   17 1
   6    3    4 ar
   7    3    7 1
   8    4    5 ar
   9    4   18 1
  10    5    6 ar
  11    5   19 1
  12    6   13 1
  13    7    8 2
  14    7   20 1
  15    8    9 1
  16    9   10 2
  17   10   11 1
  18   10   12 1
  19   11   21 1
  20   11   22 1
  21   12   23 1
  22   12   24 1
  23   13   14 1
  24   13   15 1
  25   13   25 1
  26   14   26 1
  27   14   27 1
  28   14   28 1
  29   15   29 1
  30   15   30 1
  31   15   31 1
  32   32   33 1

#	End of record

