#	Name: ASD10800028
#	Creating user name:	WinNT
#	Creation time:	15. 06. 2019 21:28

#	Modifying user name:	WinNT
#	Modification time:	15. 06. 2019 21:28

#	Program:	/corina/corina34_cracker 3.40 0067  02.08.2006

@<TRIPOS>MOLECULE
ASD10800028
  57   59    0    0    0
SMALL
NO_CHARGES


@<TRIPOS>ATOM
   1 N1            -0.0162     1.3436     0.0094 N.am    
   2 C2             0.0021    -0.0041     0.0020 C.2     
   3 S3             1.4961    -0.8398    -0.0167 S.2     
   4 N4            -1.1558    -0.6938     0.0094 N.am    
   5 C5            -1.1360    -2.1586     0.0013 C.3     
   6 C6            -2.5713    -2.6882     0.0122 C.3     
   7 O7            -3.2269    -2.3123    -1.2007 O.3     
   8 C8             1.2424     2.0932     0.0014 C.3     
   9 C9             1.0058     3.4807    -0.5985 C.3     
  10 C10            1.7509     2.2363     1.4128 C.ar    
  11 C11            0.8815     2.0785     2.4726 C.ar    
  12 C12            1.3467     2.2103     3.7674 C.ar    
  13 C13            2.6767     2.5017     3.9913 C.ar    
  14 C14            3.5529     2.6625     2.9261 C.ar    
  15 C15            4.9893     2.9877     3.2422 C.3     
  16 C16            5.8823     2.7037     2.0361 C.3     
  17 C17            5.2763     3.3984     0.8110 C.3     
  18 C18            3.9865     2.6723     0.4342 C.3     
  19 C19            3.0917     2.5203     1.6363 C.ar    
  20 C20            0.6155     3.3415    -2.0474 C.ar    
  21 C21           -0.7166     3.2179    -2.3955 C.ar    
  22 C22           -1.0747     3.0902    -3.7246 C.ar    
  23 C23           -0.1007     3.0866    -4.7055 C.ar    
  24 C24            1.2313     3.2112    -4.3575 C.ar    
  25 C25            1.5890     3.3432    -3.0288 C.ar    
  26 C26            2.2931     3.2068    -5.4269 C.3     
  27 C27           -2.5268     2.9544    -4.1040 C.3     
  28 H28           -0.8627     1.8171     0.0160 H       
  29 H29           -2.0023    -0.2203     0.0200 H       
  30 H30           -0.6258    -2.5101    -0.8955 H       
  31 H31           -0.6088    -2.5197     0.8844 H       
  32 H32           -2.5571    -3.7749     0.0958 H       
  33 H33           -3.1082    -2.2655     0.8614 H       
  34 H34           -4.1431    -2.6153    -1.2628 H       
  35 H35            1.9797     1.5591    -0.5979 H       
  36 H36            0.2055     3.9808    -0.0530 H       
  37 H37            1.9199     4.0697    -0.5235 H       
  38 H38           -0.1590     1.8531     2.2909 H       
  39 H39            0.6714     2.0860     4.6011 H       
  40 H40            3.0391     2.6058     5.0033 H       
  41 H41            5.0690     4.0418     3.5081 H       
  42 H42            5.3186     2.3793     4.0845 H       
  43 H43            6.8835     3.0929     2.2210 H       
  44 H44            5.9322     1.6289     1.8614 H       
  45 H45            5.0555     4.4385     1.0507 H       
  46 H46            5.9790     3.3541    -0.0211 H       
  47 H47            3.4654     3.2415    -0.3356 H       
  48 H48            4.2309     1.6836     0.0459 H       
  49 H49           -1.4776     3.2207    -1.6291 H       
  50 H50           -0.3804     2.9861    -5.7438 H       
  51 H51            2.6294     3.4442    -2.7571 H       
  52 H52            2.4741     4.2276    -5.7633 H       
  53 H53            3.2148     2.7888    -5.0220 H       
  54 H54            1.9584     2.6007    -6.2687 H       
  55 H55           -2.9521     3.9436    -4.2734 H       
  56 H56           -2.6104     2.3621    -5.0152 H       
  57 H57           -3.0682     2.4594    -3.2979 H       
@<TRIPOS>BOND
   1    1    2 am
   2    1    8 1
   3    1   28 1
   4    2    3 2
   5    2    4 am
   6    4    5 1
   7    4   29 1
   8    5    6 1
   9    5   30 1
  10    5   31 1
  11    6    7 1
  12    6   32 1
  13    6   33 1
  14    7   34 1
  15    8    9 1
  16    8   10 1
  17    8   35 1
  18    9   20 1
  19    9   36 1
  20    9   37 1
  21   10   11 ar
  22   10   19 ar
  23   11   12 ar
  24   11   38 1
  25   12   13 ar
  26   12   39 1
  27   13   14 ar
  28   13   40 1
  29   14   15 1
  30   14   19 ar
  31   15   16 1
  32   15   41 1
  33   15   42 1
  34   16   17 1
  35   16   43 1
  36   16   44 1
  37   17   18 1
  38   17   45 1
  39   17   46 1
  40   18   19 1
  41   18   47 1
  42   18   48 1
  43   20   21 ar
  44   20   25 ar
  45   21   22 ar
  46   21   49 1
  47   22   23 ar
  48   22   27 1
  49   23   24 ar
  50   23   50 1
  51   24   25 ar
  52   24   26 1
  53   25   51 1
  54   26   52 1
  55   26   53 1
  56   26   54 1
  57   27   55 1
  58   27   56 1
  59   27   57 1

#	End of record

