#	Name: ASD10110001
#	Creating user name:	WinNT
#	Creation time:	15. 06. 2019 21:24

#	Modifying user name:	WinNT
#	Modification time:	15. 06. 2019 21:24

#	Program:	/corina/corina34_cracker 3.40 0067  02.08.2006

@<TRIPOS>MOLECULE
ASD10110001
  65   68    0    0    0
SMALL
NO_CHARGES


@<TRIPOS>ATOM
   1 C1            -0.0189     1.5406     0.0105 C.3     
   2 C2             0.0021    -0.0041     0.0020 C.3     
   3 C3             1.3706    -0.3575    -0.6221 C.3     
   4 C4             2.0146     1.0153    -0.9168 C.3     
   5 O5             1.3722     1.9285    -0.0007 O.3     
   6 O6            -0.6603     2.0229     1.1929 O.3     
   7 O7            -0.0873    -0.5134     1.3342 O.3     
   8 O8             2.1682    -1.0960     0.3056 O.3     
   9 C9             3.5205     0.9654    -0.6509 C.3     
  10 C10            4.1561     2.2935    -1.0666 C.3     
  11 C11            5.6620     2.2436    -0.8006 C.3     
  12 O12            6.2557     3.4841    -1.1889 O.3     
  13 P13            7.8312     3.7841    -1.0485 P.3     
  14 O14            8.2540     3.5562     0.3515 O.2     
  15 O15            8.6536     2.8022    -2.0240 O.3     
  16 O16            8.1246     5.3140    -1.4554 O.3     
  17 P17            9.3761     6.3057    -1.2498 P.3     
  18 O18            9.9458     6.1074     0.1017 O.2     
  19 O19           10.5001     5.9882    -2.3579 O.3     
  20 O20            8.8839     7.8306    -1.4063 O.3     
  21 C21            9.7393     8.9520    -1.1767 C.3     
  22 C22            8.9580    10.2461    -1.4124 C.3     
  23 O23            7.9207    10.4017    -0.4202 O.3     
  24 C24            7.5879    11.7994    -0.3766 C.3     
  25 C25            9.8659    11.4813    -1.1831 C.3     
  26 C26            8.8344    12.5816    -0.8339 C.3     
  27 O27           10.7633    11.2593    -0.0935 O.3     
  28 O28            8.5346    13.3703    -1.9872 O.3     
  29 N29            7.2324    12.1843     0.9915 N.pl3   
  30 C30            6.4518    13.2516     1.3577 C.ar    
  31 C31            6.3889    13.2220     2.7608 C.ar    
  32 N32            7.1205    12.1583     3.1710 N.2     
  33 C33            7.6116    11.5445     2.1338 C.2     
  34 N34            5.8076    14.2118     0.7022 N.ar    
  35 C35            5.1192    15.1242     1.3549 C.ar    
  36 N36            5.0312    15.1377     2.6727 N.ar    
  37 C37            5.6417    14.2182     3.4126 C.ar    
  38 N38            5.5438    14.2407     4.7928 N.pl3   
  39 H39           -0.5253     1.9181    -0.8778 H       
  40 H40           -0.8098    -0.3937    -0.6121 H       
  41 H41            1.2353    -0.9240    -1.5435 H       
  42 H42            1.8217     1.3114    -1.9480 H       
  43 H43           -0.7024     2.9871     1.2520 H       
  44 H44           -0.9018    -0.2694     1.7948 H       
  45 H45            1.7807    -1.9409     0.5721 H       
  46 H46            3.6964     0.7951     0.4113 H       
  47 H47            3.9645     0.1539    -1.2274 H       
  48 H48            3.9802     2.4638    -2.1287 H       
  49 H49            3.7121     3.1051    -0.4901 H       
  50 H50            5.8379     2.0733     0.2615 H       
  51 H51            6.1060     1.4321    -1.3771 H       
  52 H52            8.4273     2.8970    -2.9593 H       
  53 H53           10.1960     6.0977    -3.2693 H       
  54 H54           10.1015     8.9283    -0.1489 H       
  55 H55           10.5863     8.9090    -1.8615 H       
  56 H56            8.5339    10.2596    -2.4164 H       
  57 H57            6.7549    12.0032    -1.0495 H       
  58 H58           10.4135    11.7354    -2.0907 H       
  59 H59            9.2071    13.2115    -0.0262 H       
  60 H60           11.3523    12.0042     0.0890 H       
  61 H61            9.2842    13.8839    -2.3181 H       
  62 H62            8.2343    10.6629     2.1727 H       
  63 H63            4.6074    15.8906     0.7919 H       
  64 H64            5.0249    14.9332     5.2310 H       
  65 H65            5.9941    13.5639     5.3221 H       
@<TRIPOS>BOND
   1    1    2 1
   2    1    5 1
   3    1    6 1
   4    1   39 1
   5    2    3 1
   6    2    7 1
   7    2   40 1
   8    3    8 1
   9    3    4 1
  10    3   41 1
  11    4    9 1
  12    4    5 1
  13    4   42 1
  14    6   43 1
  15    7   44 1
  16    8   45 1
  17    9   10 1
  18    9   46 1
  19    9   47 1
  20   10   11 1
  21   10   48 1
  22   10   49 1
  23   11   12 1
  24   11   50 1
  25   11   51 1
  26   12   13 1
  27   13   14 2
  28   13   15 1
  29   13   16 1
  30   15   52 1
  31   16   17 1
  32   17   18 2
  33   17   19 1
  34   17   20 1
  35   19   53 1
  36   20   21 1
  37   21   22 1
  38   21   54 1
  39   21   55 1
  40   22   23 1
  41   22   25 1
  42   22   56 1
  43   23   24 1
  44   24   26 1
  45   24   29 1
  46   24   57 1
  47   25   26 1
  48   25   27 1
  49   25   58 1
  50   26   28 1
  51   26   59 1
  52   27   60 1
  53   28   61 1
  54   29   30 1
  55   29   33 1
  56   30   31 ar
  57   30   34 ar
  58   31   32 1
  59   31   37 ar
  60   32   33 2
  61   33   62 1
  62   34   35 ar
  63   35   36 ar
  64   35   63 1
  65   36   37 ar
  66   37   38 1
  67   38   64 1
  68   38   65 1

#	End of record

