#	Name: ASD16590003
#	Creating user name:	WinNT
#	Creation time:	15. 06. 2019 21:31

#	Modifying user name:	WinNT
#	Modification time:	15. 06. 2019 21:31

#	Program:	/corina/corina34_cracker 3.40 0067  02.08.2006

@<TRIPOS>MOLECULE
ASD16590003
  93   97    0    0    0
SMALL
NO_CHARGES


@<TRIPOS>ATOM
   1 C1            -0.0187     1.5258     0.0104 C.3     
   2 C2             0.0021    -0.0041     0.0020 C.3     
   3 C3             0.7182    -0.4975    -1.2568 C.3     
   4 C4             2.1873    -0.0730    -1.2073 C.3     
   5 C5             2.8927    -0.5590    -2.4471 C.2     
   6 O6             2.2806    -1.1834    -3.2876 O.2     
   7 N7             4.2037    -0.2998    -2.6220 N.am    
   8 C8             4.8894    -0.7723    -3.8273 C.3     
   9 C9             6.3585    -0.3478    -3.7778 C.3     
  10 N10            7.0442    -0.8203    -4.9831 N.am    
  11 C11            8.3552    -0.5611    -5.1579 C.2     
  12 O12            8.9684     0.0645    -4.3158 O.2     
  13 O13            8.9854    -0.9953    -6.2656 O.3     
  14 C14           10.3975    -0.6797    -6.3872 C.3     
  15 C15           10.9283    -1.2421    -7.6806 C.ar    
  16 C16           10.8951    -0.4775    -8.8316 C.ar    
  17 C17           11.3820    -0.9935   -10.0195 C.ar    
  18 Cl18          11.3402    -0.0331   -11.4651 Cl      
  19 C19           11.9024    -2.2747   -10.0550 C.ar    
  20 C20           11.9358    -3.0392    -8.9026 C.ar    
  21 Cl21          12.5888    -4.6472    -8.9462 Cl      
  22 C22           11.4534    -2.5202    -7.7142 C.ar    
  23 C23           -1.4333    -0.5336     0.0129 C.3     
  24 C24           -1.4338    -2.0825     0.0414 C.3     
  25 C25           -2.2318    -2.4970     1.3078 C.3     
  26 C26           -3.1261    -1.2789     1.5638 C.3     
  27 C27           -3.6464    -1.1264     2.9806 C.3     
  28 C28           -4.5703    -2.2920     3.3370 C.3     
  29 O29           -3.8360    -3.5166     3.2798 O.3     
  30 C30           -5.1200    -2.0924     4.7509 C.3     
  31 C31           -5.9067    -0.7817     4.8141 C.3     
  32 C32           -7.0703    -0.8375     3.8220 C.3     
  33 C33           -7.8581     0.4725     3.8848 C.3     
  34 O34           -8.9442     0.4201     2.9575 O.3     
  35 C35           -6.9365     1.6398     3.5254 C.3     
  36 C36           -5.7729     1.6953     4.5173 C.3     
  37 C37           -4.9849     0.3853     4.4527 C.3     
  38 C38           -3.8191     0.4404     5.4421 C.3     
  39 C39           -4.4464     0.1845     3.0347 C.3     
  40 C40           -3.5926     1.3800     2.6267 C.3     
  41 C41           -2.9557     1.1675     1.2429 C.3     
  42 C42           -2.1444    -0.1068     1.2926 C.3     
  43 C43           -1.1335    -0.0052     2.4366 C.3     
  44 H44            1.0039     1.9031     0.0027 H       
  45 H45           -0.5459     1.8868    -0.8726 H       
  46 H46           -0.5289     1.8773     0.9072 H       
  47 H47            0.5293    -0.3651     0.8851 H       
  48 H48            0.6556    -1.5845    -1.3079 H       
  49 H49            0.2444    -0.0644    -2.1377 H       
  50 H50            2.2499     1.0140    -1.1561 H       
  51 H51            2.6611    -0.5061    -0.3263 H       
  52 H52            4.6932     0.1996    -1.9497 H       
  53 H53            4.8268    -1.8593    -3.8784 H       
  54 H54            4.4156    -0.3392    -4.7082 H       
  55 H55            6.4211     0.7392    -3.7266 H       
  56 H56            6.8323    -0.7809    -2.8968 H       
  57 H57            6.5547    -1.3197    -5.6553 H       
  58 H58           10.5299     0.4022    -6.3800 H       
  59 H59           10.9411    -1.1178    -5.5502 H       
  60 H60           10.4888     0.5227    -8.8038 H       
  61 H61           12.2785    -2.6795   -10.9830 H       
  62 H62           11.4795    -3.1170    -6.8145 H       
  63 H63           -1.9754    -0.1718    -0.8608 H       
  64 H64           -1.9209    -2.4730    -0.8521 H       
  65 H65           -0.4117    -2.4559     0.1034 H       
  66 H66           -2.8346    -3.3835     1.1108 H       
  67 H67           -1.5594    -2.6686     2.1484 H       
  68 H68           -3.9516    -1.2575     0.8523 H       
  69 H69           -2.8097    -1.0933     3.6784 H       
  70 H70           -5.3970    -2.3305     2.6276 H       
  71 H71           -4.3604    -4.3000     3.4949 H       
  72 H72           -5.7779    -2.9234     5.0054 H       
  73 H73           -4.2930    -2.0537     5.4599 H       
  74 H74           -6.2953    -0.6392     5.8224 H       
  75 H75           -6.6814    -0.9795     2.8137 H       
  76 H76           -7.7269    -1.6688     4.0786 H       
  77 H77           -8.2477     0.6143     4.8929 H       
  78 H78           -9.4882     1.2194     2.9434 H       
  79 H79           -6.5479     1.4982     2.5169 H       
  80 H80           -7.4975     2.5732     3.5708 H       
  81 H81           -5.1167     2.5271     4.2615 H       
  82 H82           -6.1615     1.8357     5.5259 H       
  83 H83           -3.2584    -0.4931     5.3954 H       
  84 H84           -3.1628     1.2717     5.1843 H       
  85 H85           -4.2055     0.5821     6.4514 H       
  86 H86           -5.2875     0.1135     2.3451 H       
  87 H87           -4.2183     2.2721     2.5982 H       
  88 H88           -2.8031     1.5229     3.3646 H       
  89 H89           -3.7351     1.0675     0.4875 H       
  90 H90           -2.3080     2.0097     0.9996 H       
  91 H91           -0.3863     0.7508     2.1951 H       
  92 H92           -1.6504     0.2749     3.3544 H       
  93 H93           -0.6436    -0.9690     2.5752 H       
@<TRIPOS>BOND
   1    1    2 1
   2    1   44 1
   3    1   45 1
   4    1   46 1
   5    2    3 1
   6    2   47 1
   7    2   23 1
   8    3    4 1
   9    3   48 1
  10    3   49 1
  11    4   50 1
  12    4   51 1
  13    4    5 1
  14    5    7 am
  15    5    6 2
  16    7   52 1
  17    7    8 1
  18    8    9 1
  19    8   53 1
  20    8   54 1
  21    9   55 1
  22    9   56 1
  23    9   10 1
  24   10   57 1
  25   10   11 am
  26   11   12 2
  27   11   13 1
  28   13   14 1
  29   14   58 1
  30   14   59 1
  31   14   15 1
  32   15   16 ar
  33   15   22 ar
  34   16   60 1
  35   16   17 ar
  36   17   18 1
  37   17   19 ar
  38   19   20 ar
  39   19   61 1
  40   20   22 ar
  41   20   21 1
  42   22   62 1
  43   23   24 1
  44   23   63 1
  45   23   42 1
  46   24   64 1
  47   24   65 1
  48   24   25 1
  49   25   66 1
  50   25   67 1
  51   25   26 1
  52   26   68 1
  53   26   27 1
  54   26   42 1
  55   27   28 1
  56   27   69 1
  57   27   39 1
  58   28   29 1
  59   28   70 1
  60   28   30 1
  61   29   71 1
  62   30   72 1
  63   30   73 1
  64   30   31 1
  65   31   74 1
  66   31   37 1
  67   31   32 1
  68   32   75 1
  69   32   76 1
  70   32   33 1
  71   33   77 1
  72   33   34 1
  73   33   35 1
  74   34   78 1
  75   35   36 1
  76   35   79 1
  77   35   80 1
  78   36   37 1
  79   36   81 1
  80   36   82 1
  81   37   38 1
  82   37   39 1
  83   38   83 1
  84   38   84 1
  85   38   85 1
  86   39   86 1
  87   39   40 1
  88   40   41 1
  89   40   87 1
  90   40   88 1
  91   41   42 1
  92   41   89 1
  93   41   90 1
  94   42   43 1
  95   43   91 1
  96   43   92 1
  97   43   93 1

#	End of record

