#	Name: ASD11000037
#	Creating user name:	WinNT
#	Creation time:	15. 06. 2019 21:28

#	Modifying user name:	WinNT
#	Modification time:	15. 06. 2019 21:28

#	Program:	/corina/corina34_cracker 3.40 0067  02.08.2006

@<TRIPOS>MOLECULE
ASD11000037
  59   62    0    0    0
SMALL
NO_CHARGES


@<TRIPOS>ATOM
   1 C1            -1.4273    -0.0246    -0.5442 C.ar    
   2 C2            -0.9198    -1.2891    -0.3174 C.ar    
   3 C3             0.4506    -1.5014    -0.3442 C.ar    
   4 C4             1.3113    -0.4438    -0.5982 C.ar    
   5 C5             0.8038     0.8207    -0.8249 C.ar    
   6 C6            -0.5666     1.0328    -0.7986 C.ar    
   7 O7            -1.0664     2.2776    -1.0223 O.3     
   8 C8            -2.4873     2.4234    -0.9802 C.3     
   9 O9             0.9503    -2.7462    -0.1210 O.3     
  10 C10            2.3712    -2.8921    -0.1635 C.3     
  11 C11            2.7424    -4.3512     0.1089 C.3     
  12 N12            2.2487    -4.7412     1.4338 N.am    
  13 C13            2.1200    -5.2326    -0.9451 C.ar    
  14 C14            1.4171    -6.3743    -0.6294 C.ar    
  15 C15            2.2765    -4.8595    -2.2733 C.ar    
  16 C16            0.8801    -7.1542    -1.6467 C.ar    
  17 C17            1.0366    -6.7893    -2.9709 C.ar    
  18 C18            1.7380    -5.6299    -3.2878 C.ar    
  19 C19            2.1936    -6.1808     1.7376 C.3     
  20 C20            1.1821    -6.8225     0.7894 C.3     
  21 C21            1.8614    -3.8189     2.3370 C.2     
  22 O22            2.0267    -2.6366     2.1076 O.2     
  23 C23            1.2356    -4.2448     3.6064 C.ar    
  24 C24            1.3680    -3.4578     4.7518 C.ar    
  25 C25            0.5048    -5.4330     3.6634 C.ar    
  26 C26           -0.0772    -5.8249     4.8507 C.ar    
  27 C27            0.0622    -5.0426     5.9848 C.ar    
  28 C28            0.7814    -3.8603     5.9332 C.ar    
  29 O29            1.8941    -5.2577    -4.5864 O.3     
  30 C30            2.6261    -4.0555    -4.8332 C.3     
  31 O31            0.5073    -7.5594    -3.9590 O.3     
  32 C32           -0.1999    -8.7344    -3.5574 C.3     
  33 Br33          -0.7396    -5.5869     7.6086 Br      
  34 H34           -2.4946     0.1398    -0.5277 H       
  35 H35           -1.5899    -2.1124    -0.1190 H       
  36 H36            2.3785    -0.6090    -0.6183 H       
  37 H37            1.4740     1.6442    -1.0223 H       
  38 H38           -2.7518     3.4628    -1.1746 H       
  39 H39           -2.9407     1.7852    -1.7386 H       
  40 H40           -2.8533     2.1335     0.0047 H       
  41 H41            2.7369    -2.6020    -1.1485 H       
  42 H42            2.8249    -2.2541     0.5949 H       
  43 H43            3.8264    -4.4613     0.0790 H       
  44 H44            2.8229    -3.9602    -2.5162 H       
  45 H45            0.3358    -8.0539    -1.4004 H       
  46 H46            3.1762    -6.6275     1.5859 H       
  47 H47            1.8763    -6.3280     2.7699 H       
  48 H48            0.1749    -6.5371     1.0932 H       
  49 H49            1.2781    -7.9069     0.8432 H       
  50 H50            1.9290    -2.5357     4.7129 H       
  51 H51            0.3951    -6.0438     2.7795 H       
  52 H52           -0.6430    -6.7437     4.8960 H       
  53 H53            0.8866    -3.2544     6.8210 H       
  54 H54            2.1249    -3.2186    -4.3468 H       
  55 H55            3.6354    -4.1562    -4.4341 H       
  56 H56            2.6763    -3.8746    -5.9069 H       
  57 H57           -0.5695    -9.2556    -4.4405 H       
  58 H58            0.4709    -9.3903    -3.0025 H       
  59 H59           -1.0405    -8.4535    -2.9230 H       
@<TRIPOS>BOND
   1    1    2 ar
   2    1    6 ar
   3    1   34 1
   4    2    3 ar
   5    2   35 1
   6    3    4 ar
   7    3    9 1
   8    4    5 ar
   9    4   36 1
  10    5    6 ar
  11    5   37 1
  12    6    7 1
  13    7    8 1
  14    8   38 1
  15    8   39 1
  16    8   40 1
  17    9   10 1
  18   10   11 1
  19   10   41 1
  20   10   42 1
  21   11   12 1
  22   11   13 1
  23   11   43 1
  24   12   19 1
  25   12   21 am
  26   13   14 ar
  27   13   15 ar
  28   14   16 ar
  29   14   20 1
  30   15   18 ar
  31   15   44 1
  32   16   17 ar
  33   16   45 1
  34   17   18 ar
  35   17   31 1
  36   18   29 1
  37   19   20 1
  38   19   46 1
  39   19   47 1
  40   20   48 1
  41   20   49 1
  42   21   22 2
  43   21   23 1
  44   23   24 ar
  45   23   25 ar
  46   24   28 ar
  47   24   50 1
  48   25   26 ar
  49   25   51 1
  50   26   27 ar
  51   26   52 1
  52   27   28 ar
  53   27   33 1
  54   28   53 1
  55   29   30 1
  56   30   54 1
  57   30   55 1
  58   30   56 1
  59   31   32 1
  60   32   57 1
  61   32   58 1
  62   32   59 1

#	End of record

