#	Name: ASD11000200
#	Creating user name:	WinNT
#	Creation time:	15. 06. 2019 21:28

#	Modifying user name:	WinNT
#	Modification time:	15. 06. 2019 21:28

#	Program:	/corina/corina34_cracker 3.40 0067  02.08.2006

@<TRIPOS>MOLECULE
ASD11000200
  42   45    0    0    0
SMALL
NO_CHARGES


@<TRIPOS>ATOM
   1 N1            -0.0131     1.3239     0.0290 N.ar    
   2 C2             0.0031    -0.0058     0.0219 C.ar    
   3 C3             1.2335    -0.6666     0.0271 C.ar    
   4 C4             2.3859     0.0941     0.0396 C.ar    
   5 N5             2.2881     1.4162     0.0461 N.ar    
   6 C6             1.1118     2.0100     0.0408 C.ar    
   7 N7            -1.1823    -0.7245     0.0099 N.pl3   
   8 C8            -2.4056    -0.0577     0.1307 C.ar    
   9 C9            -3.5258    -0.5332    -0.5380 C.ar    
  10 C10           -2.5034     1.0782     0.9245 C.ar    
  11 C11           -3.7123     1.7352     1.0424 C.ar    
  12 C12           -4.8264     1.2634     0.3708 C.ar    
  13 C13           -4.7337     0.1281    -0.4167 C.ar    
  14 Cl14          -6.3445     2.0917     0.5219 Cl      
  15 C15            3.7384    -0.5706     0.0461 C.3     
  16 O16            3.5717    -1.9898     0.0376 O.3     
  17 C17            4.7028    -2.7441     0.0421 C.ar    
  18 C18            5.9495    -2.1236     0.0545 C.ar    
  19 C19            7.1061    -2.8718     0.0597 C.ar    
  20 C20            7.0351    -4.2606     0.0525 C.ar    
  21 C21            5.7770    -4.8921     0.0399 C.ar    
  22 C22            4.6098    -4.1216     0.0401 C.ar    
  23 N23            8.1824    -5.0280     0.0564 N.am    
  24 C24            8.1164    -6.3707     0.0485 C.2     
  25 C25            6.8803    -7.0515     0.0355 C.2     
  26 C26            5.7169    -6.3550     0.0314 C.2     
  27 O27            9.1502    -7.0164     0.0523 O.2     
  28 Cl28          -6.1334    -0.4609    -1.2578 Cl      
  29 H29            1.2824    -1.7455     0.0219 H       
  30 H30            1.0684     3.0891     0.0461 H       
  31 H31           -1.1632    -1.6900    -0.0823 H       
  32 H32           -3.4534    -1.4184    -1.1524 H       
  33 H33           -1.6345     1.4470     1.4493 H       
  34 H34           -3.7883     2.6181     1.6598 H       
  35 H35            4.2976    -0.2651    -0.8382 H       
  36 H36            4.2845    -0.2742     0.9417 H       
  37 H37            6.0101    -1.0453     0.0598 H       
  38 H38            8.0677    -2.3801     0.0689 H       
  39 H39            3.6421    -4.6010     0.0309 H       
  40 H40            9.0489    -4.5921     0.0647 H       
  41 H41            6.8608    -8.1314     0.0290 H       
  42 H42            4.7666    -6.8681     0.0222 H       
@<TRIPOS>BOND
   1    1    2 ar
   2    1    6 ar
   3    2    3 ar
   4    2    7 1
   5    3    4 ar
   6    3   29 1
   7    4    5 ar
   8    4   15 1
   9    5    6 ar
  10    6   30 1
  11    7    8 1
  12    7   31 1
  13    8    9 ar
  14    8   10 ar
  15    9   13 ar
  16    9   32 1
  17   10   11 ar
  18   10   33 1
  19   11   12 ar
  20   11   34 1
  21   12   13 ar
  22   12   14 1
  23   13   28 1
  24   15   16 1
  25   15   35 1
  26   15   36 1
  27   16   17 1
  28   17   18 ar
  29   17   22 ar
  30   18   19 ar
  31   18   37 1
  32   19   20 ar
  33   19   38 1
  34   20   21 ar
  35   20   23 1
  36   21   22 ar
  37   21   26 1
  38   22   39 1
  39   23   24 am
  40   23   40 1
  41   24   25 1
  42   24   27 2
  43   25   26 2
  44   25   41 1
  45   26   42 1

#	End of record

