#	Name: ASD10160458
#	Creating user name:	WinNT
#	Creation time:	15. 06. 2019 21:26

#	Modifying user name:	WinNT
#	Modification time:	15. 06. 2019 21:26

#	Program:	/corina/corina34_cracker 3.40 0067  02.08.2006

@<TRIPOS>MOLECULE
ASD10160458
  27   28    0    0    0
SMALL
NO_CHARGES


@<TRIPOS>ATOM
   1 C1             4.5109     8.5889     0.8719 C.1     
   2 C2             3.3300     7.8080     0.6562 C.ar    
   3 C3             2.7080     7.1666     1.7310 C.ar    
   4 C4             1.5726     6.4165     1.5192 C.ar    
   5 C5             1.0454     6.2966     0.2387 C.ar    
   6 C6             1.6609     6.9328    -0.8329 C.ar    
   7 C7             2.7931     7.6899    -0.6288 C.ar    
   8 N8             5.4476     9.2083     1.0431 N.1     
   9 O9            -0.0733     5.5556     0.0341 O.3     
  10 C10           -2.4530     5.4432     0.0623 C.ar    
  11 C11           -1.2787     6.1732     0.1540 C.ar    
  12 C12           -1.3484     7.5466     0.3709 C.ar    
  13 C13           -2.5974     8.1330     0.4873 C.ar    
  14 C14           -3.7315     7.3366     0.3844 C.ar    
  15 N15           -3.6267     6.0349     0.1781 N.ar    
  16 O16           -4.9610     7.9015     0.4970 O.3     
  17 C17           -6.0881     7.0306     0.3822 C.3     
  18 Cl18          -2.7446     9.8414     0.7588 Cl      
  19 H19            3.1174     7.2588     2.7261 H       
  20 H20            1.0913     5.9206     2.3492 H       
  21 H21            1.2483     6.8368    -1.8263 H       
  22 H22            3.2682     8.1876    -1.4612 H       
  23 H23           -2.4071     4.3780    -0.1103 H       
  24 H24           -0.4496     8.1405     0.4470 H       
  25 H25           -6.0761     6.5476    -0.5948 H       
  26 H26           -6.0418     6.2717     1.1633 H       
  27 H27           -7.0061     7.6082     0.4908 H       
@<TRIPOS>BOND
   1    1    2 1
   2    1    8 3
   3    2    3 ar
   4    2    7 ar
   5    3    4 ar
   6    3   19 1
   7    4    5 ar
   8    4   20 1
   9    5    6 ar
  10    5    9 1
  11    6    7 ar
  12    6   21 1
  13    7   22 1
  14    9   11 1
  15   10   11 ar
  16   10   15 ar
  17   10   23 1
  18   11   12 ar
  19   12   13 ar
  20   12   24 1
  21   13   14 ar
  22   13   18 1
  23   14   15 ar
  24   14   16 1
  25   16   17 1
  26   17   25 1
  27   17   26 1
  28   17   27 1

#	End of record

