#	Name: ASD10420175
#	Creating user name:	WinNT
#	Creation time:	15. 06. 2019 21:27

#	Modifying user name:	WinNT
#	Modification time:	15. 06. 2019 21:27

#	Program:	/corina/corina34_cracker 3.40 0067  02.08.2006

@<TRIPOS>MOLECULE
ASD10420175
  35   36    0    0    0
SMALL
NO_CHARGES


@<TRIPOS>ATOM
   1 N1            -0.0169     1.3966     0.0097 N.pl3   
   2 N2             0.0021    -0.0041     0.0020 N.2     
   3 C3             1.2503    -0.3959    -0.0120 C.2     
   4 C4             2.0651     0.7410    -0.0137 C.2     
   5 C5             1.2612     1.8294    -0.0002 C.2     
   6 C6             1.7125     3.2672     0.0033 C.3     
   7 C7             1.7277    -1.8252    -0.0238 C.3     
   8 C8             3.5720     0.7518    -0.0276 C.3     
   9 C9             4.0686     0.7635    -1.4747 C.3     
  10 C10            5.5985     0.7745    -1.4888 C.3     
  11 O11            6.0624     0.7855    -2.8404 O.3     
  12 C12            7.4085     0.7961    -3.0309 C.ar    
  13 C13            7.9290     0.8071    -4.3191 C.ar    
  14 C14            9.2988     0.8185    -4.5092 C.ar    
  15 C15           10.1489     0.8188    -3.4183 C.ar    
  16 C16            9.6324     0.8079    -2.1363 C.ar    
  17 C17            8.2641     0.8019    -1.9403 C.ar    
  18 F18            7.0983     0.8063    -5.3845 F       
  19 H19           -0.8090     1.9566     0.0167 H       
  20 H20            1.8315     3.6083     1.0317 H       
  21 H21            2.6653     3.3503    -0.5196 H       
  22 H22            0.9671     3.8832    -0.4998 H       
  23 H23            1.8333    -2.1645    -1.0542 H       
  24 H24            2.6917    -1.8905     0.4808 H       
  25 H25            1.0035    -2.4545     0.4935 H       
  26 H26            3.9337     1.6415     0.4879 H       
  27 H27            3.9464    -0.1384     0.4779 H       
  28 H28            3.7069    -0.1262    -1.9902 H       
  29 H29            3.6942     1.6537    -1.9801 H       
  30 H30            5.9602     1.6642    -0.9733 H       
  31 H31            5.9729    -0.1157    -0.9834 H       
  32 H32            9.7048     0.8267    -5.5099 H       
  33 H33           11.2184     0.8273    -3.5685 H       
  34 H34           10.2989     0.8079    -1.2865 H       
  35 H35            7.8619     0.7978    -0.9380 H       
@<TRIPOS>BOND
   1    1    2 1
   2    1    5 1
   3    1   19 1
   4    2    3 2
   5    3    4 1
   6    3    7 1
   7    4    5 2
   8    4    8 1
   9    5    6 1
  10    6   20 1
  11    6   21 1
  12    6   22 1
  13    7   23 1
  14    7   24 1
  15    7   25 1
  16    8    9 1
  17    8   26 1
  18    8   27 1
  19    9   10 1
  20    9   28 1
  21    9   29 1
  22   10   11 1
  23   10   30 1
  24   10   31 1
  25   11   12 1
  26   12   13 ar
  27   12   17 ar
  28   13   14 ar
  29   13   18 1
  30   14   15 ar
  31   14   32 1
  32   15   16 ar
  33   15   33 1
  34   16   17 ar
  35   16   34 1
  36   17   35 1

#	End of record

