#	Name: ASD10950041
#	Creating user name:	WinNT
#	Creation time:	15. 06. 2019 21:28

#	Modifying user name:	WinNT
#	Modification time:	15. 06. 2019 21:28

#	Program:	/corina/corina34_cracker 3.40 0067  02.08.2006

@<TRIPOS>MOLECULE
ASD10950041
  62   66    0    0    0
SMALL
NO_CHARGES


@<TRIPOS>ATOM
   1 C1            -2.2852     1.2974     0.5007 C.3     
   2 O2            -1.8773    -0.0925     0.3998 O.3     
   3 C3            -1.0945    -0.4259    -0.6446 C.2     
   4 O4            -0.7616     0.4214    -1.4489 O.2     
   5 C5            -0.6407    -1.8218    -0.8116 C.ar    
   6 C6             0.1708    -2.1707    -1.8930 C.ar    
   7 C7             0.5909    -3.4760    -2.0430 C.ar    
   8 C8             0.2098    -4.4386    -1.1249 C.ar    
   9 C9            -0.5942    -4.0997    -0.0510 C.ar    
  10 C10           -1.0167    -2.7970     0.1142 C.ar    
  11 C11            0.6723    -5.8627    -1.2956 C.3     
  12 N12            1.2038    -6.3761    -0.0276 N.am    
  13 C13            2.3462    -5.8327     0.7112 C.3     
  14 C14            1.8575    -4.7674     1.6947 C.3     
  15 C15            3.0327    -4.2085     2.4547 C.2     
  16 C16            3.4693    -4.6107     3.6587 C.2     
  17 N17            4.5598    -3.8723     4.0299 N.pl3   
  18 C18            4.8590    -2.9536     3.0490 C.ar    
  19 C19            3.9191    -3.1275     2.0169 C.ar    
  20 C20            3.9789    -2.3229     0.8774 C.ar    
  21 C21            4.9516    -1.3694     0.7706 C.ar    
  22 C22            5.8818    -1.1941     1.7862 C.ar    
  23 C23            5.8432    -1.9791     2.9174 C.ar    
  24 C24            5.2986    -4.0347     5.2845 C.3     
  25 C25            0.4559    -7.4334     0.3367 C.2     
  26 O26            0.6255    -8.0942     1.3420 O.2     
  27 C27           -0.6031    -7.6720    -0.6669 C.2     
  28 C28           -0.4978    -6.7496    -1.6520 C.2     
  29 C29           -1.3542    -6.6334    -2.8360 C.2     
  30 O30           -2.5269    -6.3342    -2.7115 O.2     
  31 C31           -0.7929    -6.8797    -4.1815 C.ar    
  32 C32           -1.5884    -6.7270    -5.3240 C.ar    
  33 C33           -1.0147    -6.9692    -6.5596 C.ar    
  34 C34            0.3133    -7.3508    -6.6266 C.ar    
  35 N35            1.0394    -7.4868    -5.5330 N.ar    
  36 C36            0.5412    -7.2628    -4.3352 C.ar    
  37 O37           -1.5294    -8.6562    -0.6102 O.3     
  38 H38           -1.4016     1.9302     0.5833 H       
  39 H39           -2.8497     1.5759    -0.3891 H       
  40 H40           -2.9104     1.4293     1.3838 H       
  41 H41            0.4686    -1.4204    -2.6105 H       
  42 H42            1.2183    -3.7474    -2.8791 H       
  43 H43           -0.8882    -4.8560     0.6617 H       
  44 H44           -1.6442    -2.5337     0.9529 H       
  45 H45            1.4356    -5.9179    -2.0717 H       
  46 H46            2.8389    -6.6353     1.2601 H       
  47 H47            3.0517    -5.3848     0.0114 H       
  48 H48            1.3649    -3.9649     1.1458 H       
  49 H49            1.1520    -5.2153     2.3945 H       
  50 H50            3.0253    -5.3999     4.2474 H       
  51 H51            3.2590    -2.4540     0.0830 H       
  52 H52            4.9974    -0.7473    -0.1110 H       
  53 H53            6.6450    -0.4364     1.6871 H       
  54 H54            6.5713    -1.8351     3.7020 H       
  55 H55            6.1001    -4.7597     5.1430 H       
  56 H56            5.7240    -3.0763     5.5823 H       
  57 H57            4.6215    -4.3888     6.0618 H       
  58 H58           -2.6231    -6.4283    -5.2426 H       
  59 H59           -1.5978    -6.8619    -7.4623 H       
  60 H60            0.7633    -7.5408    -7.5898 H       
  61 H61            1.1671    -7.3845    -3.4636 H       
  62 H62           -1.4526    -9.2242     0.1686 H       
@<TRIPOS>BOND
   1    1    2 1
   2    1   38 1
   3    1   39 1
   4    1   40 1
   5    2    3 1
   6    3    4 2
   7    3    5 1
   8    5    6 ar
   9    5   10 ar
  10    6    7 ar
  11    6   41 1
  12    7    8 ar
  13    7   42 1
  14    8    9 ar
  15    8   11 1
  16    9   10 ar
  17    9   43 1
  18   10   44 1
  19   11   12 1
  20   11   28 1
  21   11   45 1
  22   12   13 1
  23   12   25 am
  24   13   14 1
  25   13   46 1
  26   13   47 1
  27   14   15 1
  28   14   48 1
  29   14   49 1
  30   15   16 2
  31   15   19 1
  32   16   17 1
  33   16   50 1
  34   17   18 1
  35   17   24 1
  36   18   19 ar
  37   18   23 ar
  38   19   20 ar
  39   20   21 ar
  40   20   51 1
  41   21   22 ar
  42   21   52 1
  43   22   23 ar
  44   22   53 1
  45   23   54 1
  46   24   55 1
  47   24   56 1
  48   24   57 1
  49   25   26 2
  50   25   27 1
  51   27   28 2
  52   27   37 1
  53   28   29 1
  54   29   30 2
  55   29   31 1
  56   31   32 ar
  57   31   36 ar
  58   32   33 ar
  59   32   58 1
  60   33   34 ar
  61   33   59 1
  62   34   35 ar
  63   34   60 1
  64   35   36 ar
  65   36   61 1
  66   37   62 1

#	End of record

