#	Name: ASD13500002
#	Creating user name:	WinNT
#	Creation time:	15. 06. 2019 21:30

#	Modifying user name:	WinNT
#	Modification time:	15. 06. 2019 21:30

#	Program:	/corina/corina34_cracker 3.40 0067  02.08.2006

@<TRIPOS>MOLECULE
ASD13500002
  30   32    0    0    0
SMALL
NO_CHARGES


@<TRIPOS>ATOM
   1 C1             1.0196     2.0414    -1.8484 C.ar    
   2 C2             0.9831     2.0136    -3.2286 C.ar    
   3 C3             1.0376     3.1934    -3.9476 C.ar    
   4 C4             1.1285     4.4068    -3.2862 C.ar    
   5 C5             1.1650     4.4406    -1.9037 C.ar    
   6 C6             1.1108     3.2565    -1.1807 C.ar    
   7 N7             1.1479     3.2867     0.2152 N.am    
   8 S8             2.2619     4.2330     0.9936 S.o2    
   9 O9             2.1366     5.5365     0.4419 O.2     
  10 O10            2.1214     3.9594     2.3809 O.2     
  11 C11            3.8581     3.6479     0.5302 C.ar    
  12 C12            5.6758     2.1184     0.8506 C.ar    
  13 C13            4.4248     2.5833     1.2084 C.ar    
  14 C14            4.5354     4.2507    -0.5123 C.ar    
  15 C15            6.3634     2.7215    -0.1905 C.ar    
  16 N16            7.6076     2.4913    -0.7769 N.am    
  17 C17            5.7905     3.7915    -0.8783 C.ar    
  18 O18            6.6719     4.1732    -1.8349 O.3     
  19 C19            7.7601     3.3900    -1.7696 C.2     
  20 O20            8.7331     3.4782    -2.4936 O.2     
  21 F21            1.1820     5.5579    -3.9915 F       
  22 H22            0.9729     1.1193    -1.2881 H       
  23 H23            0.9122     1.0689    -3.7472 H       
  24 H24            1.0095     3.1686    -5.0269 H       
  25 H25            1.2363     5.3866    -1.3876 H       
  26 H26            0.5212     2.7534     0.7287 H       
  27 H27            6.1169     1.2876     1.3812 H       
  28 H28            3.8880     2.1145     2.0198 H       
  29 H29            4.0870     5.0785    -1.0415 H       
  30 H30            8.2448     1.8064    -0.5203 H       
@<TRIPOS>BOND
   1    1    2 ar
   2    1    6 ar
   3    1   22 1
   4    2    3 ar
   5    2   23 1
   6    3    4 ar
   7    3   24 1
   8    4    5 ar
   9    4   21 1
  10    5    6 ar
  11    5   25 1
  12    6    7 1
  13    7    8 am
  14    7   26 1
  15    8    9 2
  16    8   10 2
  17    8   11 1
  18   11   14 ar
  19   11   13 ar
  20   12   13 ar
  21   12   15 ar
  22   12   27 1
  23   13   28 1
  24   14   17 ar
  25   14   29 1
  26   15   17 ar
  27   15   16 1
  28   16   19 am
  29   16   30 1
  30   17   18 1
  31   18   19 1
  32   19   20 2

#	End of record

