#	Name: ASD10220041
#	Creating user name:	WinNT
#	Creation time:	15. 06. 2019 21:26

#	Modifying user name:	WinNT
#	Modification time:	15. 06. 2019 21:26

#	Program:	/corina/corina34_cracker 3.40 0067  02.08.2006

@<TRIPOS>MOLECULE
ASD10220041
  32   35    0    0    0
SMALL
NO_CHARGES


@<TRIPOS>ATOM
   1 C1             0.0031     1.5128     0.3983 C.2     
   2 C2             0.0486     0.2189     0.9684 C.2     
   3 C3            -1.0797    -0.4339     1.3274 C.2     
   4 C4            -2.4067     0.1543     1.1487 C.2     
   5 C5            -2.5350     1.4190     0.5967 C.2     
   6 C6            -1.3330     2.1684     0.1979 C.2     
   7 O7            -3.6435    -0.3004     1.4262 O.3     
   8 C8            -4.5774     0.5913     1.0889 C.2     
   9 C9            -3.9738     1.7013     0.5603 C.2     
  10 O10           -1.4193     3.2767    -0.2874 O.2     
  11 O11            1.0268     2.0854     0.0813 O.2     
  12 C12           -4.6313     2.9215     0.0601 C.2     
  13 O13           -3.9608     3.8768    -0.2828 O.2     
  14 C14           -6.1031     2.9846    -0.0248 C.ar    
  15 C15           -6.7645     4.2113     0.0967 C.ar    
  16 C16           -8.1340     4.2602     0.0159 C.ar    
  17 C17           -8.8813     3.1017    -0.1782 C.ar    
  18 C18           -8.2190     1.8789    -0.3033 C.ar    
  19 C19           -6.8477     1.8195    -0.2332 C.ar    
  20 Cl20           1.5869    -0.5479     1.2119 Cl      
  21 Cl21          -0.9491    -2.0198     2.0214 Cl      
  22 C22           -9.1157     5.4141     0.0890 C.3     
  23 C23          -10.4044     4.7737    -0.4787 C.3     
  24 O24          -10.2131     3.3755    -0.2045 O.3     
  25 H25           -5.6420     0.4583     1.2130 H       
  26 H26           -6.1989     5.1178     0.2541 H       
  27 H27           -8.7879     0.9743    -0.4600 H       
  28 H28           -6.3443     0.8690    -0.3314 H       
  29 H29           -9.2623     5.7360     1.1200 H       
  30 H30           -8.7867     6.2456    -0.5342 H       
  31 H31          -11.2847     5.1521     0.0407 H       
  32 H32          -10.4825     4.9495    -1.5516 H       
@<TRIPOS>BOND
   1    1    2 1
   2    1   11 2
   3    1    6 1
   4    2    3 2
   5    2   20 1
   6    3    4 1
   7    3   21 1
   8    4    5 2
   9    4    7 1
  10    5    6 1
  11    5    9 1
  12    6   10 2
  13    7    8 1
  14    8    9 2
  15    8   25 1
  16    9   12 1
  17   12   13 2
  18   12   14 1
  19   14   15 ar
  20   14   19 ar
  21   15   16 ar
  22   15   26 1
  23   16   17 ar
  24   16   22 1
  25   17   18 ar
  26   17   24 1
  27   18   19 ar
  28   18   27 1
  29   19   28 1
  30   22   23 1
  31   22   29 1
  32   22   30 1
  33   23   24 1
  34   23   31 1
  35   23   32 1

#	End of record

