#	Name: ASD11030046
#	Creating user name:	WinNT
#	Creation time:	15. 06. 2019 21:29

#	Modifying user name:	WinNT
#	Modification time:	15. 06. 2019 21:29

#	Program:	/corina/corina34_cracker 3.40 0067  02.08.2006

@<TRIPOS>MOLECULE
ASD11030046
  84   89    0    0    0
SMALL
NO_CHARGES


@<TRIPOS>ATOM
   1 C1             3.1276     4.7170    -6.4873 C.ar    
   2 C2             2.0803     3.8469    -6.2191 C.ar    
   3 C3             2.0573     3.1618    -5.0175 C.ar    
   4 N4             3.0142     3.3246    -4.1275 N.ar    
   5 C5             4.0342     4.1475    -4.3448 C.ar    
   6 C6             4.1203     4.8698    -5.5352 C.ar    
   7 C7             5.0861     4.2991    -3.3171 C.2     
   8 C8             5.4634     3.3414    -2.4329 C.2     
   9 C9             6.4939     3.8798    -1.6249 C.ar    
  10 C10            6.7122     5.2000    -2.0683 C.ar    
  11 N11            5.8400     5.4308    -3.1112 N.pl3   
  12 C12            7.2529     3.3631    -0.5650 C.ar    
  13 C13            8.1991     4.1357     0.0352 C.ar    
  14 C14            8.4234     5.4503    -0.3992 C.ar    
  15 C15            7.6786     5.9795    -1.4506 C.ar    
  16 C16            5.7281     6.6797    -3.8690 C.3     
  17 C17            4.8882     1.9523    -2.3293 C.3     
  18 C18            9.4527     6.2767     0.2609 C.2     
  19 N19           10.1748     5.7678     1.2788 N.am    
  20 O20            9.6493     7.4167    -0.1135 O.2     
  21 C21           11.2713     6.5462     1.8601 C.3     
  22 C22           10.7981     7.8014     2.5468 C.2     
  23 N23            9.6001     7.8211     3.1640 N.am    
  24 O24           11.4952     8.7938     2.5439 O.2     
  25 C25            9.1868     8.9641     3.8480 C.ar    
  26 C26            8.5028     8.8396     5.0524 C.ar    
  27 C27            8.0893     9.9668     5.7365 C.ar    
  28 C28            8.3624    11.2428     5.2114 C.ar    
  29 C29            9.0552    11.3595     3.9928 C.ar    
  30 C30            9.4660    10.2218     3.3246 C.ar    
  31 C31           12.2397     5.7068     2.7100 C.3     
  32 C32           13.3774     6.5357     2.0908 C.3     
  33 C33           12.4430     6.7783     0.8915 C.3     
  34 C34            7.9277    12.4426     5.9289 C.2     
  35 C35            8.8067    13.4460     6.1658 C.2     
  36 C36            5.9923     0.9059    -2.5609 C.3     
  37 C37            6.0800     0.0649    -1.2706 C.3     
  38 C38            4.6863     0.2286    -0.6150 C.3     
  39 C39            4.3434     1.7107    -0.9064 C.3     
  40 O40            9.3234    12.5857     3.4773 O.3     
  41 C41           10.0306    12.6271     2.2363 C.3     
  42 O42            7.4213     9.8431     6.9110 O.3     
  43 C43            7.1790     8.5162     7.3829 C.3     
  44 C44            8.3870    14.6045     6.8586 C.2     
  45 O45            7.2360    14.7006     7.2423 O.2     
  46 O46            9.2627    15.6042     7.0945 O.3     
  47 H47            3.1694     5.2595    -7.4202 H       
  48 H48            1.2902     3.7062    -6.9418 H       
  49 H49            1.2432     2.4844    -4.8063 H       
  50 H50            4.9498     5.5387    -5.7112 H       
  51 H51            7.0864     2.3518    -0.2246 H       
  52 H52            8.7809     3.7340     0.8516 H       
  53 H53            7.8528     6.9922    -1.7831 H       
  54 H54            6.3245     6.6075    -4.7784 H       
  55 H55            4.6845     6.8530    -4.1317 H       
  56 H56            6.0919     7.5076    -3.2606 H       
  57 H57            4.0915     1.8229    -3.0619 H       
  58 H58            9.9685     4.8860     1.6265 H       
  59 H59            9.0254     7.0403     3.1326 H       
  60 H60            8.2940     7.8591     5.4541 H       
  61 H61            9.9981    10.3096     2.3888 H       
  62 H62           12.1229     5.8586     3.7831 H       
  63 H63           12.2651     4.6534     2.4308 H       
  64 H64           13.6120     7.4414     2.6500 H       
  65 H65           14.2618     5.9480     1.8446 H       
  66 H66           12.5235     6.0181     0.1145 H       
  67 H67           12.4920     7.7937     0.4983 H       
  68 H68            6.9064    12.5279     6.2694 H       
  69 H69            9.8281    13.3608     5.8253 H       
  70 H70            5.7311     0.2681    -3.4052 H       
  71 H71            6.9442     1.4028    -2.7481 H       
  72 H72            6.2687    -0.9817    -1.5095 H       
  73 H73            6.8584     0.4536    -0.6140 H       
  74 H74            3.9591    -0.4352    -1.0826 H       
  75 H75            4.7409     0.0486     0.4587 H       
  76 H76            4.8414     2.3652    -0.1910 H       
  77 H77            3.2648     1.8651    -0.8795 H       
  78 H78           10.9988    12.1405     2.3534 H       
  79 H79            9.4531    12.1078     1.4715 H       
  80 H80           10.1792    13.6647     1.9373 H       
  81 H81            6.5841     7.9725     6.6490 H       
  82 H82            8.1297     8.0041     7.5313 H       
  83 H83            6.6383     8.5599     8.3284 H       
  84 H84            8.8841    16.3537     7.5741 H       
@<TRIPOS>BOND
   1    1    2 ar
   2    1    6 ar
   3    1   47 1
   4    2    3 ar
   5    2   48 1
   6    3    4 ar
   7    3   49 1
   8    4    5 ar
   9    5    6 ar
  10    5    7 1
  11    6   50 1
  12    7    8 2
  13    7   11 1
  14    8    9 1
  15    8   17 1
  16    9   10 ar
  17    9   12 ar
  18   10   11 1
  19   10   15 ar
  20   11   16 1
  21   12   13 ar
  22   12   51 1
  23   13   14 ar
  24   13   52 1
  25   14   15 ar
  26   14   18 1
  27   15   53 1
  28   16   54 1
  29   16   55 1
  30   16   56 1
  31   17   36 1
  32   17   39 1
  33   17   57 1
  34   18   19 am
  35   18   20 2
  36   19   21 1
  37   19   58 1
  38   21   22 1
  39   21   31 1
  40   21   33 1
  41   22   23 am
  42   22   24 2
  43   23   25 1
  44   23   59 1
  45   25   26 ar
  46   25   30 ar
  47   26   27 ar
  48   26   60 1
  49   27   28 ar
  50   27   42 1
  51   28   29 ar
  52   28   34 1
  53   29   30 ar
  54   29   40 1
  55   30   61 1
  56   31   32 1
  57   31   62 1
  58   31   63 1
  59   32   33 1
  60   32   64 1
  61   32   65 1
  62   33   66 1
  63   33   67 1
  64   34   35 2
  65   34   68 1
  66   35   44 1
  67   35   69 1
  68   36   37 1
  69   36   70 1
  70   36   71 1
  71   37   38 1
  72   37   72 1
  73   37   73 1
  74   38   39 1
  75   38   74 1
  76   38   75 1
  77   39   76 1
  78   39   77 1
  79   40   41 1
  80   41   78 1
  81   41   79 1
  82   41   80 1
  83   42   43 1
  84   43   81 1
  85   43   82 1
  86   43   83 1
  87   44   45 2
  88   44   46 1
  89   46   84 1

#	End of record

