#	Name: ASD10950057
#	Creating user name:	WinNT
#	Creation time:	15. 06. 2019 21:28

#	Modifying user name:	WinNT
#	Modification time:	15. 06. 2019 21:28

#	Program:	/corina/corina34_cracker 3.40 0067  02.08.2006

@<TRIPOS>MOLECULE
ASD10950057
  56   60    0    0    0
SMALL
NO_CHARGES


@<TRIPOS>ATOM
   1 C1             1.5447     1.3359     1.6778 C.3     
   2 O2             1.2890    -0.0641     1.3897 O.3     
   3 C3             0.0023    -0.4314     1.2340 C.2     
   4 O4            -0.8819     0.3953     1.3361 O.2     
   5 C5            -0.3335    -1.8394     0.9390 C.ar    
   6 C6            -1.6661    -2.2235     0.7770 C.ar    
   7 C7            -1.9725    -3.5400     0.5018 C.ar    
   8 C8            -0.9629    -4.4790     0.3862 C.ar    
   9 C9             0.3598    -4.1053     0.5455 C.ar    
  10 C10            0.6807    -2.7911     0.8153 C.ar    
  11 C11           -1.3054    -5.9155     0.0858 C.3     
  12 N12           -0.4585    -6.4194    -1.0017 N.am    
  13 C13           -0.4019    -5.8893    -2.3662 C.3     
  14 C14            0.6505    -4.8134    -2.4439 C.2     
  15 C15            0.4411    -3.4878    -2.4127 C.2     
  16 N16            1.6344    -2.8248    -2.5057 N.pl3   
  17 C17            2.6669    -3.7306    -2.6015 C.ar    
  18 C18            2.0966    -5.0158    -2.5615 C.ar    
  19 C19            2.9154    -6.1441    -2.6398 C.ar    
  20 C20            4.2684    -5.9936    -2.7550 C.ar    
  21 C21            4.8363    -4.7273    -2.7945 C.ar    
  22 C22            4.0474    -3.6008    -2.7153 C.ar    
  23 C23            0.2567    -7.4540    -0.5242 C.2     
  24 O24            1.0601    -8.1013    -1.1656 O.2     
  25 C25           -0.0791    -7.6863     0.8970 C.2     
  26 C26           -1.0090    -6.7823     1.2873 C.2     
  27 C27           -1.6109    -6.6669     2.6180 C.2     
  28 O28           -0.9267    -6.3392     3.5686 O.2     
  29 C29           -3.0531    -6.9493     2.8056 C.ar    
  30 C30           -3.6557    -6.8098     4.0603 C.ar    
  31 C31           -5.0033    -7.0832     4.1899 C.ar    
  32 N32           -5.7184    -7.4703     3.1522 N.ar    
  33 C33           -5.1904    -7.6144     1.9529 C.ar    
  34 C34           -3.8515    -7.3573     1.7319 C.ar    
  35 O35            0.4564    -8.6488     1.6818 O.3     
  36 H36            2.6181     1.4957     1.7793 H       
  37 H37            1.1612     1.9504     0.8633 H       
  38 H38            1.0467     1.6124     2.6071 H       
  39 H39           -2.4551    -1.4916     0.8674 H       
  40 H40           -3.0029    -3.8385     0.3766 H       
  41 H41            1.1430    -4.8433     0.4543 H       
  42 H42            1.7135    -2.5006     0.9394 H       
  43 H43           -2.3570    -6.0002    -0.1882 H       
  44 H44           -0.1513    -6.6933    -3.0582 H       
  45 H45           -1.3715    -5.4691    -2.6333 H       
  46 H46           -0.5260    -3.0148    -2.3273 H       
  47 H47            1.7376    -1.8603    -2.5046 H       
  48 H48            2.4808    -7.1323    -2.6091 H       
  49 H49            4.9013    -6.8666    -2.8156 H       
  50 H50            5.9075    -4.6245    -2.8855 H       
  51 H51            4.4987    -2.6201    -2.7469 H       
  52 H52           -3.0759    -6.4934     4.9148 H       
  53 H53           -5.4776    -6.9787     5.1545 H       
  54 H54           -5.8141    -7.9338     1.1312 H       
  55 H55           -3.4257    -7.4771     0.7466 H       
  56 H56            1.1074    -9.2054     1.2328 H       
@<TRIPOS>BOND
   1    1    2 1
   2    1   36 1
   3    1   37 1
   4    1   38 1
   5    2    3 1
   6    3    4 2
   7    3    5 1
   8    5    6 ar
   9    5   10 ar
  10    6    7 ar
  11    6   39 1
  12    7    8 ar
  13    7   40 1
  14    8    9 ar
  15    8   11 1
  16    9   10 ar
  17    9   41 1
  18   10   42 1
  19   11   12 1
  20   11   26 1
  21   11   43 1
  22   12   13 1
  23   12   23 am
  24   13   14 1
  25   13   44 1
  26   13   45 1
  27   14   15 2
  28   14   18 1
  29   15   16 1
  30   15   46 1
  31   16   17 1
  32   16   47 1
  33   17   18 ar
  34   17   22 ar
  35   18   19 ar
  36   19   20 ar
  37   19   48 1
  38   20   21 ar
  39   20   49 1
  40   21   22 ar
  41   21   50 1
  42   22   51 1
  43   23   24 2
  44   23   25 1
  45   25   26 2
  46   25   35 1
  47   26   27 1
  48   27   28 2
  49   27   29 1
  50   29   30 ar
  51   29   34 ar
  52   30   31 ar
  53   30   52 1
  54   31   32 ar
  55   31   53 1
  56   32   33 ar
  57   33   34 ar
  58   33   54 1
  59   34   55 1
  60   35   56 1

#	End of record

