#	Name: ASD11000206
#	Creating user name:	WinNT
#	Creation time:	15. 06. 2019 21:28

#	Modifying user name:	WinNT
#	Modification time:	15. 06. 2019 21:28

#	Program:	/corina/corina34_cracker 3.40 0067  02.08.2006

@<TRIPOS>MOLECULE
ASD11000206
  49   53    0    0    0
SMALL
NO_CHARGES


@<TRIPOS>ATOM
   1 N1             0.1467     1.2044    -0.3052 N.ar    
   2 C2             0.0245    -0.1142    -0.2607 C.ar    
   3 N3             1.0844    -0.9076    -0.2062 N.ar    
   4 C4             2.3069    -0.4028    -0.1946 C.ar    
   5 C5             2.4709     0.9729    -0.2401 C.ar    
   6 C6             1.3407     1.7734    -0.2965 C.ar    
   7 N7            -1.2411    -0.6766    -0.2709 N.pl3   
   8 C8            -1.3889    -2.0669    -0.3503 C.ar    
   9 C9            -2.4361    -2.6931     0.3127 C.ar    
  10 C10           -0.4918    -2.8194    -1.0967 C.ar    
  11 C11           -0.6385    -4.1903    -1.1748 C.ar    
  12 C12           -1.6820    -4.8156    -0.5084 C.ar    
  13 C13           -2.5814    -4.0642     0.2335 C.ar    
  14 O14           -1.8261    -6.1656    -0.5862 O.3     
  15 C15            3.8480     1.5848    -0.2280 C.3     
  16 C16            4.4229     2.0039     1.1265 C.3     
  17 C17            3.5688     1.7731     2.3464 C.ar    
  18 C18            3.2615     0.4768     2.7356 C.ar    
  19 C19            2.4820     0.2424     3.8480 C.ar    
  20 C20            1.9978     1.3146     4.5897 C.ar    
  21 C21            2.3120     2.6281     4.1921 C.ar    
  22 C22            3.1085     2.8418     3.0627 C.ar    
  23 N23            1.2156     1.1091     5.7063 N.am    
  24 C24            0.7473     2.1460     6.4228 C.2     
  25 C25            1.0332     3.4815     6.0670 C.2     
  26 C26            1.7975     3.7500     4.9796 C.2     
  27 O27            0.0583     1.9271     7.4041 O.2     
  28 C28           -2.9228    -6.7431     0.1250 C.3     
  29 F29           -2.7971    -6.4565     1.4885 F       
  30 F30           -4.1232    -6.2086    -0.3552 F       
  31 C31            4.9768     0.7716     0.4085 C.3     
  32 H32            3.1669    -1.0546    -0.1498 H       
  33 H33            1.4339     2.8488    -0.3333 H       
  34 H34           -2.0251    -0.1074    -0.2230 H       
  35 H35           -3.1365    -2.1082     0.8904 H       
  36 H36            0.3203    -2.3326    -1.6162 H       
  37 H37            0.0592    -4.7757    -1.7553 H       
  38 H38           -3.3936    -4.5518     0.7522 H       
  39 H39            4.0964     2.2005    -1.0925 H       
  40 H40            5.0496     2.8953     1.1531 H       
  41 H41            3.6368    -0.3569     2.1607 H       
  42 H42            2.2478    -0.7701     4.1423 H       
  43 H43            3.3524     3.8474     2.7535 H       
  44 H44            0.9998     0.2035     5.9787 H       
  45 H45            0.6418     4.2927     6.6630 H       
  46 H46            2.0217     4.7690     4.7005 H       
  47 H47           -2.9220    -7.8233    -0.0208 H       
  48 H48            4.7235    -0.2061     0.8185 H       
  49 H49            5.9683     0.8521    -0.0372 H       
@<TRIPOS>BOND
   1    1    2 ar
   2    1    6 ar
   3    2    3 ar
   4    2    7 1
   5    3    4 ar
   6    4    5 ar
   7    4   32 1
   8    5    6 ar
   9    5   15 1
  10    6   33 1
  11    7    8 1
  12    7   34 1
  13    8    9 ar
  14    8   10 ar
  15    9   13 ar
  16    9   35 1
  17   10   11 ar
  18   10   36 1
  19   11   12 ar
  20   11   37 1
  21   12   13 ar
  22   12   14 1
  23   13   38 1
  24   14   28 1
  25   15   16 1
  26   15   31 1
  27   15   39 1
  28   16   17 1
  29   16   31 1
  30   16   40 1
  31   17   18 ar
  32   17   22 ar
  33   18   19 ar
  34   18   41 1
  35   19   20 ar
  36   19   42 1
  37   20   21 ar
  38   20   23 1
  39   21   22 ar
  40   21   26 1
  41   22   43 1
  42   23   24 am
  43   23   44 1
  44   24   25 1
  45   24   27 2
  46   25   26 2
  47   25   45 1
  48   26   46 1
  49   28   29 1
  50   28   30 1
  51   28   47 1
  52   31   48 1
  53   31   49 1

#	End of record

