#	Name: ASD13730001
#	Creating user name:	WinNT
#	Creation time:	15. 06. 2019 21:30

#	Modifying user name:	WinNT
#	Modification time:	15. 06. 2019 21:30

#	Program:	/corina/corina34_cracker 3.40 0067  02.08.2006

@<TRIPOS>MOLECULE
ASD13730001
  43   44    0    0    0
SMALL
NO_CHARGES


@<TRIPOS>ATOM
   1 S1            -0.2566     1.2315    -0.1698 S.o2    
   2 O2            -2.6433     0.3575     4.2575 O.3     
   3 O3            -1.0304     4.0175     0.5002 O.3     
   4 O4            -0.1516    -0.1822    -0.0713 O.2     
   5 O5             0.8709     2.0881    -0.2887 O.2     
   6 N6            -1.2177     1.5387    -1.4829 N.am    
   7 N7            -0.9953    -2.8367     4.0894 N.ar    
   8 N8            -3.1148    -3.0306     3.1824 N.ar    
   9 N9            -0.1853    -0.7954     4.9488 N.pl3   
  10 N10           -1.7148    -4.8999     3.2597 N.pl3   
  11 C11           -3.2819     3.0681     4.7252 C.3     
  12 C12           -2.5264     2.6111     3.5040 C.ar    
  13 C13           -2.2418     1.2645     3.3278 C.ar    
  14 C14           -2.1230     3.5316     2.5569 C.ar    
  15 C15           -1.1389     1.7657     1.2588 C.ar    
  16 C16           -2.4238     4.0587     5.5147 C.3     
  17 C17           -4.5823     3.7497     4.2950 C.3     
  18 C18           -1.4280     3.1109     1.4325 C.ar    
  19 C19           -1.5472     0.8439     2.2032 C.ar    
  20 C20           -2.4092    -0.9597     4.0079 C.ar    
  21 C21           -1.3625     5.3860     0.7432 C.3     
  22 C22           -1.1850    -1.5476     4.3491 C.ar    
  23 C23           -3.3760    -1.7510     3.4108 C.ar    
  24 C24           -1.9473    -3.5577     3.5166 C.ar    
  25 H25           -2.0907     1.9436    -1.3608 H       
  26 H26           -0.9078     1.3137    -2.3741 H       
  27 H27            0.6601    -1.2101     5.1818 H       
  28 H28           -0.3317     0.1452     5.1351 H       
  29 H29           -0.8637    -5.2992     3.4990 H       
  30 H30           -2.4031    -5.4399     2.8407 H       
  31 H31           -3.5132     2.2073     5.3526 H       
  32 H32           -2.3484     4.5792     2.6918 H       
  33 H33           -2.1925     4.9195     4.8873 H       
  34 H34           -2.9702     4.3893     6.3980 H       
  35 H35           -1.4973     3.5731     5.8212 H       
  36 H36           -4.3510     4.6105     3.6676 H       
  37 H37           -5.1936     3.0440     3.7326 H       
  38 H38           -5.1287     4.0803     5.1783 H       
  39 H39           -1.3253    -0.2042     2.0661 H       
  40 H40           -2.4454     5.4907     0.8105 H       
  41 H41           -0.9073     5.7097     1.6793 H       
  42 H42           -0.9881     6.0015    -0.0747 H       
  43 H43           -4.3316    -1.3306     3.1340 H       
@<TRIPOS>BOND
   1    1    4 2
   2    1    5 2
   3    1    6 am
   4    1   15 1
   5    2   13 1
   6    2   20 1
   7    3   21 1
   8    3   18 1
   9    6   25 1
  10    6   26 1
  11    7   22 ar
  12    7   24 ar
  13    8   23 ar
  14    8   24 ar
  15    9   27 1
  16    9   28 1
  17    9   22 1
  18   10   24 1
  19   10   29 1
  20   10   30 1
  21   11   16 1
  22   11   12 1
  23   11   17 1
  24   11   31 1
  25   12   14 ar
  26   12   13 ar
  27   13   19 ar
  28   14   18 ar
  29   14   32 1
  30   15   18 ar
  31   15   19 ar
  32   16   33 1
  33   16   34 1
  34   16   35 1
  35   17   36 1
  36   17   37 1
  37   17   38 1
  38   19   39 1
  39   20   22 ar
  40   20   23 ar
  41   21   40 1
  42   21   41 1
  43   21   42 1
  44   23   43 1

#	End of record

