#	Name: ASD15280009
#	Creating user name:	WinNT
#	Creation time:	15. 06. 2019 21:31

#	Modifying user name:	WinNT
#	Modification time:	15. 06. 2019 21:31

#	Program:	/corina/corina34_cracker 3.40 0067  02.08.2006

@<TRIPOS>MOLECULE
ASD15280009
  54   58    0    0    0
SMALL
NO_CHARGES


@<TRIPOS>ATOM
   1 O1             0.0021    -0.0041     0.0020 O.2     
   2 C2            -0.0144     1.2113     0.0087 C.2     
   3 N3             1.1435     1.9010     0.0013 N.am    
   4 C4             2.4220     1.1859    -0.0147 C.3     
   5 C5             3.5540     2.1806    -0.0202 C.ar    
   6 C6             4.0648     2.6536    -1.2202 C.ar    
   7 C7             5.1048     3.5667    -1.1816 C.ar    
   8 C8             5.6000     3.9768     0.0545 C.ar    
   9 N9             5.0834     3.4997     1.1799 N.ar    
  10 C10            4.0899     2.6352     1.1714 C.ar    
  11 C11            6.7136     4.9541     0.1129 C.ar    
  12 C12            7.2569     5.4630    -1.0669 C.ar    
  13 C13            8.2906     6.3708    -1.0140 C.ar    
  14 C14            8.7956     6.7824     0.2222 C.ar    
  15 C15            8.2505     6.2719     1.4033 C.ar    
  16 C16            7.2133     5.3682     1.3477 C.ar    
  17 C17            9.8711     7.7262     0.2786 C.1     
  18 N18           10.7243     8.4749     0.3234 N.1     
  19 C19           -1.3048     1.9331     0.0187 C.ar    
  20 C20           -1.3247     3.3288     0.0207 C.ar    
  21 C21           -2.5338     3.9938     0.0241 C.ar    
  22 C22           -3.7203     3.2857     0.0311 C.ar    
  23 C23           -3.7195     1.8972     0.0390 C.ar    
  24 N24           -4.8900     1.1617     0.0714 N.am    
  25 C25           -6.0033     1.2808    -0.6003 C.2     
  26 O26           -6.8487     0.4427    -0.3537 O.2     
  27 C27           -6.3849     2.2740    -1.6061 C.ar    
  28 C28           -7.0472     1.8631    -2.7694 C.ar    
  29 C29           -7.4172     2.7905    -3.7191 C.ar    
  30 C30           -7.1380     4.1325    -3.5321 C.ar    
  31 C31           -6.4811     4.5498    -2.3870 C.ar    
  32 C32           -6.1052     3.6307    -1.4332 C.ar    
  33 S33           -5.2550     4.1580     0.0195 S.o2    
  34 O34           -6.0044     3.6735     1.1254 O.2     
  35 O35           -4.9393     5.5302    -0.1716 O.2     
  36 C36           -2.5015     1.2215     0.0206 C.ar    
  37 H37            1.1303     2.8709     0.0067 H       
  38 H38            2.4967     0.5553     0.8712 H       
  39 H39            2.4797     0.5648    -0.9086 H       
  40 H40            3.6604     2.3169    -2.1633 H       
  41 H41            5.5266     3.9553    -2.0968 H       
  42 H42            3.6915     2.2723     2.1074 H       
  43 H43            6.8666     5.1444    -2.0222 H       
  44 H44            8.7112     6.7643    -1.9276 H       
  45 H45            8.6402     6.5890     2.3593 H       
  46 H46            6.7891     4.9766     2.2605 H       
  47 H47           -0.3990     3.8851     0.0198 H       
  48 H48           -2.5529     5.0737     0.0216 H       
  49 H49           -4.8826     0.4273     0.7050 H       
  50 H50           -7.2688     0.8172    -2.9225 H       
  51 H51           -7.9276     2.4679    -4.6145 H       
  52 H52           -7.4321     4.8545    -4.2794 H       
  53 H53           -6.2633     5.5976    -2.2417 H       
  54 H54           -2.4853     0.1417     0.0118 H       
@<TRIPOS>BOND
   1    1    2 2
   2    2    3 am
   3    2   19 1
   4    3    4 1
   5    3   37 1
   6    4    5 1
   7    4   38 1
   8    4   39 1
   9    5   10 ar
  10    5    6 ar
  11    6    7 ar
  12    6   40 1
  13    7    8 ar
  14    7   41 1
  15    8    9 ar
  16    8   11 1
  17    9   10 ar
  18   10   42 1
  19   11   16 ar
  20   11   12 ar
  21   12   13 ar
  22   12   43 1
  23   13   14 ar
  24   13   44 1
  25   14   15 ar
  26   14   17 1
  27   15   16 ar
  28   15   45 1
  29   16   46 1
  30   17   18 3
  31   19   36 ar
  32   19   20 ar
  33   20   21 ar
  34   20   47 1
  35   21   22 ar
  36   21   48 1
  37   22   33 1
  38   22   23 ar
  39   23   24 1
  40   23   36 ar
  41   24   25 am
  42   24   49 1
  43   25   26 2
  44   25   27 1
  45   27   32 ar
  46   27   28 ar
  47   28   29 ar
  48   28   50 1
  49   29   30 ar
  50   29   51 1
  51   30   31 ar
  52   30   52 1
  53   31   32 ar
  54   31   53 1
  55   32   33 1
  56   33   34 2
  57   33   35 2
  58   36   54 1

#	End of record

