#	Name: ASD10160252
#	Creating user name:	WinNT
#	Creation time:	15. 06. 2019 21:25

#	Modifying user name:	WinNT
#	Modification time:	15. 06. 2019 21:25

#	Program:	/corina/corina34_cracker 3.40 0067  02.08.2006

@<TRIPOS>MOLECULE
ASD10160252
  38   40    0    0    0
SMALL
NO_CHARGES


@<TRIPOS>ATOM
   1 C1            -0.2739     1.4606     0.0618 C.2     
   2 C2            -0.1866    -0.0113     0.0401 C.ar    
   3 C3             1.0526    -0.6387    -0.1352 C.ar    
   4 C4             1.1287    -2.0169    -0.1543 C.ar    
   5 C5            -0.0215    -2.7795     0.0001 C.ar    
   6 C6            -1.2549    -2.1590     0.1745 C.ar    
   7 C7            -1.3401    -0.7845     0.2002 C.ar    
   8 O8             0.7315     2.1313    -0.0727 O.2     
   9 N9            -1.4687     2.0624     0.2251 N.am    
  10 S10           -1.5667     3.7154     0.2495 S.o2    
  11 O11           -2.9465     3.9815     0.4612 O.2     
  12 O12           -0.5898     4.1103     1.2029 O.2     
  13 C13           -1.0692     4.2230    -1.4194 C.3     
  14 O14            0.0575    -4.1343    -0.0197 O.3     
  15 C15           -0.1540    -4.7667    -1.1992 C.ar    
  16 N16           -0.4651    -4.0727    -2.2752 N.ar    
  17 C17           -0.6823    -4.6393    -3.4549 C.ar    
  18 C18           -0.5976    -5.9854    -3.6341 C.ar    
  19 C19           -0.2693    -6.7976    -2.5313 C.ar    
  20 C20           -0.1632    -8.1916    -2.6359 C.ar    
  21 C21            0.1578    -8.9243    -1.5328 C.ar    
  22 C22            0.3814    -8.3089    -0.3032 C.ar    
  23 C23            0.2860    -6.9564    -0.1666 C.ar    
  24 C24           -0.0361    -6.1704    -1.2813 C.ar    
  25 F25            2.1717     0.1031    -0.2858 F       
  26 Cl26          -2.6882    -3.1195     0.3662 Cl      
  27 H27            2.0837    -2.5025    -0.2897 H       
  28 H28           -2.2975    -0.3047     0.3398 H       
  29 H29           -2.2712     1.5274     0.3284 H       
  30 H30           -1.7496     3.7857    -2.1502 H       
  31 H31           -1.1050     5.3098    -1.4944 H       
  32 H32           -0.0541     3.8784    -1.6165 H       
  33 H33           -0.9342    -4.0134    -4.2982 H       
  34 H34           -0.7793    -6.4233    -4.6045 H       
  35 H35           -0.3349    -8.6809    -3.5833 H       
  36 H36            0.2396    -9.9982    -1.6128 H       
  37 H37            0.6341    -8.9132     0.5554 H       
  38 H38            0.4615    -6.4931     0.7931 H       
@<TRIPOS>BOND
   1    1    2 1
   2    1    8 2
   3    1    9 am
   4    2    3 ar
   5    2    7 ar
   6    3    4 ar
   7    3   25 1
   8    4    5 ar
   9    4   27 1
  10    5    6 ar
  11    5   14 1
  12    6    7 ar
  13    6   26 1
  14    7   28 1
  15    9   10 am
  16    9   29 1
  17   10   11 2
  18   10   12 2
  19   10   13 1
  20   13   30 1
  21   13   31 1
  22   13   32 1
  23   14   15 1
  24   15   16 ar
  25   15   24 ar
  26   16   17 ar
  27   17   18 ar
  28   17   33 1
  29   18   19 ar
  30   18   34 1
  31   19   20 ar
  32   19   24 ar
  33   20   21 ar
  34   20   35 1
  35   21   22 ar
  36   21   36 1
  37   22   23 ar
  38   22   37 1
  39   23   24 ar
  40   23   38 1

#	End of record

