#	Name: ASD10160043
#	Creating user name:	WinNT
#	Creation time:	15. 06. 2019 21:25

#	Modifying user name:	WinNT
#	Modification time:	15. 06. 2019 21:25

#	Program:	/corina/corina34_cracker 3.40 0067  02.08.2006

@<TRIPOS>MOLECULE
ASD10160043
  34   35    0    0    0
SMALL
NO_CHARGES


@<TRIPOS>ATOM
   1 C1            -0.3998     1.1085    -1.9508 C.2     
   2 C2            -0.2792    -0.2706    -1.4431 C.ar    
   3 C3             0.9046    -0.9908    -1.6416 C.ar    
   4 C4             1.0125    -2.2816    -1.1644 C.ar    
   5 C5            -0.0509    -2.8653    -0.4890 C.ar    
   6 C6            -1.2304    -2.1523    -0.2898 C.ar    
   7 C7            -1.3449    -0.8609    -0.7568 C.ar    
   8 O8             0.5300     1.6218    -2.5431 O.2     
   9 N9            -1.5425     1.7981    -1.7634 N.am    
  10 O10            0.0593    -4.1350    -0.0218 O.3     
  11 C11            3.6293    -5.9813    -0.3758 C.ar    
  12 N12            3.3857    -5.2600     0.7000 N.ar    
  13 C13            2.2277    -4.6392     0.8532 C.ar    
  14 C14            1.2619    -4.7566    -0.1412 C.ar    
  15 C15            1.5588    -5.5273    -1.2607 C.ar    
  16 N16            2.7404    -6.1167    -1.3393 N.ar    
  17 C17            4.9650    -6.6659    -0.5109 C.3     
  18 F18            4.8134    -8.0356    -0.2699 F       
  19 F19            5.4596    -6.4720    -1.8051 F       
  20 F20            5.8619    -6.1256     0.4169 F       
  21 S21           -1.6779     3.3469    -2.3336 S.o2    
  22 O22           -2.9804     3.7537    -1.9371 O.2     
  23 O23           -0.5214     4.0059    -1.8361 O.2     
  24 C24           -1.5862     3.1749    -4.1371 C.3     
  25 F25           -2.2622    -2.7257     0.3673 F       
  26 F26            1.9394    -0.4238    -2.2995 F       
  27 H27            1.9253    -2.8384    -1.3169 H       
  28 H28           -2.2584    -0.3072    -0.5975 H       
  29 H29           -2.2856     1.3872    -1.2945 H       
  30 H30            2.0347    -4.0500     1.7376 H       
  31 H31            0.8352    -5.6423    -2.0542 H       
  32 H32           -2.4023     2.5409    -4.4836 H       
  33 H33           -1.6680     4.1581    -4.6005 H       
  34 H34           -0.6331     2.7223    -4.4109 H       
@<TRIPOS>BOND
   1    1    2 1
   2    1    8 2
   3    1    9 am
   4    2    3 ar
   5    2    7 ar
   6    3    4 ar
   7    3   26 1
   8    4    5 ar
   9    4   27 1
  10    5    6 ar
  11    5   10 1
  12    6    7 ar
  13    6   25 1
  14    7   28 1
  15    9   21 am
  16    9   29 1
  17   10   14 1
  18   11   12 ar
  19   11   16 ar
  20   11   17 1
  21   12   13 ar
  22   13   14 ar
  23   13   30 1
  24   14   15 ar
  25   15   16 ar
  26   15   31 1
  27   17   18 1
  28   17   19 1
  29   17   20 1
  30   21   22 2
  31   21   23 2
  32   21   24 1
  33   24   32 1
  34   24   33 1
  35   24   34 1

#	End of record

