#	Name: ASD10160547
#	Creating user name:	WinNT
#	Creation time:	15. 06. 2019 21:26

#	Modifying user name:	WinNT
#	Modification time:	15. 06. 2019 21:26

#	Program:	/corina/corina34_cracker 3.40 0067  02.08.2006

@<TRIPOS>MOLECULE
ASD10160547
  22   23    0    0    0
SMALL
NO_CHARGES


@<TRIPOS>ATOM
   1 C1            -0.0167     1.3834     0.0096 C.ar    
   2 C2             0.0021    -0.0041     0.0020 C.ar    
   3 C3             1.2267    -0.6631    -0.0133 C.ar    
   4 C4             2.3851     0.0993    -0.0203 C.ar    
   5 C5             2.2850     1.4791    -0.0119 C.ar    
   6 N6             1.1072     2.0719     0.0026 N.ar    
   7 O7            -1.1599    -0.7091     0.0098 O.3     
   8 C8             3.5385     2.3156    -0.0194 C.3     
   9 C9             3.6481     3.2501    -1.2358 C.3     
  10 C10            4.2036     4.3113    -0.2714 C.3     
  11 C11            3.4386     3.5828     0.8461 C.3     
  12 Cl12           3.9420    -0.6684    -0.0388 Cl      
  13 H13           -0.9625     1.9047     0.0170 H       
  14 H14            1.2743    -1.7420    -0.0192 H       
  15 H15           -1.5049    -0.9084    -0.8713 H       
  16 H16            4.4393     1.7299     0.1638 H       
  17 H17            4.3709     2.9153    -1.9799 H       
  18 H18            2.6845     3.5164    -1.6701 H       
  19 H19            5.2868     4.2723    -0.1562 H       
  20 H20            3.8340     5.3174    -0.4694 H       
  21 H21            2.4177     3.9400     0.9810 H       
  22 H22            3.9922     3.5165     1.7827 H       
@<TRIPOS>BOND
   1    1    2 ar
   2    1    6 ar
   3    1   13 1
   4    2    3 ar
   5    2    7 1
   6    3    4 ar
   7    3   14 1
   8    4    5 ar
   9    4   12 1
  10    5    6 ar
  11    5    8 1
  12    7   15 1
  13    8    9 1
  14    8   11 1
  15    8   16 1
  16    9   10 1
  17    9   17 1
  18    9   18 1
  19   10   11 1
  20   10   19 1
  21   10   20 1
  22   11   21 1
  23   11   22 1

#	End of record

