#	Name: ASD10950058
#	Creating user name:	WinNT
#	Creation time:	15. 06. 2019 21:28

#	Modifying user name:	WinNT
#	Modification time:	15. 06. 2019 21:28

#	Program:	/corina/corina34_cracker 3.40 0067  02.08.2006

@<TRIPOS>MOLECULE
ASD10950058
  62   66    0    0    0
SMALL
NO_CHARGES


@<TRIPOS>ATOM
   1 C1             0.6932     1.3526    -2.2019 C.3     
   2 O2             0.5984    -0.0467    -1.8260 O.3     
   3 C3             1.1167    -0.3959    -0.6327 C.2     
   4 O4             1.6337     0.4455     0.0746 O.2     
   5 C5             1.0564    -1.8021    -0.1842 C.ar    
   6 C6             1.5927    -2.1675     1.0522 C.ar    
   7 C7             1.5329    -3.4825     1.4648 C.ar    
   8 C8             0.9433    -4.4384     0.6566 C.ar    
   9 C9             0.4100    -4.0832    -0.5697 C.ar    
  10 C10            0.4577    -2.7709    -0.9921 C.ar    
  11 C11            0.8823    -5.8730     1.1139 C.3     
  12 N12           -0.4735    -6.4040     0.9300 N.am    
  13 C13           -1.6927    -5.8920     1.5606 C.3     
  14 C14           -2.3168    -4.8182     0.6670 C.3     
  15 C15           -3.5901    -4.2836     1.3256 C.3     
  16 C16           -4.2048    -3.2260     0.4455 C.2     
  17 C17           -4.0225    -1.8997     0.5446 C.2     
  18 N18           -4.7406    -1.2563    -0.4264 N.pl3   
  19 C19           -5.4197    -2.1763    -1.1934 C.ar    
  20 C20           -5.1096    -3.4505    -0.6845 C.ar    
  21 C21           -5.6626    -4.5894    -1.2735 C.ar    
  22 C22           -6.5031    -4.4598    -2.3428 C.ar    
  23 C23           -6.8119    -3.2044    -2.8490 C.ar    
  24 C24           -6.2749    -2.0680    -2.2853 C.ar    
  25 C25           -0.3988    -7.4435     0.0792 C.2     
  26 O26           -1.3439    -8.1119    -0.2898 O.2     
  27 C27            1.0032    -7.6519    -0.3408 C.2     
  28 C28            1.7894    -6.7291     0.2613 C.2     
  29 C29            3.2410    -6.5873     0.1140 C.2     
  30 O30            3.7145    -6.2592    -0.9576 O.2     
  31 C31            4.1296    -6.8429     1.2678 C.ar    
  32 C32            5.5142    -6.6663     1.1533 C.ar    
  33 C33            6.3013    -6.9185     2.2629 C.ar    
  34 C34            5.7017    -7.3330     3.4386 C.ar    
  35 N35            4.3939    -7.4911     3.5178 N.ar    
  36 C36            3.6020    -7.2589     2.4921 C.ar    
  37 O37            1.4323    -8.6128    -1.1908 O.3     
  38 H38            1.7416     1.6483    -2.2401 H       
  39 H39            0.2389     1.4971    -3.1821 H       
  40 H40            0.1702     1.9628    -1.4655 H       
  41 H41            2.0535    -1.4225     1.6838 H       
  42 H42            1.9477    -3.7665     2.4207 H       
  43 H43           -0.0485    -4.8343    -1.1958 H       
  44 H44            0.0410    -2.4949    -1.9495 H       
  45 H45            1.1738    -5.9447     2.1618 H       
  46 H46           -2.4018    -6.7086     1.6967 H       
  47 H47           -1.4461    -5.4595     2.5302 H       
  48 H48           -1.6077    -4.0017     0.5309 H       
  49 H49           -2.5634    -5.2508    -0.3027 H       
  50 H50           -4.2992    -5.1001     1.4617 H       
  51 H51           -3.3435    -3.8511     2.2952 H       
  52 H52           -3.4016    -1.4126     1.2819 H       
  53 H53           -4.7674    -0.2953    -0.5549 H       
  54 H54           -5.4263    -5.5692    -0.8856 H       
  55 H55           -6.9306    -5.3409    -2.7981 H       
  56 H56           -7.4777    -3.1182    -3.6950 H       
  57 H57           -6.5212    -1.0960    -2.6863 H       
  58 H58            5.9561    -6.3420     0.2227 H       
  59 H59            7.3728    -6.7935     2.2115 H       
  60 H60            6.3140    -7.5309     4.3060 H       
  61 H61            2.5362    -7.3993     2.5958 H       
  62 H62            0.7283    -9.1853    -1.5250 H       
@<TRIPOS>BOND
   1    1    2 1
   2    1   38 1
   3    1   39 1
   4    1   40 1
   5    2    3 1
   6    3    4 2
   7    3    5 1
   8    5    6 ar
   9    5   10 ar
  10    6    7 ar
  11    6   41 1
  12    7    8 ar
  13    7   42 1
  14    8    9 ar
  15    8   11 1
  16    9   10 ar
  17    9   43 1
  18   10   44 1
  19   11   12 1
  20   11   28 1
  21   11   45 1
  22   12   13 1
  23   12   25 am
  24   13   14 1
  25   13   46 1
  26   13   47 1
  27   14   15 1
  28   14   48 1
  29   14   49 1
  30   15   16 1
  31   15   50 1
  32   15   51 1
  33   16   17 2
  34   16   20 1
  35   17   18 1
  36   17   52 1
  37   18   19 1
  38   18   53 1
  39   19   20 ar
  40   19   24 ar
  41   20   21 ar
  42   21   22 ar
  43   21   54 1
  44   22   23 ar
  45   22   55 1
  46   23   24 ar
  47   23   56 1
  48   24   57 1
  49   25   26 2
  50   25   27 1
  51   27   28 2
  52   27   37 1
  53   28   29 1
  54   29   30 2
  55   29   31 1
  56   31   32 ar
  57   31   36 ar
  58   32   33 ar
  59   32   58 1
  60   33   34 ar
  61   33   59 1
  62   34   35 ar
  63   34   60 1
  64   35   36 ar
  65   36   61 1
  66   37   62 1

#	End of record

