#	Name: ASD11710003
#	Creating user name:	WinNT
#	Creation time:	15. 06. 2019 21:29

#	Modifying user name:	WinNT
#	Modification time:	15. 06. 2019 21:29

#	Program:	/corina/corina34_cracker 3.40 0067  02.08.2006

@<TRIPOS>MOLECULE
ASD11710003
  47   49    0    0    0
SMALL
NO_CHARGES


@<TRIPOS>ATOM
   1 C1             3.2163     7.8640     1.1293 C.ar    
   2 C2             2.3189     8.8538     0.7745 C.ar    
   3 C3             1.3357     8.5922    -0.1613 C.ar    
   4 C4             1.2501     7.3409    -0.7426 C.ar    
   5 C5             2.1481     6.3514    -0.3885 C.ar    
   6 C6             3.1304     6.6126     0.5483 C.ar    
   7 C7             2.0545     4.9872    -1.0219 C.3     
   8 N8             2.8738     4.9552    -2.2359 N.am    
   9 C9             4.1681     4.5857    -2.1658 C.2     
  10 C10            4.9655     4.4477    -3.4032 C.ar    
  11 O11            4.6798     4.3660    -1.0854 O.2     
  12 C12            4.7562     5.3197    -4.4728 C.ar    
  13 C13            5.9348     3.4486    -3.5046 C.ar    
  14 C14            6.6757     3.3256    -4.6618 C.ar    
  15 C15            6.4600     4.1902    -5.7202 C.ar    
  16 C16            5.5040     5.1858    -5.6244 C.ar    
  17 S17            7.4115     4.0268    -7.1942 S.o2    
  18 N18            6.5935     2.9900    -8.1933 N.am    
  19 C19            5.2990     3.3044    -8.6187 C.ar    
  20 C20            4.3518     2.2973    -8.7730 C.ar    
  21 C21            4.9544     4.6227    -8.8825 C.ar    
  22 C22            3.6744     4.9304    -9.3027 C.ar    
  23 C23            2.7364     3.9275    -9.4604 C.ar    
  24 C24            3.0733     2.6126    -9.1937 C.ar    
  25 O25            7.3888     5.2977    -7.8293 O.2     
  26 O26            8.6129     3.3639    -6.8248 O.2     
  27 F27            4.6810     1.0131    -8.5125 F       
  28 C28            2.2864     5.3248    -3.5261 C.3     
  29 H29            3.9873     8.0697     1.8571 H       
  30 H30            2.3857     9.8313     1.2287 H       
  31 H31            0.6341     9.3653    -0.4379 H       
  32 H32            0.4815     7.1363    -1.4732 H       
  33 H33            3.8322     5.8396     0.8247 H       
  34 H34            2.4153     4.2352    -0.3201 H       
  35 H35            1.0163     4.7762    -1.2785 H       
  36 H36            4.0103     6.0972    -4.3992 H       
  37 H37            6.1047     2.7736    -2.6788 H       
  38 H38            7.4261     2.5529    -4.7415 H       
  39 H39            5.3405     5.8574    -6.4542 H       
  40 H40            7.0123     2.1646    -8.4835 H       
  41 H41            5.6860     5.4076    -8.7591 H       
  42 H42            3.4064     5.9563    -9.5080 H       
  43 H43            1.7368     4.1715    -9.7887 H       
  44 H44            2.3382     1.8312    -9.3183 H       
  45 H45            2.4345     6.3904    -3.7008 H       
  46 H46            2.7683     4.7558    -4.3211 H       
  47 H47            1.2192     5.1031    -3.5162 H       
@<TRIPOS>BOND
   1    1    2 ar
   2    1    6 ar
   3    1   29 1
   4    2    3 ar
   5    2   30 1
   6    3    4 ar
   7    3   31 1
   8    4    5 ar
   9    4   32 1
  10    5    6 ar
  11    5    7 1
  12    6   33 1
  13    7    8 1
  14    7   34 1
  15    7   35 1
  16    8    9 am
  17    8   28 1
  18    9   10 1
  19    9   11 2
  20   10   12 ar
  21   10   13 ar
  22   12   16 ar
  23   12   36 1
  24   13   14 ar
  25   13   37 1
  26   14   15 ar
  27   14   38 1
  28   15   16 ar
  29   15   17 1
  30   16   39 1
  31   17   18 am
  32   17   25 2
  33   17   26 2
  34   18   19 1
  35   18   40 1
  36   19   20 ar
  37   19   21 ar
  38   20   27 1
  39   20   24 ar
  40   21   22 ar
  41   21   41 1
  42   22   23 ar
  43   22   42 1
  44   23   24 ar
  45   23   43 1
  46   24   44 1
  47   28   45 1
  48   28   46 1
  49   28   47 1

#	End of record

