#	Name: ASD13680061
#	Creating user name:	WinNT
#	Creation time:	15. 06. 2019 21:30

#	Modifying user name:	WinNT
#	Modification time:	15. 06. 2019 21:30

#	Program:	/corina/corina34_cracker 3.40 0067  02.08.2006

@<TRIPOS>MOLECULE
ASD13680061
  63   64    0    0    0
SMALL
NO_CHARGES


@<TRIPOS>ATOM
   1 C1            -0.0168     1.3898     0.0097 C.ar    
   2 C2             0.0021    -0.0041     0.0020 C.ar    
   3 C3             1.2270    -0.6862    -0.0134 C.ar    
   4 C4             2.4270     0.0383    -0.0210 C.ar    
   5 C5             2.3969     1.4330    -0.0132 C.ar    
   6 C6             1.1782     2.1050     0.0021 C.ar    
   7 O7             1.2507    -2.0401    -0.0204 O.3     
   8 C8             1.2496    -2.6823    -1.2970 C.3     
   9 C9            -1.2275    -0.7381     0.0103 C.1     
  10 N10           -2.2029    -1.3203     0.0169 N.1     
  11 C11            3.7187    -0.6724    -0.0367 C.2     
  12 O12            3.7436    -1.8872    -0.0431 O.2     
  13 O13            4.8715     0.0252    -0.0440 O.3     
  14 C14            6.1051    -0.7403    -0.0595 C.3     
  15 C15            1.1520     3.5878     0.0099 C.2     
  16 C16            0.5853     4.3255    -1.1452 C.ar    
  17 C17            1.6397     4.2601     1.0591 C.2     
  18 C18            2.2156     3.5105     2.2328 C.3     
  19 C19            3.6421     3.9959     2.4977 C.3     
  20 C20            4.2267     3.2349     3.6893 C.3     
  21 C21            5.6318     3.7130     3.9503 C.2     
  22 O22            6.3455     3.1823     4.9556 O.3     
  23 O23            6.1160     4.5741     3.2546 O.2     
  24 C24            7.6918     3.6909     5.1486 C.3     
  25 C25           -0.4821     5.7150    -3.3184 C.ar    
  26 C26           -1.3084     4.9042    -2.5273 C.ar    
  27 C27           -0.7705     4.2126    -1.4430 C.ar    
  28 C28            1.4091     5.1326    -1.9242 C.ar    
  29 C29            0.8808     5.8294    -3.0112 C.ar    
  30 C30           -2.7016     4.7829    -2.8355 C.1     
  31 N31           -3.8068     4.6867    -3.0801 N.1     
  32 O32           -0.9998     6.3888    -4.3727 O.3     
  33 C33           -1.4973     7.7045    -4.1208 C.3     
  34 C34            1.7556     6.6797    -3.8391 C.2     
  35 O35            3.0655     6.7888    -3.5427 O.3     
  36 C36            3.8666     7.6433    -4.4008 C.3     
  37 O37            1.2953     7.2821    -4.7886 O.2     
  38 H38           -0.9599     1.9160     0.0170 H       
  39 H39            3.3208     1.9923    -0.0191 H       
  40 H40            0.3493    -2.4023    -1.8438 H       
  41 H41            2.1289    -2.3710    -1.8611 H       
  42 H42            1.2699    -3.7634    -1.1598 H       
  43 H43            6.9557    -0.0587    -0.0640 H       
  44 H44            6.1513    -1.3730     0.8269 H       
  45 H45            6.1346    -1.3640    -0.9529 H       
  46 H46            1.6206     5.3399     1.0647 H       
  47 H47            1.6011     3.6895     3.1151 H       
  48 H48            2.2302     2.4435     2.0106 H       
  49 H49            4.2566     3.8169     1.6154 H       
  50 H50            3.6274     5.0629     2.7199 H       
  51 H51            3.6123     3.4139     4.5716 H       
  52 H52            4.2414     2.1679     3.4672 H       
  53 H53            7.6502     4.7610     5.3520 H       
  54 H54            8.1564     3.1787     5.9911 H       
  55 H55            8.2793     3.5149     4.2475 H       
  56 H56           -1.4062     3.5879    -0.8331 H       
  57 H57            2.4590     5.2200    -1.6866 H       
  58 H58           -2.2981     7.6551    -3.3830 H       
  59 H59           -0.6907     8.3312    -3.7402 H       
  60 H60           -1.8824     8.1309    -5.0471 H       
  61 H61            4.8994     7.6424    -4.0524 H       
  62 H62            3.8279     7.2694    -5.4240 H       
  63 H63            3.4737     8.6596    -4.3703 H       
@<TRIPOS>BOND
   1    1    2 ar
   2    1    6 ar
   3    1   38 1
   4    2    3 ar
   5    2    9 1
   6    3    4 ar
   7    3    7 1
   8    4    5 ar
   9    4   11 1
  10    5    6 ar
  11    5   39 1
  12    6   15 1
  13    7    8 1
  14    8   40 1
  15    8   41 1
  16    8   42 1
  17    9   10 3
  18   11   12 2
  19   11   13 1
  20   13   14 1
  21   14   43 1
  22   14   44 1
  23   14   45 1
  24   15   16 1
  25   15   17 2
  26   16   28 ar
  27   16   27 ar
  28   17   18 1
  29   17   46 1
  30   18   19 1
  31   18   47 1
  32   18   48 1
  33   19   20 1
  34   19   49 1
  35   19   50 1
  36   20   21 1
  37   20   51 1
  38   20   52 1
  39   21   22 1
  40   21   23 2
  41   22   24 1
  42   24   53 1
  43   24   54 1
  44   24   55 1
  45   25   26 ar
  46   25   29 ar
  47   25   32 1
  48   26   27 ar
  49   26   30 1
  50   27   56 1
  51   28   29 ar
  52   28   57 1
  53   29   34 1
  54   30   31 3
  55   32   33 1
  56   33   58 1
  57   33   59 1
  58   33   60 1
  59   34   35 1
  60   34   37 2
  61   35   36 1
  62   36   61 1
  63   36   62 1
  64   36   63 1

#	End of record

