#	Name: ASD13680036
#	Creating user name:	WinNT
#	Creation time:	15. 06. 2019 21:30

#	Modifying user name:	WinNT
#	Modification time:	15. 06. 2019 21:30

#	Program:	/corina/corina34_cracker 3.40 0067  02.08.2006

@<TRIPOS>MOLECULE
ASD13680036
  49   52    0    0    0
SMALL
NO_CHARGES


@<TRIPOS>ATOM
   1 C1            -0.0347     1.4905    -0.0613 C.3     
   2 C2            -0.0124    -0.0237    -0.0408 C.2     
   3 C3             0.7531    -0.7706     0.7607 C.2     
   4 C4             1.7417    -0.2165     1.7721 C.3     
   5 C5             1.8924     2.2331     1.3289 C.3     
   6 C6             1.3926     2.0345    -0.0993 C.3     
   7 C7             1.2942     1.1645     2.2412 C.3     
   8 C8             0.5402    -2.1951     0.5580 C.2     
   9 C9            -0.3818    -2.4744    -0.4101 C.2     
  10 S10           -1.0023    -1.0390    -1.0810 S.3     
  11 N11           -0.7595    -3.7508    -0.7935 N.am    
  12 C12            1.2471    -3.2302     1.3182 C.2     
  13 O13            0.7760    -3.6490     2.3596 O.2     
  14 N14            2.4184    -3.7182     0.8641 N.am    
  15 C15           -1.6812    -3.9184    -1.7625 C.2     
  16 O16           -2.1808    -2.9497    -2.2998 O.2     
  17 C17            3.1350    -4.6447     1.6308 C.ar    
  18 C18            2.4720    -5.4533     2.5439 C.ar    
  19 C19            3.1816    -6.3670     3.2988 C.ar    
  20 C20            4.5516    -6.4774     3.1467 C.ar    
  21 C21            5.2167    -5.6744     2.2386 C.ar    
  22 C22            4.5120    -4.7614     1.4754 C.ar    
  23 C23           -2.0850    -5.2831    -2.1724 C.ar    
  24 C24           -3.0384    -5.4497    -3.1748 C.ar    
  25 C25           -3.4057    -6.7328    -3.5478 C.ar    
  26 C26           -2.8066    -7.8053    -2.9052 C.ar    
  27 C27           -1.8657    -7.5656    -1.9167 C.ar    
  28 N28           -1.5317    -6.3373    -1.5856 N.ar    
  29 F29            5.1610    -3.9804     0.5843 F       
  30 H30           -0.5755     1.8323    -0.9438 H       
  31 H31           -0.5377     1.8570     0.8335 H       
  32 H32            1.7975    -0.8885     2.6285 H       
  33 H33            2.7262    -0.1399     1.3106 H       
  34 H34            2.9796     2.1569     1.3460 H       
  35 H35            1.5941     3.2198     1.6831 H       
  36 H36            2.0390     1.3251    -0.6159 H       
  37 H37            1.4046     2.9891    -0.6253 H       
  38 H38            0.2065     1.2250     2.2064 H       
  39 H39            1.6342     1.3284     3.2638 H       
  40 H40           -0.3607    -4.5240    -0.3645 H       
  41 H41            2.7649    -3.4275     0.0060 H       
  42 H42            1.4021    -5.3677     2.6643 H       
  43 H43            2.6656    -6.9959     4.0091 H       
  44 H44            5.1034    -7.1923     3.7390 H       
  45 H45            6.2868    -5.7629     2.1225 H       
  46 H46           -3.4850    -4.5910    -3.6540 H       
  47 H47           -4.1421    -6.8936    -4.3212 H       
  48 H48           -3.0711    -8.8178    -3.1723 H       
  49 H49           -1.3972    -8.3988    -1.4142 H       
@<TRIPOS>BOND
   1    1    2 1
   2    1    6 1
   3    1   30 1
   4    1   31 1
   5    2   10 1
   6    2    3 2
   7    3    4 1
   8    3    8 1
   9    4    7 1
  10    4   32 1
  11    4   33 1
  12    5    6 1
  13    5    7 1
  14    5   34 1
  15    5   35 1
  16    6   36 1
  17    6   37 1
  18    7   38 1
  19    7   39 1
  20    8    9 2
  21    8   12 1
  22    9   10 1
  23    9   11 1
  24   11   15 am
  25   11   40 1
  26   12   13 2
  27   12   14 am
  28   14   17 1
  29   14   41 1
  30   15   16 2
  31   15   23 1
  32   17   18 ar
  33   17   22 ar
  34   18   19 ar
  35   18   42 1
  36   19   20 ar
  37   19   43 1
  38   20   21 ar
  39   20   44 1
  40   21   22 ar
  41   21   45 1
  42   22   29 1
  43   23   24 ar
  44   23   28 ar
  45   24   25 ar
  46   24   46 1
  47   25   26 ar
  48   25   47 1
  49   26   27 ar
  50   26   48 1
  51   27   28 ar
  52   27   49 1

#	End of record

