#	Name: ASD10160471
#	Creating user name:	WinNT
#	Creation time:	15. 06. 2019 21:26

#	Modifying user name:	WinNT
#	Modification time:	15. 06. 2019 21:26

#	Program:	/corina/corina34_cracker 3.40 0067  02.08.2006

@<TRIPOS>MOLECULE
ASD10160471
  37   38    0    0    0
SMALL
NO_CHARGES


@<TRIPOS>ATOM
   1 C1            -2.2417    -2.5874     4.8443 C.2     
   2 C2            -1.6392    -2.9928     3.5701 C.ar    
   3 C3            -0.3130    -3.4514     3.5319 C.ar    
   4 C4             0.2445    -3.8303     2.3282 C.ar    
   5 C5            -0.5071    -3.7565     1.1613 C.ar    
   6 C6            -1.8217    -3.3015     1.2011 C.ar    
   7 C7            -2.3865    -2.9292     2.3869 C.ar    
   8 O8            -1.5938    -2.6482     5.8682 O.2     
   9 C9            -2.6275    -3.2251    -0.0701 C.3     
  10 F10            0.4140    -3.5211     4.6684 F       
  11 O11            0.0432    -4.1291    -0.0211 O.3     
  12 C12            2.4072    -3.8604    -0.1453 C.ar    
  13 C13            1.2910    -4.6690    -0.0026 C.ar    
  14 C14            1.4628    -6.0408     0.1605 C.ar    
  15 C15            2.7517    -6.5467     0.1737 C.ar    
  16 C16            3.8230    -5.6742     0.0248 C.ar    
  17 N17            3.6215    -4.3765    -0.1275 N.ar    
  18 O18            5.0909    -6.1597     0.0363 O.3     
  19 C19            6.1497    -5.2130    -0.1212 C.3     
  20 C20            6.5823    -4.6983     1.2531 C.3     
  21 C21            7.3378    -5.8867    -0.8107 C.3     
  22 Cl22           3.0259    -8.2492     0.3742 Cl      
  23 H23           -3.2608    -2.2307     4.8705 H       
  24 H24            1.2644    -4.1836     2.2925 H       
  25 H25           -3.4086    -2.5812     2.4122 H       
  26 H26           -3.1502    -4.1687    -0.2263 H       
  27 H27           -3.3538    -2.4160     0.0082 H       
  28 H28           -1.9613    -3.0351    -0.9117 H       
  29 H29            2.2817    -2.7958    -0.2767 H       
  30 H30            0.6110    -6.6950     0.2743 H       
  31 H31            5.8026    -4.3777    -0.7294 H       
  32 H32            6.9293    -5.5337     1.8612 H       
  33 H33            7.3898    -3.9762     1.1329 H       
  34 H34            5.7358    -4.2183     1.7443 H       
  35 H35            7.0296    -6.2534    -1.7898 H       
  36 H36            8.1454    -5.1646    -0.9309 H       
  37 H37            7.6849    -6.7221    -0.2026 H       
@<TRIPOS>BOND
   1    1    2 1
   2    1    8 2
   3    1   23 1
   4    2    3 ar
   5    2    7 ar
   6    3    4 ar
   7    3   10 1
   8    4    5 ar
   9    4   24 1
  10    5    6 ar
  11    5   11 1
  12    6    7 ar
  13    6    9 1
  14    7   25 1
  15    9   26 1
  16    9   27 1
  17    9   28 1
  18   11   13 1
  19   12   13 ar
  20   12   17 ar
  21   12   29 1
  22   13   14 ar
  23   14   15 ar
  24   14   30 1
  25   15   16 ar
  26   15   22 1
  27   16   17 ar
  28   16   18 1
  29   18   19 1
  30   19   20 1
  31   19   21 1
  32   19   31 1
  33   20   32 1
  34   20   33 1
  35   20   34 1
  36   21   35 1
  37   21   36 1
  38   21   37 1

#	End of record

