#	Name: ASD11320008
#	Creating user name:	WinNT
#	Creation time:	15. 06. 2019 21:29

#	Modifying user name:	WinNT
#	Modification time:	15. 06. 2019 21:29

#	Program:	/corina/corina34_cracker 3.40 0067  02.08.2006

@<TRIPOS>MOLECULE
ASD11320008
  43   46    0    0    0
SMALL
NO_CHARGES


@<TRIPOS>ATOM
   1 O1             0.1116     0.0026     0.0331 O.2     
   2 C2            -0.0144     1.2097     0.0087 C.2     
   3 C3             1.1912     2.0836    -0.0528 C.2     
   4 O4             1.0646     3.2860    -0.1796 O.2     
   5 C5             2.5268     1.4947     0.0393 C.2     
   6 C6             2.8356     0.1551     0.1840 C.2     
   7 N7             4.1713     0.0030     0.2314 N.pl3   
   8 C8             4.8069     1.2241     0.1213 C.ar    
   9 C9             3.8165     2.2100    -0.0099 C.ar    
  10 C10            4.1750     3.5486    -0.1405 C.ar    
  11 C11            5.5075     3.9013    -0.1404 C.ar    
  12 C12            6.4879     2.9287    -0.0114 C.ar    
  13 C13            6.1463     1.5993     0.1142 C.ar    
  14 C14            4.8581    -1.2825     0.3800 C.3     
  15 C15            5.1689    -1.5207     1.8352 C.ar    
  16 C16            4.2559    -2.1781     2.6384 C.ar    
  17 C17            4.5411    -2.3965     3.9733 C.ar    
  18 C18            5.7394    -1.9580     4.5049 C.ar    
  19 C19            6.6528    -1.3013     3.7014 C.ar    
  20 C20            6.3695    -1.0868     2.3655 C.ar    
  21 C21           -1.3605     1.8112     0.0338 C.ar    
  22 C22           -2.4953     0.9990    -0.0614 C.ar    
  23 C23           -3.7504     1.5689    -0.0372 C.ar    
  24 C24           -3.8893     2.9412     0.0804 C.ar    
  25 C25           -2.7710     3.7518     0.1747 C.ar    
  26 C26           -1.5093     3.1964     0.1587 C.ar    
  27 H27            2.1148    -0.6465     0.2494 H       
  28 H28            3.4129     4.3071    -0.2418 H       
  29 H29            5.7893     4.9389    -0.2416 H       
  30 H30            7.5291     3.2155    -0.0129 H       
  31 H31            6.9179     0.8503     0.2141 H       
  32 H32            4.2164    -2.0822     0.0100 H       
  33 H33            5.7858    -1.2671    -0.1919 H       
  34 H34            3.3197    -2.5208     2.2232 H       
  35 H35            3.8275    -2.9095     4.6010 H       
  36 H36            5.9619    -2.1280     5.5479 H       
  37 H37            7.5889    -0.9584     4.1168 H       
  38 H38            7.0831    -0.5738     1.7378 H       
  39 H39           -2.3885    -0.0717    -0.1539 H       
  40 H40           -4.6275     0.9431    -0.1106 H       
  41 H41           -4.8752     3.3818     0.0985 H       
  42 H42           -2.8874     4.8217     0.2658 H       
  43 H43           -0.6378     3.8300     0.2326 H       
@<TRIPOS>BOND
   1    1    2 2
   2    2    3 1
   3    2   21 1
   4    3    4 2
   5    3    5 1
   6    5    6 2
   7    5    9 1
   8    6    7 1
   9    6   27 1
  10    7    8 1
  11    7   14 1
  12    8    9 ar
  13    8   13 ar
  14    9   10 ar
  15   10   11 ar
  16   10   28 1
  17   11   12 ar
  18   11   29 1
  19   12   13 ar
  20   12   30 1
  21   13   31 1
  22   14   15 1
  23   14   32 1
  24   14   33 1
  25   15   16 ar
  26   15   20 ar
  27   16   17 ar
  28   16   34 1
  29   17   18 ar
  30   17   35 1
  31   18   19 ar
  32   18   36 1
  33   19   20 ar
  34   19   37 1
  35   20   38 1
  36   21   22 ar
  37   21   26 ar
  38   22   23 ar
  39   22   39 1
  40   23   24 ar
  41   23   40 1
  42   24   25 ar
  43   24   41 1
  44   25   26 ar
  45   25   42 1
  46   26   43 1

#	End of record

