#	Name: ASD11000274
#	Creating user name:	WinNT
#	Creation time:	15. 06. 2019 21:29

#	Modifying user name:	WinNT
#	Modification time:	15. 06. 2019 21:29

#	Program:	/corina/corina34_cracker 3.40 0067  02.08.2006

@<TRIPOS>MOLECULE
ASD11000274
  43   43    0    0    0
SMALL
NO_CHARGES


@<TRIPOS>ATOM
   1 N1            -0.0159     1.3188     0.0093 N.ar    
   2 C2             0.0021    -0.0041     0.0020 C.ar    
   3 N3             1.1365    -0.6846    -0.0120 N.ar    
   4 C4             2.3020    -0.0590    -0.0198 C.ar    
   5 C5             2.3234     1.3314    -0.0130 C.ar    
   6 C6             1.1108     2.0118     0.0023 C.ar    
   7 O7             3.5022     2.0095    -0.0201 O.3     
   8 N8            -1.2071    -0.6997     0.0098 N.am    
   9 C9            -1.2093    -2.0475     0.0026 C.2     
  10 C10           -2.3732    -0.0240     0.0246 C.2     
  11 O11           -2.3758    -2.7186     0.0101 O.3     
  12 O12           -0.1585    -2.6563    -0.0107 O.2     
  13 C13           -2.3022    -4.1687     0.0017 C.3     
  14 C14           -1.5441    -4.6481     1.2412 C.3     
  15 C15           -3.7169    -4.7513     0.0120 C.3     
  16 C16           -1.5679    -4.6347    -1.2572 C.3     
  17 O17           -3.5398    -0.6952     0.0321 O.3     
  18 O18           -2.3713     1.1905     0.0311 O.2     
  19 C19           -4.7562     0.0975     0.0480 C.3     
  20 C20           -4.8016     0.9869    -1.1961 C.3     
  21 C21           -5.9710    -0.8326     0.0546 C.3     
  22 C22           -4.7778     0.9735     1.3022 C.3     
  23 H23            3.2245    -0.6205    -0.0309 H       
  24 H24            1.0892     3.0916     0.0076 H       
  25 H25            3.8351     2.2101    -0.9056 H       
  26 H26           -2.0672    -4.3161     2.1380 H       
  27 H27           -1.4888    -5.7367     1.2348 H       
  28 H28           -0.5362    -4.2330     1.2338 H       
  29 H29           -4.2569    -4.4097    -0.8710 H       
  30 H30           -3.6616    -5.8399     0.0057 H       
  31 H31           -4.2399    -4.4193     0.9088 H       
  32 H32           -0.5601    -4.2196    -1.2646 H       
  33 H33           -1.5126    -5.7233    -1.2635 H       
  34 H34           -2.1080    -4.2931    -2.1402 H       
  35 H35           -4.7862     0.3629    -2.0896 H       
  36 H36           -5.7148     1.5820    -1.1842 H       
  37 H37           -3.9362     1.6496    -1.2008 H       
  38 H38           -5.9386    -1.4662     0.9409 H       
  39 H39           -6.8841    -0.2375     0.0665 H       
  40 H40           -5.9556    -1.4567    -0.8389 H       
  41 H41           -3.9123     1.6361     1.2975 H       
  42 H42           -5.6909     1.5686     1.3141 H       
  43 H43           -4.7454     0.3399     2.1885 H       
@<TRIPOS>BOND
   1    1    2 ar
   2    1    6 ar
   3    2    3 ar
   4    2    8 1
   5    3    4 ar
   6    4    5 ar
   7    4   23 1
   8    5    6 ar
   9    5    7 1
  10    6   24 1
  11    7   25 1
  12    8    9 am
  13    8   10 am
  14    9   11 1
  15    9   12 2
  16   10   17 1
  17   10   18 2
  18   11   13 1
  19   13   14 1
  20   13   15 1
  21   13   16 1
  22   14   26 1
  23   14   27 1
  24   14   28 1
  25   15   29 1
  26   15   30 1
  27   15   31 1
  28   16   32 1
  29   16   33 1
  30   16   34 1
  31   17   19 1
  32   19   20 1
  33   19   21 1
  34   19   22 1
  35   20   35 1
  36   20   36 1
  37   20   37 1
  38   21   38 1
  39   21   39 1
  40   21   40 1
  41   22   41 1
  42   22   42 1
  43   22   43 1

#	End of record

