#	Name: ASD13010007
#	Creating user name:	WinNT
#	Creation time:	15. 06. 2019 21:30

#	Modifying user name:	WinNT
#	Modification time:	15. 06. 2019 21:30

#	Program:	/corina/corina34_cracker 3.40 0067  02.08.2006

@<TRIPOS>MOLECULE
ASD13010007
  49   52    0    0    0
SMALL
NO_CHARGES


@<TRIPOS>ATOM
   1 C1             0.3489     1.3998    -0.4953 C.ar    
   2 C2             0.2748     0.0552    -0.2866 C.ar    
   3 C3             1.4078    -0.7563    -0.4459 C.ar    
   4 C4             2.6232    -0.1927    -0.8202 C.ar    
   5 C5             1.5570     1.9854    -0.8714 C.ar    
   6 N6             1.9354     3.2746    -1.1465 N.pl3   
   7 C7             2.7032     1.1812    -1.0349 C.ar    
   8 C8             3.7877     2.0867    -1.4266 C.2     
   9 N9             3.2933     3.2962    -1.4793 N.2     
  10 C10            1.0983     4.3881    -1.1015 C.ar    
  11 S11            5.4553     1.6285    -1.7641 S.3     
  12 C12            6.2150     3.1662    -2.1678 C.ar    
  13 C13            6.2305     3.6114    -3.4847 C.ar    
  14 C14            6.7954     3.9402    -1.1693 C.ar    
  15 C15            7.3903     5.1456    -1.4900 C.ar    
  16 C16            7.4087     5.5824    -2.8021 C.ar    
  17 C17            6.8274     4.8181    -3.7973 C.ar    
  18 Cl18           5.5016     2.6526    -4.7350 Cl      
  19 C19           -0.5663     6.6020    -1.0120 C.ar    
  20 C20           -1.0670     5.3654    -1.4308 C.ar    
  21 C21           -0.2376     4.2680    -1.4740 C.ar    
  22 C22            1.5985     5.6163    -0.6787 C.ar    
  23 C23            0.7747     6.7178    -0.6330 C.ar    
  24 C24           -1.4520     7.7799    -0.9643 C.2     
  25 O25           -2.6183     7.6766    -1.2891 O.2     
  26 O26           -0.9679     8.9709    -0.5604 O.3     
  27 Cl27           6.7724     3.3933     0.4781 Cl      
  28 C28            1.3102    -2.2113    -0.2154 C.2     
  29 O29            0.3513    -2.8302    -0.6346 O.2     
  30 N30            2.2841    -2.8534     0.4596 N.am    
  31 C31            2.1453    -4.2793     0.7660 C.3     
  32 C32            3.4814    -2.1256     0.8871 C.3     
  33 H33           -0.5318     2.0130    -0.3732 H       
  34 H34           -0.6652    -0.3898     0.0045 H       
  35 H35            3.4973    -0.8150    -0.9429 H       
  36 H36            7.8410     5.7476    -0.7148 H       
  37 H37            7.8743     6.5249    -3.0495 H       
  38 H38            6.8401     5.1644    -4.8202 H       
  39 H39           -2.1022     5.2725    -1.7241 H       
  40 H40           -0.6235     3.3126    -1.7977 H       
  41 H41            2.6342     5.7050    -0.3858 H       
  42 H42            1.1646     7.6715    -0.3094 H       
  43 H43           -1.5865     9.7140    -0.5458 H       
  44 H44            2.5711    -4.8685    -0.0462 H       
  45 H45            2.6719    -4.5047     1.6933 H       
  46 H46            1.0895    -4.5256     0.8787 H       
  47 H47            3.3622    -1.0658     0.6617 H       
  48 H48            3.6217    -2.2553     1.9602 H       
  49 H49            4.3512    -2.5141     0.3574 H       
@<TRIPOS>BOND
   1    1    2 ar
   2    1    5 ar
   3    1   33 1
   4    2    3 ar
   5    2   34 1
   6    3    4 ar
   7    3   28 1
   8    4    7 ar
   9    4   35 1
  10    5    7 ar
  11    5    6 1
  12    6    9 1
  13    6   10 1
  14    7    8 1
  15    8    9 2
  16    8   11 1
  17   10   22 ar
  18   10   21 ar
  19   11   12 1
  20   12   14 ar
  21   12   13 ar
  22   13   17 ar
  23   13   18 1
  24   14   15 ar
  25   14   27 1
  26   15   16 ar
  27   15   36 1
  28   16   17 ar
  29   16   37 1
  30   17   38 1
  31   19   20 ar
  32   19   23 ar
  33   19   24 1
  34   20   21 ar
  35   20   39 1
  36   21   40 1
  37   22   23 ar
  38   22   41 1
  39   23   42 1
  40   24   25 2
  41   24   26 1
  42   26   43 1
  43   28   29 2
  44   28   30 am
  45   30   31 1
  46   30   32 1
  47   31   44 1
  48   31   45 1
  49   31   46 1
  50   32   47 1
  51   32   48 1
  52   32   49 1

#	End of record

