#	Name: ASD11400011
#	Creating user name:	WinNT
#	Creation time:	15. 06. 2019 21:29

#	Modifying user name:	WinNT
#	Modification time:	15. 06. 2019 21:29

#	Program:	/corina/corina34_cracker 3.40 0067  02.08.2006

@<TRIPOS>MOLECULE
ASD11400011
  52   55    0    0    0
SMALL
NO_CHARGES


@<TRIPOS>ATOM
   1 N1            -0.0173     1.3652     0.0011 N.pl3   
   2 C2             0.0021    -0.0041     0.0020 C.2     
   3 N3             1.1473    -0.6467    -0.1036 N.2     
   4 C4             2.3030     0.0454    -0.2130 C.2     
   5 O5             2.5390     1.1120    -0.9995 O.3     
   6 N6             3.6730     1.5106    -0.8742 N.2     
   7 C7             4.3544     0.8027    -0.0161 C.2     
   8 C8             3.4872    -0.1932     0.4661 C.2     
   9 C9             5.7915     1.0148     0.3848 C.3     
  10 C10            5.8453     1.8496     1.6383 C.ar    
  11 C11            6.5023     3.0667     1.6276 C.ar    
  12 C12            6.5555     3.8365     2.7722 C.ar    
  13 C13            5.9455     3.3864     3.9408 C.ar    
  14 C14            5.2833     2.1578     3.9470 C.ar    
  15 C15            5.2327     1.3982     2.7931 C.ar    
  16 F16            4.6895     1.7141     5.0765 F       
  17 C17            6.0000     4.2094     5.1741 C.ar    
  18 C18            4.8333     4.4799     5.8864 C.ar    
  19 C19            4.8899     5.2456     7.0332 C.ar    
  20 C20            6.1017     5.7447     7.4756 C.ar    
  21 C21            7.2630     5.4793     6.7724 C.ar    
  22 C22            7.2189     4.7099     5.6275 C.ar    
  23 C23            6.4536    -0.3397     0.6452 C.3     
  24 N24           -1.1690    -0.7054     0.1128 N.pl3   
  25 C25           -2.4462    -0.0143     0.3502 C.3     
  26 C26           -3.4640    -0.5111    -0.6828 C.3     
  27 O27           -3.5011    -1.9400    -0.6576 O.3     
  28 C28           -2.2664    -2.5639    -1.0184 C.3     
  29 C29           -1.1880    -2.1718    -0.0082 C.3     
  30 H30            0.8144     1.8621     0.0485 H       
  31 H31           -0.8625     1.8383    -0.0511 H       
  32 H32            3.6964    -0.9661     1.1909 H       
  33 H33            6.3203     1.5295    -0.4174 H       
  34 H34            6.9752     3.4155     0.7215 H       
  35 H35            7.0697     4.7862     2.7618 H       
  36 H36            4.7208     0.4472     2.7956 H       
  37 H37            3.8865     4.0913     5.5415 H       
  38 H38            3.9862     5.4559     7.5861 H       
  39 H39            6.1413     6.3441     8.3731 H       
  40 H40            8.2064     5.8718     7.1221 H       
  41 H41            8.1262     4.5033     5.0792 H       
  42 H42            6.4147    -0.9435    -0.2614 H       
  43 H43            7.4931    -0.1862     0.9352 H       
  44 H44            5.9248    -0.8543     1.4475 H       
  45 H45           -2.8038    -0.2386     1.3552 H       
  46 H46           -2.3075     1.0613     0.2410 H       
  47 H47           -4.4509    -0.1170    -0.4403 H       
  48 H48           -3.1698    -0.1720    -1.6761 H       
  49 H49           -2.3917    -3.6467    -1.0172 H       
  50 H50           -1.9678    -2.2323    -2.0129 H       
  51 H51           -0.2164    -2.5259    -0.3524 H       
  52 H52           -1.4169    -2.6117     0.9625 H       
@<TRIPOS>BOND
   1    1    2 1
   2    1   30 1
   3    1   31 1
   4    2    3 2
   5    2   24 1
   6    3    4 1
   7    4    5 1
   8    4    8 2
   9    5    6 1
  10    6    7 2
  11    7    8 1
  12    7    9 1
  13    8   32 1
  14    9   10 1
  15    9   23 1
  16    9   33 1
  17   10   11 ar
  18   10   15 ar
  19   11   12 ar
  20   11   34 1
  21   12   13 ar
  22   12   35 1
  23   13   14 ar
  24   13   17 1
  25   14   15 ar
  26   14   16 1
  27   15   36 1
  28   17   18 ar
  29   17   22 ar
  30   18   19 ar
  31   18   37 1
  32   19   20 ar
  33   19   38 1
  34   20   21 ar
  35   20   39 1
  36   21   22 ar
  37   21   40 1
  38   22   41 1
  39   23   42 1
  40   23   43 1
  41   23   44 1
  42   24   25 1
  43   24   29 1
  44   25   26 1
  45   25   45 1
  46   25   46 1
  47   26   27 1
  48   26   47 1
  49   26   48 1
  50   27   28 1
  51   28   29 1
  52   28   49 1
  53   28   50 1
  54   29   51 1
  55   29   52 1

#	End of record

