#	Name: ASD13110045
#	Creating user name:	WinNT
#	Creation time:	15. 06. 2019 21:30

#	Modifying user name:	WinNT
#	Modification time:	15. 06. 2019 21:30

#	Program:	/corina/corina34_cracker 3.40 0067  02.08.2006

@<TRIPOS>MOLECULE
ASD13110045
  23   24    0    0    0
SMALL
NO_CHARGES


@<TRIPOS>ATOM
   1 C1            -0.0169     1.3930     0.0097 C.ar    
   2 C2             0.0021    -0.0041     0.0020 C.ar    
   3 C3             1.2344    -0.6792    -0.0134 C.ar    
   4 C4             2.4197     0.0425    -0.0208 C.ar    
   5 C5             2.3838     1.4206    -0.0131 C.ar    
   6 C6             1.1691     2.0927     0.0021 C.ar    
   7 N7             0.9302    -2.0264    -0.0173 N.pl3   
   8 C8            -0.4256    -2.1352    -0.0047 C.2     
   9 N9            -0.9691    -0.9531     0.0066 N.2     
  10 C10           -1.1873    -3.4355    -0.0034 C.3     
  11 N11           -1.5256    -3.8035     1.3779 N.3     
  12 C12           -2.2704    -5.0691     1.4182 C.3     
  13 Br13           1.1430     3.9835     0.0125 Br      
  14 H14           -0.9583     1.9222     0.0170 H       
  15 H15            3.3680    -0.4742    -0.0323 H       
  16 H16            3.3069     1.9812    -0.0189 H       
  17 H17            1.5657    -2.7592    -0.0274 H       
  18 H18           -2.1030    -3.3208    -0.5835 H       
  19 H19           -0.5716    -4.2177    -0.4474 H       
  20 H20           -0.6974    -3.8529     1.9521 H       
  21 H21           -3.1936    -4.9657     0.8480 H       
  22 H22           -1.6622    -5.8626     0.9841 H       
  23 H23           -2.5081    -5.3180     2.4524 H       
@<TRIPOS>BOND
   1    1    2 ar
   2    1    6 ar
   3    1   14 1
   4    2    9 1
   5    2    3 ar
   6    3    4 ar
   7    3    7 1
   8    4    5 ar
   9    4   15 1
  10    5    6 ar
  11    5   16 1
  12    6   13 1
  13    7    8 1
  14    7   17 1
  15    8   10 1
  16    8    9 2
  17   10   11 1
  18   10   18 1
  19   10   19 1
  20   11   12 1
  21   11   20 1
  22   12   21 1
  23   12   22 1
  24   12   23 1

#	End of record

