#	Name: ASD10220008
#	Creating user name:	WinNT
#	Creation time:	15. 06. 2019 21:26

#	Modifying user name:	WinNT
#	Modification time:	15. 06. 2019 21:26

#	Program:	/corina/corina34_cracker 3.40 0067  02.08.2006

@<TRIPOS>MOLECULE
ASD10220008
  39   41    0    0    0
SMALL
NO_CHARGES


@<TRIPOS>ATOM
   1 C1             0.1582     3.5843    -0.3751 C.2     
   2 C2             0.3935     4.8516    -0.9583 C.2     
   3 C3            -0.6256     5.6705    -1.3012 C.2     
   4 C4            -2.0239     5.2987    -1.0916 C.2     
   5 C5            -2.3374     4.0729    -0.5255 C.2     
   6 C6            -1.2595     3.1474    -0.1422 C.2     
   7 O7            -3.1797     5.9396    -1.3500 O.3     
   8 C8            -4.2346     5.2072    -0.9870 C.2     
   9 C9            -3.8015     4.0196    -0.4595 C.2     
  10 O10           -1.5081     2.0692     0.3549 O.2     
  11 O11            1.0861     2.8605    -0.0728 O.2     
  12 Br12           2.1734     5.4124    -1.2643 Br      
  13 C13           -4.6316     2.9203     0.0638 C.2     
  14 O14           -4.1119     1.8740     0.4030 O.2     
  15 C15           -6.0931     3.0886     0.1765 C.ar    
  16 C16           -6.6373     4.3582     0.3916 C.ar    
  17 C17           -8.0064     4.5129     0.4968 C.ar    
  18 Br18          -0.2304     7.3497    -2.0757 Br      
  19 C19           -8.8441     3.4054     0.3886 C.ar    
  20 C20           -8.3046     2.1392     0.1747 C.ar    
  21 C21           -6.9365     1.9796     0.0625 C.ar    
  22 O22           -9.1253     1.0599     0.0700 O.3     
  23 C23           -8.5045    -0.2084    -0.1492 C.3     
  24 O24          -10.1900     3.5604     0.4924 O.3     
  25 C25          -10.9088     3.8149    -0.7161 C.3     
  26 O26           -8.5365     5.7477     0.7066 O.3     
  27 C27           -7.6192     6.8387     0.8081 C.3     
  28 H28           -5.2676     5.5044    -1.0921 H       
  29 H29           -5.9882     5.2172     0.4760 H       
  30 H30           -6.5188     0.9977    -0.1037 H       
  31 H31           -7.9382    -0.1797    -1.0801 H       
  32 H32           -7.8315    -0.4314     0.6787 H       
  33 H33           -9.2702    -0.9815    -0.2134 H       
  34 H34          -11.9706     3.9179    -0.4925 H       
  35 H35          -10.5421     4.7356    -1.1699 H       
  36 H36          -10.7620     2.9854    -1.4078 H       
  37 H37           -8.1716     7.7635     0.9746 H       
  38 H38           -6.9399     6.6659     1.6428 H       
  39 H39           -7.0464     6.9190    -0.1158 H       
@<TRIPOS>BOND
   1    1    2 1
   2    1   11 2
   3    1    6 1
   4    2    3 2
   5    2   12 1
   6    3    4 1
   7    3   18 1
   8    4    5 2
   9    4    7 1
  10    5    6 1
  11    5    9 1
  12    6   10 2
  13    7    8 1
  14    8    9 2
  15    8   28 1
  16    9   13 1
  17   13   14 2
  18   13   15 1
  19   15   16 ar
  20   15   21 ar
  21   16   17 ar
  22   16   29 1
  23   17   19 ar
  24   17   26 1
  25   19   20 ar
  26   19   24 1
  27   20   21 ar
  28   20   22 1
  29   21   30 1
  30   22   23 1
  31   23   31 1
  32   23   32 1
  33   23   33 1
  34   24   25 1
  35   25   34 1
  36   25   35 1
  37   25   36 1
  38   26   27 1
  39   27   37 1
  40   27   38 1
  41   27   39 1

#	End of record

