#	Name: ASD14720004
#	Creating user name:	WinNT
#	Creation time:	15. 06. 2019 21:31

#	Modifying user name:	WinNT
#	Modification time:	15. 06. 2019 21:31

#	Program:	/corina/corina34_cracker 3.40 0067  02.08.2006

@<TRIPOS>MOLECULE
ASD14720004
  51   54    0    0    0
SMALL
NO_CHARGES


@<TRIPOS>ATOM
   1 N1             1.5034     3.8519     0.4533 N.3     
   2 C2             2.6505     2.9471     0.2769 C.3     
   3 C3             3.1180     3.0335    -1.1762 C.3     
   4 C4             3.3053     4.4758    -1.5716 C.ar    
   5 C5             1.9472     5.2487     0.4077 C.3     
   6 C6             4.0509     4.7593    -2.7060 C.ar    
   7 C7             4.2437     6.0665    -3.1052 C.ar    
   8 C8             3.6903     7.0987    -2.3705 C.ar    
   9 C9             2.9490     6.8177    -1.2407 C.ar    
  10 C10            2.7558     5.5045    -0.8371 C.ar    
  11 C11            0.7949     3.5653     1.7078 C.3     
  12 C12           -0.0727     4.7416     2.0748 C.2     
  13 C13           -0.0667     2.3418     1.5300 C.ar    
  14 N14            0.0260     5.4808     3.1527 N.2     
  15 N15           -1.0957     5.2408     1.3564 N.pl3   
  16 N16           -1.5718     6.2411     2.0177 N.2     
  17 N17           -0.8921     6.3832     3.1018 N.2     
  18 C18           -0.8114     0.5081     0.1824 C.ar    
  19 C19           -1.6491     0.0966     1.2025 C.ar    
  20 C20           -1.7005     0.8095     2.3850 C.ar    
  21 C21           -0.9090     1.9338     2.5500 C.ar    
  22 C22           -0.0205     1.6298     0.3462 C.ar    
  23 C23           -1.5776     4.7422     0.0659 C.3     
  24 C24           -2.4097     3.4774     0.2863 C.3     
  25 C25           -2.4431     5.8119    -0.6031 C.3     
  26 C26           -0.3833     4.4167    -0.8333 C.3     
  27 F27           -0.9585     2.6316     3.7058 F       
  28 H28            3.4606     3.2491     0.9408 H       
  29 H29            2.3488     1.9247     0.5044 H       
  30 H30            4.0640     2.5029    -1.2842 H       
  31 H31            2.3714     2.5746    -1.8244 H       
  32 H32            1.0761     5.9039     0.4124 H       
  33 H33            2.5588     5.4613     1.2846 H       
  34 H34            4.4832     3.9530    -3.2800 H       
  35 H35            4.8258     6.2824    -3.9889 H       
  36 H36            3.8380     8.1228    -2.6798 H       
  37 H37            2.5172     7.6247    -0.6674 H       
  38 H38            1.5199     3.3869     2.5020 H       
  39 H39           -0.7715    -0.0500    -0.7414 H       
  40 H40           -2.2668    -0.7799     1.0733 H       
  41 H41           -2.3552     0.4881     3.1815 H       
  42 H42            0.6335     1.9503    -0.4513 H       
  43 H43           -3.3456     3.7395     0.7798 H       
  44 H44           -2.6242     3.0114    -0.6754 H       
  45 H45           -1.8522     2.7801     0.9117 H       
  46 H46           -1.8503     6.7131    -0.7601 H       
  47 H47           -2.8017     5.4410    -1.5632 H       
  48 H48           -3.2940     6.0438     0.0376 H       
  49 H49           -0.1220     3.3642    -0.7235 H       
  50 H50           -0.6444     4.6199    -1.8719 H       
  51 H51            0.4674     5.0342    -0.5451 H       
@<TRIPOS>BOND
   1    1    2 1
   2    1    5 1
   3    1   11 1
   4    2    3 1
   5    2   28 1
   6    2   29 1
   7    3    4 1
   8    3   30 1
   9    3   31 1
  10    4    6 ar
  11    4   10 ar
  12    5   10 1
  13    5   32 1
  14    5   33 1
  15    6    7 ar
  16    6   34 1
  17    7    8 ar
  18    7   35 1
  19    8    9 ar
  20    8   36 1
  21    9   10 ar
  22    9   37 1
  23   11   12 1
  24   11   13 1
  25   11   38 1
  26   12   15 1
  27   12   14 2
  28   13   22 ar
  29   13   21 ar
  30   14   17 1
  31   15   16 1
  32   15   23 1
  33   16   17 2
  34   18   19 ar
  35   18   22 ar
  36   18   39 1
  37   19   20 ar
  38   19   40 1
  39   20   21 ar
  40   20   41 1
  41   21   27 1
  42   22   42 1
  43   23   24 1
  44   23   25 1
  45   23   26 1
  46   24   43 1
  47   24   44 1
  48   24   45 1
  49   25   46 1
  50   25   47 1
  51   25   48 1
  52   26   49 1
  53   26   50 1
  54   26   51 1

#	End of record

