#	Name: ASD10950071
#	Creating user name:	WinNT
#	Creation time:	15. 06. 2019 21:28

#	Modifying user name:	WinNT
#	Modification time:	15. 06. 2019 21:28

#	Program:	/corina/corina34_cracker 3.40 0067  02.08.2006

@<TRIPOS>MOLECULE
ASD10950071
  49   51    0    0    0
SMALL
NO_CHARGES


@<TRIPOS>ATOM
   1 C1            -0.0176     1.4478     0.0100 C.3     
   2 O2             0.0021    -0.0041     0.0020 O.3     
   3 C3             0.6005    -0.6018    -1.0464 C.2     
   4 O4             1.0924     0.0714    -1.9298 O.2     
   5 C5             0.6585    -2.0760    -1.1219 C.ar    
   6 C6             1.2780    -2.6989    -2.2072 C.ar    
   7 C7             1.3286    -4.0759    -2.2713 C.ar    
   8 C8             0.7672    -4.8396    -1.2633 C.ar    
   9 C9             0.1518    -4.2289    -0.1850 C.ar    
  10 C10            0.0991    -2.8528    -0.1054 C.ar    
  11 C11            0.8259    -6.3435    -1.3405 C.3     
  12 N12            1.0995    -6.9064    -0.0132 N.am    
  13 C13            2.2913    -6.6541     0.8005 C.3     
  14 C14            2.0484    -5.4387     1.6976 C.3     
  15 C15            3.2744    -5.1792     2.5346 C.ar    
  16 C16            4.2685    -4.3426     2.0630 C.ar    
  17 C17            5.3941    -4.1039     2.8298 C.ar    
  18 C18            5.5264    -4.7016     4.0685 C.ar    
  19 C19            4.5309    -5.5396     4.5422 C.ar    
  20 C20            3.4017    -5.7733     3.7761 C.ar    
  21 F21            4.6591    -6.1245     5.7533 F       
  22 C22            0.0630    -7.6945     0.3250 C.2     
  23 O23           -0.0310    -8.3146     1.3653 O.2     
  24 C24           -0.9459    -7.6935    -0.7573 C.2     
  25 C25           -0.5155    -6.8945    -1.7647 C.2     
  26 C26           -1.1919    -6.6280    -2.9787 C.2     
  27 O27           -2.2711    -7.1388    -3.1968 O.2     
  28 C28           -0.5723    -5.7101    -4.0007 C.3     
  29 O29           -2.1107    -8.3792    -0.7437 O.3     
  30 H30            1.0050     1.8251     0.0023 H       
  31 H31           -0.5448     1.8089    -0.8731 H       
  32 H32           -0.5278     1.7993     0.9068 H       
  33 H33            1.7163    -2.1039    -2.9948 H       
  34 H34            1.8071    -4.5589    -3.1104 H       
  35 H35           -0.2847    -4.8310     0.5982 H       
  36 H36           -0.3815    -2.3774     0.7369 H       
  37 H37            1.5984    -6.6523    -2.0449 H       
  38 H38            2.4999    -7.5267     1.4196 H       
  39 H39            3.1424    -6.4597     0.1479 H       
  40 H40            1.8398    -4.5661     1.0785 H       
  41 H41            1.1973    -5.6331     2.3502 H       
  42 H42            4.1662    -3.8753     1.0948 H       
  43 H43            6.1704    -3.4503     2.4601 H       
  44 H44            6.4060    -4.5156     4.6669 H       
  45 H45            2.6247    -6.4267     4.1445 H       
  46 H46            0.3882    -5.3508    -3.6315 H       
  47 H47           -0.4227    -6.2534    -4.9337 H       
  48 H48           -1.2344    -4.8621    -4.1762 H       
  49 H49           -2.2523    -8.8981     0.0599 H       
@<TRIPOS>BOND
   1    1    2 1
   2    1   30 1
   3    1   31 1
   4    1   32 1
   5    2    3 1
   6    3    4 2
   7    3    5 1
   8    5    6 ar
   9    5   10 ar
  10    6    7 ar
  11    6   33 1
  12    7    8 ar
  13    7   34 1
  14    8    9 ar
  15    8   11 1
  16    9   10 ar
  17    9   35 1
  18   10   36 1
  19   11   12 1
  20   11   25 1
  21   11   37 1
  22   12   13 1
  23   12   22 am
  24   13   14 1
  25   13   38 1
  26   13   39 1
  27   14   15 1
  28   14   40 1
  29   14   41 1
  30   15   16 ar
  31   15   20 ar
  32   16   17 ar
  33   16   42 1
  34   17   18 ar
  35   17   43 1
  36   18   19 ar
  37   18   44 1
  38   19   20 ar
  39   19   21 1
  40   20   45 1
  41   22   23 2
  42   22   24 1
  43   24   25 2
  44   24   29 1
  45   25   26 1
  46   26   27 2
  47   26   28 1
  48   28   46 1
  49   28   47 1
  50   28   48 1
  51   29   49 1

#	End of record

