#	Name: ASD10410166
#	Creating user name:	WinNT
#	Creation time:	15. 06. 2019 21:27

#	Modifying user name:	WinNT
#	Modification time:	15. 06. 2019 21:27

#	Program:	/corina/corina34_cracker 3.40 0067  02.08.2006

@<TRIPOS>MOLECULE
ASD10410166
  67   73    0    0    0
SMALL
NO_CHARGES


@<TRIPOS>ATOM
   1 C1            -0.0558     1.5067    -0.1622 C.ar    
   2 C2            -0.0505     0.1276    -0.0056 C.ar    
   3 C3             1.1546    -0.5522     0.1266 C.ar    
   4 C4             2.3468     0.1452     0.1021 C.ar    
   5 C5             2.3407     1.5253    -0.0547 C.ar    
   6 C6             1.1365     2.2038    -0.1866 C.ar    
   7 Cl7            1.1616    -2.2770     0.3231 Cl      
   8 N8             3.5491     2.2325    -0.0795 N.pl3   
   9 C9             3.6580     3.4009    -0.8336 C.2     
  10 N10            4.6957     4.2029    -0.8496 N.2     
  11 N11            2.7229     3.8812    -1.6616 N.2     
  12 C12            3.1499     4.9975    -2.2122 C.2     
  13 N13            4.3913     5.2492    -1.7352 N.pl3   
  14 C14            5.2080     6.3349    -2.0597 C.ar    
  15 N15            2.4550     5.7738    -3.1202 N.pl3   
  16 N16           -1.2595    -0.5789     0.0196 N.3     
  17 C17           -1.3866    -1.4474    -1.1590 C.3     
  18 C18           -2.6800    -2.2590    -1.0542 C.3     
  19 N19           -3.8239    -1.3420    -0.9534 N.3     
  20 C20           -3.6967    -0.4735     0.2252 C.3     
  21 C21           -2.4034     0.3381     0.1204 C.3     
  22 N22            4.7895     7.2508    -2.9148 N.ar    
  23 N23            5.5029     8.2639    -3.2426 N.ar    
  24 C24            6.7041     8.4790    -2.7606 C.ar    
  25 C25            7.2621     7.5680    -1.8356 C.ar    
  26 C26            6.4777     6.4646    -1.4754 C.ar    
  27 C27           -5.0920    -2.0831    -0.9270 C.3     
  28 C28           -5.2791    -2.8876    -2.2495 C.3     
  29 C29           -6.2877    -1.1040    -0.8926 C.3     
  30 C30           -7.0847    -1.4091    -2.1975 C.3     
  31 C31           -4.9771    -1.8566    -3.3796 C.3     
  32 C32           -6.1728    -0.8775    -3.3452 C.3     
  33 C33           -6.8452    -2.9547    -2.3290 C.3     
  34 C34            7.4860     9.6928    -3.1922 C.3     
  35 C35            8.5429     7.5640    -1.1597 C.2     
  36 C36            8.7383     6.5405    -0.3472 C.2     
  37 S37            7.3513     5.4669    -0.3256 S.3     
  38 H38           -0.9920     2.0343    -0.2694 H       
  39 H39            3.2834    -0.3825     0.2051 H       
  40 H40            1.1320     3.2769    -0.3085 H       
  41 H41            4.3104     1.9097     0.4276 H       
  42 H42            1.5666     5.5085    -3.4053 H       
  43 H43            2.8556     6.5840    -3.4723 H       
  44 H44           -1.4134    -0.8354    -2.0605 H       
  45 H45           -0.5345    -2.1255    -1.2047 H       
  46 H46           -2.7909    -2.8826    -1.9413 H       
  47 H47           -2.6416    -2.8914    -0.1672 H       
  48 H48           -4.5489     0.2046     0.2709 H       
  49 H49           -3.6699    -1.0856     1.1267 H       
  50 H50           -2.2925     0.9617     1.0075 H       
  51 H51           -2.4417     0.9705    -0.7666 H       
  52 H52           -5.1220    -2.7527    -0.0674 H       
  53 H53           -4.7418    -3.8338    -2.3117 H       
  54 H54           -6.9076    -1.2920    -0.0160 H       
  55 H55           -5.9346    -0.0728    -0.8953 H       
  56 H56           -8.1198    -1.0679    -2.2145 H       
  57 H57           -4.0468    -1.3276    -3.1727 H       
  58 H58           -4.9236    -2.3573    -4.3463 H       
  59 H59           -6.7072    -0.8968    -4.2950 H       
  60 H60           -5.8304     0.1328    -3.1214 H       
  61 H61           -7.1896    -3.3416    -3.2881 H       
  62 H62           -7.2737    -3.5074    -1.4929 H       
  63 H63            7.2672    10.5235    -2.5213 H       
  64 H64            8.5523     9.4692    -3.1580 H       
  65 H65            7.2041     9.9637    -4.2097 H       
  66 H66            9.2816     8.3376    -1.3086 H       
  67 H67            9.6367     6.3860     0.2320 H       
@<TRIPOS>BOND
   1    1    2 ar
   2    1    6 ar
   3    1   38 1
   4    2    3 ar
   5    2   16 1
   6    3    4 ar
   7    3    7 1
   8    4    5 ar
   9    4   39 1
  10    5    6 ar
  11    5    8 1
  12    6   40 1
  13    8    9 1
  14    8   41 1
  15    9   10 2
  16    9   11 1
  17   10   13 1
  18   11   12 2
  19   12   13 1
  20   12   15 1
  21   13   14 1
  22   14   22 ar
  23   14   26 ar
  24   15   42 1
  25   15   43 1
  26   16   17 1
  27   16   21 1
  28   17   18 1
  29   17   44 1
  30   17   45 1
  31   18   19 1
  32   18   46 1
  33   18   47 1
  34   19   20 1
  35   19   27 1
  36   20   21 1
  37   20   48 1
  38   20   49 1
  39   21   50 1
  40   21   51 1
  41   22   23 ar
  42   23   24 ar
  43   24   25 ar
  44   24   34 1
  45   25   26 ar
  46   25   35 1
  47   26   37 1
  48   27   28 1
  49   27   29 1
  50   27   52 1
  51   28   31 1
  52   28   33 1
  53   28   53 1
  54   29   30 1
  55   29   54 1
  56   29   55 1
  57   30   32 1
  58   30   33 1
  59   30   56 1
  60   31   32 1
  61   31   57 1
  62   31   58 1
  63   32   59 1
  64   32   60 1
  65   33   61 1
  66   33   62 1
  67   34   63 1
  68   34   64 1
  69   34   65 1
  70   35   36 2
  71   35   66 1
  72   36   37 1
  73   36   67 1

#	End of record

