#	Name: ASD11710032
#	Creating user name:	WinNT
#	Creation time:	15. 06. 2019 21:29

#	Modifying user name:	WinNT
#	Modification time:	15. 06. 2019 21:29

#	Program:	/corina/corina34_cracker 3.40 0067  02.08.2006

@<TRIPOS>MOLECULE
ASD11710032
  47   50    0    0    0
SMALL
NO_CHARGES


@<TRIPOS>ATOM
   1 C1             2.2720     1.6422    -3.1774 C.2     
   2 C2             1.7824     0.2847    -2.8532 C.ar    
   3 C3             2.6777    -0.7826    -2.7735 C.ar    
   4 C4             0.4240     0.0670    -2.6200 C.ar    
   5 C5            -0.0263    -1.2016    -2.3175 C.ar    
   6 C6             0.8659    -2.2566    -2.2452 C.ar    
   7 C7             2.2147    -2.0464    -2.4702 C.ar    
   8 S8             0.2827    -3.8736    -1.8584 S.o2    
   9 N9             0.0597    -4.6705    -3.2928 N.am    
  10 C10           -0.9482    -4.2620    -4.1693 C.ar    
  11 C11           -0.6225    -3.5838    -5.3370 C.ar    
  12 C12           -2.2781    -4.5380    -3.8780 C.ar    
  13 C13           -3.2721    -4.1326    -4.7468 C.ar    
  14 C14           -2.9448    -3.4530    -5.9058 C.ar    
  15 C15           -1.6215    -3.1813    -6.2014 C.ar    
  16 O16            1.3491    -4.5363    -1.1928 O.2     
  17 O17           -1.0075    -3.7087    -1.2862 O.2     
  18 N18            1.7957     2.7679    -2.6941 N.2     
  19 C19            2.4821     3.7946    -3.2088 C.2     
  20 C20            3.4209     3.3029    -4.0429 C.2     
  21 N21            3.2990     1.9397    -4.0247 N.pl3   
  22 C22            4.1114     0.9820    -4.7791 C.3     
  23 C23            3.3181     0.4636    -5.9508 C.ar    
  24 C24            3.3747     1.1175    -7.1674 C.ar    
  25 C25            2.6470     0.6420    -8.2422 C.ar    
  26 C26            1.8631    -0.4877    -8.1005 C.ar    
  27 C27            1.8072    -1.1421    -6.8842 C.ar    
  28 C28            2.5383    -0.6691    -5.8106 C.ar    
  29 H29            3.7308    -0.6198    -2.9493 H       
  30 H30           -0.2734     0.8898    -2.6758 H       
  31 H31           -1.0774    -1.3714    -2.1365 H       
  32 H32            2.9060    -2.8741    -2.4127 H       
  33 H33            0.6290    -5.4210    -3.5243 H       
  34 H34            0.4107    -3.3712    -5.5685 H       
  35 H35           -2.5344    -5.0693    -2.9734 H       
  36 H36           -4.3063    -4.3469    -4.5210 H       
  37 H37           -3.7241    -3.1378    -6.5839 H       
  38 H38           -1.3693    -2.6503    -7.1075 H       
  39 H39            2.3129     4.8392    -2.9933 H       
  40 H40            4.1365     3.8761    -4.6136 H       
  41 H41            5.0131     1.4762    -5.1409 H       
  42 H42            4.3880     0.1504    -4.1311 H       
  43 H43            3.9872     2.0002    -7.2781 H       
  44 H44            2.6907     1.1533    -9.1925 H       
  45 H45            1.2940    -0.8588    -8.9401 H       
  46 H46            1.1944    -2.0246    -6.7735 H       
  47 H47            2.4947    -1.1804    -4.8603 H       
@<TRIPOS>BOND
   1    1    2 1
   2    1   18 2
   3    1   21 1
   4    2    3 ar
   5    2    4 ar
   6    3    7 ar
   7    3   29 1
   8    4    5 ar
   9    4   30 1
  10    5    6 ar
  11    5   31 1
  12    6    7 ar
  13    6    8 1
  14    7   32 1
  15    8    9 am
  16    8   16 2
  17    8   17 2
  18    9   10 1
  19    9   33 1
  20   10   11 ar
  21   10   12 ar
  22   11   15 ar
  23   11   34 1
  24   12   13 ar
  25   12   35 1
  26   13   14 ar
  27   13   36 1
  28   14   15 ar
  29   14   37 1
  30   15   38 1
  31   18   19 1
  32   19   20 2
  33   19   39 1
  34   20   21 1
  35   20   40 1
  36   21   22 1
  37   22   23 1
  38   22   41 1
  39   22   42 1
  40   23   24 ar
  41   23   28 ar
  42   24   25 ar
  43   24   43 1
  44   25   26 ar
  45   25   44 1
  46   26   27 ar
  47   26   45 1
  48   27   28 ar
  49   27   46 1
  50   28   47 1

#	End of record

