#	Name: ASD10160345
#	Creating user name:	WinNT
#	Creation time:	15. 06. 2019 21:25

#	Modifying user name:	WinNT
#	Modification time:	15. 06. 2019 21:25

#	Program:	/corina/corina34_cracker 3.40 0067  02.08.2006

@<TRIPOS>MOLECULE
ASD10160345
  31   31    0    0    0
SMALL
NO_CHARGES


@<TRIPOS>ATOM
   1 C1            -1.7619     1.4110    -0.9227 C.2     
   2 C2            -1.6957    -0.0631    -0.8991 C.ar    
   3 C3            -2.3301    -0.8106    -1.8971 C.ar    
   4 C4            -2.2641    -2.1905    -1.8698 C.ar    
   5 C5            -1.5716    -2.8332    -0.8571 C.ar    
   6 C6            -0.9399    -2.0959     0.1363 C.ar    
   7 C7            -0.9943    -0.7175     0.1167 C.ar    
   8 O8            -2.3687     1.9781    -1.8106 O.2     
   9 N9            -1.1544     2.1283     0.0432 N.am    
  10 F10           -0.2667    -2.7299     1.1212 F       
  11 F11           -1.5107    -4.1826    -0.8351 F       
  12 F12           -3.0063    -0.1847    -2.8852 F       
  13 S13           -1.1199     3.7813    -0.0508 S.o2    
  14 O14           -2.4804     4.1507    -0.2286 O.2     
  15 O15           -0.3966     4.1829     1.1045 O.2     
  16 C16           -0.1643     4.1293    -1.5529 C.3     
  17 C17           -0.0242     5.6427    -1.7291 C.3     
  18 C18           -1.4036     6.2572    -1.9754 C.3     
  19 C19            1.2247     3.4994    -1.4312 C.3     
  20 H20           -2.7536    -2.7689    -2.6393 H       
  21 H21           -0.4992    -0.1455     0.8874 H       
  22 H22           -0.7375     1.6764     0.7934 H       
  23 H23           -0.6793     3.7091    -2.4168 H       
  24 H24            0.4103     6.0747    -0.8277 H       
  25 H25            0.6236     5.8510    -2.5806 H       
  26 H26           -1.3038     7.3354    -2.1009 H       
  27 H27           -1.8381     5.8252    -2.8768 H       
  28 H28           -2.0514     6.0489    -1.1239 H       
  29 H29            1.1295     2.4142    -1.3942 H       
  30 H30            1.8287     3.7820    -2.2934 H       
  31 H31            1.7055     3.8532    -0.5191 H       
@<TRIPOS>BOND
   1    1    2 1
   2    1    8 2
   3    1    9 am
   4    2    3 ar
   5    2    7 ar
   6    3    4 ar
   7    3   12 1
   8    4    5 ar
   9    4   20 1
  10    5    6 ar
  11    5   11 1
  12    6    7 ar
  13    6   10 1
  14    7   21 1
  15    9   13 am
  16    9   22 1
  17   13   14 2
  18   13   15 2
  19   13   16 1
  20   16   17 1
  21   16   19 1
  22   16   23 1
  23   17   18 1
  24   17   24 1
  25   17   25 1
  26   18   26 1
  27   18   27 1
  28   18   28 1
  29   19   29 1
  30   19   30 1
  31   19   31 1

#	End of record

