#	Name: ASD14640010
#	Creating user name:	WinNT
#	Creation time:	15. 06. 2019 21:31

#	Modifying user name:	WinNT
#	Modification time:	15. 06. 2019 21:31

#	Program:	/corina/corina34_cracker 3.40 0067  02.08.2006

@<TRIPOS>MOLECULE
ASD14640010
  33   35    0    0    0
SMALL
NO_CHARGES


@<TRIPOS>ATOM
   1 C1            -0.0178     1.4642     0.0101 C.3     
   2 N2             0.0021    -0.0041     0.0020 N.3     
   3 C3             0.6689    -0.5327     1.1988 C.3     
   4 C4             2.1246    -0.0613     1.2235 C.3     
   5 C5             2.1603     1.4695     1.2306 C.3     
   6 C6             1.4174     1.9953    -0.0008 C.3     
   7 C7             2.8129    -0.5941     2.4818 C.3     
   8 C8             2.8823    -2.0981     2.4177 C.ar    
   9 C9             3.9306    -2.7193     1.7500 C.ar    
  10 C10            1.9090    -2.8615     3.0261 C.ar    
  11 C11            1.9607    -4.2470     2.9747 C.ar    
  12 C12            2.9810    -4.8778     2.3184 C.ar    
  13 C13            5.7442    -3.2765     0.6021 C.2     
  14 O14            5.0061    -2.2594     1.0800 O.3     
  15 C15            3.9773    -4.1226     1.7016 C.ar    
  16 C16            5.1869    -4.4483     0.9365 C.2     
  17 H17           -0.5453     1.8252    -0.8729 H       
  18 H18           -0.5283     1.8156     0.9068 H       
  19 H19           -0.9309    -0.3779    -0.0869 H       
  20 H20            0.1552    -0.1719     2.0900 H       
  21 H21            0.6402    -1.6221     1.1793 H       
  22 H22            2.6426    -0.4332     0.3395 H       
  23 H23            1.6765     1.8409     2.1340 H       
  24 H24            3.1954     1.8099     1.2044 H       
  25 H25            1.9242     1.6557    -0.9040 H       
  26 H26            1.4024     3.0849     0.0210 H       
  27 H27            3.8217    -0.1862     2.5445 H       
  28 H28            2.2442    -0.2938     3.3618 H       
  29 H29            1.0979    -2.3760     3.5485 H       
  30 H30            1.1905    -4.8310     3.4565 H       
  31 H31            3.0173    -5.9566     2.2819 H       
  32 H32            6.6543    -3.1653     0.0313 H       
  33 H33            5.5537    -5.4342     0.6918 H       
@<TRIPOS>BOND
   1    1    2 1
   2    1    6 1
   3    1   17 1
   4    1   18 1
   5    2    3 1
   6    2   19 1
   7    3    4 1
   8    3   20 1
   9    3   21 1
  10    4    5 1
  11    4    7 1
  12    4   22 1
  13    5    6 1
  14    5   23 1
  15    5   24 1
  16    6   25 1
  17    6   26 1
  18    7    8 1
  19    7   27 1
  20    7   28 1
  21    8   10 ar
  22    8    9 ar
  23    9   15 ar
  24    9   14 1
  25   10   11 ar
  26   10   29 1
  27   11   12 ar
  28   11   30 1
  29   12   15 ar
  30   12   31 1
  31   13   14 1
  32   13   16 2
  33   13   32 1
  34   15   16 1
  35   16   33 1

#	End of record

