#	Name: ASD11320012
#	Creating user name:	WinNT
#	Creation time:	15. 06. 2019 21:29

#	Modifying user name:	WinNT
#	Modification time:	15. 06. 2019 21:29

#	Program:	/corina/corina34_cracker 3.40 0067  02.08.2006

@<TRIPOS>MOLECULE
ASD11320012
  41   45    0    0    0
SMALL
NO_CHARGES


@<TRIPOS>ATOM
   1 O1            -0.0162     1.3428     0.0094 O.3     
   2 N2            -6.5755    -2.8959     0.0478 N.pl3   
   3 N3            -2.4813    -2.6485     0.0100 N.pl3   
   4 N4            -6.9063    -1.5351     0.0595 N.2     
   5 N5            -4.3681    -4.0415     0.0188 N.2     
   6 N6            -2.4568    -0.4758     0.0234 N.2     
   7 N7            -1.1521    -2.2069    -0.0000 N.2     
   8 N8            -2.2632    -4.9963    -0.0074 N.pl3   
   9 C9            -7.5262    -4.0105     0.0444 C.3     
  10 C10           -5.2172    -3.0046     0.0340 C.2     
  11 C11           -4.7118    -1.6957     0.0374 C.2     
  12 C12           -7.8651    -4.3875    -1.3992 C.3     
  13 C13           -3.2592    -1.5200     0.0246 C.2     
  14 C14           -5.8136    -0.8218     0.0591 C.2     
  15 C15           -3.0676    -3.8808     0.0078 C.2     
  16 C16           -8.8430    -5.5341    -1.4026 C.ar    
  17 C17           -1.1827    -0.8876     0.0086 C.2     
  18 C18          -10.2023    -5.2832    -1.3932 C.ar    
  19 C19           -8.3807    -6.8367    -1.4208 C.ar    
  20 C20            0.0021    -0.0041     0.0020 C.2     
  21 C21          -11.0994    -6.3349    -1.3963 C.ar    
  22 C22           -9.2777    -7.8885    -1.4239 C.ar    
  23 C23            1.2995    -0.4096    -0.0125 C.2     
  24 C24          -10.6371    -7.6376    -1.4092 C.ar    
  25 C25            2.0895     0.7572    -0.0138 C.2     
  26 C26            1.2439     1.8063    -0.0001 C.2     
  27 H27           -7.0820    -4.8684     0.5493 H       
  28 H28           -8.4363    -3.7134     0.5656 H       
  29 H29           -8.3092    -3.5296    -1.9040 H       
  30 H30           -6.9550    -4.6846    -1.9203 H       
  31 H31           -5.7638     0.2570     0.0669 H       
  32 H32          -10.5635    -4.2654    -1.3831 H       
  33 H33           -7.3187    -7.0327    -1.4329 H       
  34 H34           -1.2982    -4.8982    -0.0164 H       
  35 H35           -2.6608    -5.8810    -0.0092 H       
  36 H36          -12.1614    -6.1389    -1.3882 H       
  37 H37           -8.9166    -8.9062    -1.4385 H       
  38 H38            1.6560    -1.4291    -0.0209 H       
  39 H39          -11.3379    -8.4594    -1.4113 H       
  40 H40            3.1685     0.8021    -0.0239 H       
  41 H41            1.5320     2.8472     0.0024 H       
@<TRIPOS>BOND
   1    1   20 1
   2    1   26 1
   3    2    4 1
   4    2    9 1
   5    2   10 1
   6    3    7 1
   7    3   13 1
   8    3   15 1
   9    4   14 2
  10    5   10 1
  11    5   15 2
  12    6   13 2
  13    6   17 1
  14    7   17 2
  15    8   15 1
  16    8   34 1
  17    8   35 1
  18    9   12 1
  19    9   27 1
  20    9   28 1
  21   10   11 2
  22   11   13 1
  23   11   14 1
  24   12   16 1
  25   12   29 1
  26   12   30 1
  27   14   31 1
  28   16   18 ar
  29   16   19 ar
  30   17   20 1
  31   18   21 ar
  32   18   32 1
  33   19   22 ar
  34   19   33 1
  35   20   23 2
  36   21   24 ar
  37   21   36 1
  38   22   24 ar
  39   22   37 1
  40   23   25 1
  41   23   38 1
  42   24   39 1
  43   25   26 2
  44   25   40 1
  45   26   41 1

#	End of record

