#	Name: ASD10420198
#	Creating user name:	WinNT
#	Creation time:	15. 06. 2019 21:27

#	Modifying user name:	WinNT
#	Modification time:	15. 06. 2019 21:27

#	Program:	/corina/corina34_cracker 3.40 0067  02.08.2006

@<TRIPOS>MOLECULE
ASD10420198
  32   34    0    0    0
SMALL
NO_CHARGES


@<TRIPOS>ATOM
   1 C1            -0.0166     1.3756     0.0096 C.ar    
   2 C2             0.0021    -0.0041     0.0020 C.ar    
   3 C3             2.0417    -4.2275    -0.9578 C.ar    
   4 C4             2.0216    -2.8477    -0.9552 C.ar    
   5 C5             0.5184    -4.2666     0.8949 C.ar    
   6 C6             2.4127     0.0364    -0.0204 C.ar    
   7 C7             0.4701    -7.1705     0.9995 C.3     
   8 C8             1.9937    -7.1440     1.1361 C.3     
   9 C9             1.4521    -7.0821    -1.4024 C.2     
  10 C10            0.4901    -2.8842     0.9075 C.ar    
  11 C11            1.1712     2.0866     0.0021 C.ar    
  12 C12            2.3840     1.4173    -0.0131 C.ar    
  13 C13            1.2194    -0.6826    -0.0133 C.ar    
  14 C14            1.2921    -4.9356    -0.0353 C.ar    
  15 C15            1.2444    -2.1660    -0.0210 C.ar    
  16 C16            1.3192    -6.4424    -0.0444 C.3     
  17 O17            0.8988    -8.1312    -1.6327 O.2     
  18 O18            2.1853    -6.4865    -2.3560 O.3     
  19 Cl19           3.8696     2.3154    -0.0220 Cl      
  20 Cl20           1.1407     3.8223     0.0112 Cl      
  21 F21           -0.2664    -2.2305     1.8163 F       
  22 H22           -0.9597     1.9018     0.0169 H       
  23 H23           -0.9254    -0.5574     0.0083 H       
  24 H24            2.6406    -4.7561    -1.6847 H       
  25 H25            2.6078    -2.2969    -1.6760 H       
  26 H26           -0.0644    -4.8245     1.6129 H       
  27 H27            3.3585    -0.4850    -0.0319 H       
  28 H28            0.0076    -8.1123     0.7040 H       
  29 H29           -0.1081    -6.5597     1.6928 H       
  30 H30            2.4179    -6.5157     1.9194 H       
  31 H31            2.5336    -8.0683     0.9306 H       
  32 H32            2.2411    -6.9347    -3.2110 H       
@<TRIPOS>BOND
   1    1    2 ar
   2    1   11 ar
   3    1   22 1
   4    2   13 ar
   5    2   23 1
   6    3    4 ar
   7    3   14 ar
   8    3   24 1
   9    4   15 ar
  10    4   25 1
  11    5   10 ar
  12    5   14 ar
  13    5   26 1
  14    6   12 ar
  15    6   13 ar
  16    6   27 1
  17    7    8 1
  18    7   16 1
  19    7   28 1
  20    7   29 1
  21    8   16 1
  22    8   30 1
  23    8   31 1
  24    9   16 1
  25    9   17 2
  26    9   18 1
  27   10   15 ar
  28   10   21 1
  29   11   12 ar
  30   11   20 1
  31   12   19 1
  32   13   15 1
  33   14   16 1
  34   18   32 1

#	End of record

