#	Name: ASD15280012
#	Creating user name:	WinNT
#	Creation time:	15. 06. 2019 21:31

#	Modifying user name:	WinNT
#	Modification time:	15. 06. 2019 21:31

#	Program:	/corina/corina34_cracker 3.40 0067  02.08.2006

@<TRIPOS>MOLECULE
ASD15280012
  54   58    0    0    0
SMALL
NO_CHARGES


@<TRIPOS>ATOM
   1 F1             0.0021    -0.0041     0.0020 F       
   2 C2            -0.0162     1.3468     0.0094 C.ar    
   3 C3            -1.2264     2.0211     0.0304 C.ar    
   4 C4            -1.2497     3.4006     0.0381 C.ar    
   5 C5            -0.0538     4.1157     0.0251 C.ar    
   6 C6             1.1611     3.4335     0.0045 C.ar    
   7 C7             1.1753     2.0538     0.0019 C.ar    
   8 C8            -0.0739     5.5994     0.0328 C.ar    
   9 C9            -1.2882     6.2820     0.0588 C.ar    
  10 C10           -1.3011     7.6623     0.0663 C.ar    
  11 C11           -0.1115     8.3675     0.0481 C.ar    
  12 C12            1.0971     7.6948     0.0218 C.ar    
  13 C13            2.3891     8.4702     0.0021 C.3     
  14 N14            2.8335     8.7138     1.3767 N.am    
  15 C15            3.9742     9.3942     1.6056 C.2     
  16 O16            4.6342     9.8058     0.6715 O.2     
  17 C17            4.4227     9.6400     2.9929 C.ar    
  18 C18            3.6685     9.1627     4.0660 C.ar    
  19 C19            4.0983     9.3914     5.3572 C.ar    
  20 C20            5.2652    10.0936     5.5908 C.ar    
  21 C21            6.0231    10.5840     4.5357 C.ar    
  22 N22            7.1814    11.3114     4.7386 N.am    
  23 C23            8.1948    11.1156     5.5382 C.2     
  24 O24            9.0852    11.9392     5.4565 O.2     
  25 C25            8.4181    10.0516     6.5189 C.ar    
  26 C26            9.6782     9.4483     6.6121 C.ar    
  27 C27            9.9008     8.4504     7.5361 C.ar    
  28 C28            8.8840     8.0377     8.3784 C.ar    
  29 C29            7.6335     8.6259     8.2938 C.ar    
  30 C30            7.3999     9.6211     7.3715 C.ar    
  31 S31            5.8031    10.3608     7.2506 S.o2    
  32 O32            5.9942    11.7616     7.3938 O.2     
  33 O33            4.9399     9.5991     8.0836 O.2     
  34 C34            5.6009    10.3428     3.2303 C.ar    
  35 C35            1.1218     6.3151     0.0199 C.ar    
  36 H36           -2.1528     1.4660     0.0404 H       
  37 H37           -2.1935     3.9254     0.0537 H       
  38 H38            2.0903     3.9839    -0.0056 H       
  39 H39            2.1164     1.5242    -0.0103 H       
  40 H40           -2.2177     5.7322     0.0726 H       
  41 H41           -2.2418     8.1924     0.0860 H       
  42 H42           -0.1262     9.4474     0.0540 H       
  43 H43            3.1489     7.8969    -0.5292 H       
  44 H44            2.2333     9.4232    -0.5036 H       
  45 H45            2.3068     8.3853     2.1220 H       
  46 H46            2.7534     8.6178     3.8868 H       
  47 H47            3.5193     9.0197     6.1897 H       
  48 H48            7.2540    12.1078     4.1897 H       
  49 H49           10.4772     9.7653     5.9584 H       
  50 H50           10.8744     7.9877     7.6028 H       
  51 H51            9.0655     7.2565     9.1018 H       
  52 H52            6.8400     8.3031     8.9517 H       
  53 H53            6.1874    10.7061     2.3994 H       
  54 H54            2.0659     5.7909     0.0039 H       
@<TRIPOS>BOND
   1    1    2 1
   2    2    7 ar
   3    2    3 ar
   4    3    4 ar
   5    3   36 1
   6    4    5 ar
   7    4   37 1
   8    5    6 ar
   9    5    8 1
  10    6    7 ar
  11    6   38 1
  12    7   39 1
  13    8   35 ar
  14    8    9 ar
  15    9   10 ar
  16    9   40 1
  17   10   11 ar
  18   10   41 1
  19   11   12 ar
  20   11   42 1
  21   12   13 1
  22   12   35 ar
  23   13   14 1
  24   13   43 1
  25   13   44 1
  26   14   15 am
  27   14   45 1
  28   15   16 2
  29   15   17 1
  30   17   34 ar
  31   17   18 ar
  32   18   19 ar
  33   18   46 1
  34   19   20 ar
  35   19   47 1
  36   20   31 1
  37   20   21 ar
  38   21   22 1
  39   21   34 ar
  40   22   23 am
  41   22   48 1
  42   23   24 2
  43   23   25 1
  44   25   30 ar
  45   25   26 ar
  46   26   27 ar
  47   26   49 1
  48   27   28 ar
  49   27   50 1
  50   28   29 ar
  51   28   51 1
  52   29   30 ar
  53   29   52 1
  54   30   31 1
  55   31   32 2
  56   31   33 2
  57   34   53 1
  58   35   54 1

#	End of record

