#	Name: ASD10410103
#	Creating user name:	WinNT
#	Creation time:	15. 06. 2019 21:26

#	Modifying user name:	WinNT
#	Modification time:	15. 06. 2019 21:26

#	Program:	/corina/corina34_cracker 3.40 0067  02.08.2006

@<TRIPOS>MOLECULE
ASD10410103
  70   76    0    0    0
SMALL
NO_CHARGES


@<TRIPOS>ATOM
   1 C1            -0.1043     1.3638    -0.4216 C.ar    
   2 C2            -0.0552     0.0026    -0.1509 C.ar    
   3 C3             1.1417    -0.5857     0.2360 C.ar    
   4 C4             2.2831     0.1827     0.3516 C.ar    
   5 C5             2.2341     1.5439     0.0804 C.ar    
   6 C6             1.0371     2.1322    -0.3066 C.ar    
   7 N7             3.3916     2.3233     0.1980 N.pl3   
   8 C8             3.5710     3.4338    -0.6260 C.2     
   9 N9             4.5583     4.2926    -0.5399 N.2     
  10 N10            2.7662     3.7897    -1.6343 N.2     
  11 C11            3.2246     4.8839    -2.2032 C.2     
  12 N12            4.3603     5.2484    -1.5494 N.pl3   
  13 C13            5.1652     6.3491    -1.8257 C.ar    
  14 N14            2.6559     5.5430    -3.2757 N.pl3   
  15 N15           -1.2123    -0.7763    -0.2676 N.3     
  16 C16           -0.9369    -2.1814     0.0634 C.3     
  17 C17           -2.2398    -2.9821     0.0013 C.3     
  18 N18           -2.8202    -2.8649    -1.3437 N.3     
  19 C19           -3.0955    -1.4598    -1.6747 C.3     
  20 C20           -1.7927    -0.6590    -1.6126 C.3     
  21 N21            4.6449     7.5651    -1.8834 N.ar    
  22 C22            5.3960     8.6193    -2.1446 C.ar    
  23 N23            6.6878     8.5217    -2.3598 N.ar    
  24 C24            7.3050     7.3353    -2.3226 C.ar    
  25 C25            6.5558     6.1871    -2.0438 C.ar    
  26 C26           -4.6289    -3.5549    -2.8874 C.3     
  27 C27           -4.5860    -5.0030    -3.4640 C.3     
  28 C28           -3.0702    -5.2865    -3.6946 C.3     
  29 C29           -2.4758    -5.4140    -2.2733 C.3     
  30 C30           -4.0345    -3.6823    -1.4661 C.3     
  31 C31           -3.6885    -5.1955    -1.3178 C.3     
  32 C32           -4.8432    -5.8412    -2.1622 C.3     
  33 S33            8.9893     6.8958    -2.5649 S.3     
  34 C34            8.6541     5.1956    -2.2972 C.2     
  35 C35            7.3763     4.9909    -2.0422 C.2     
  36 C36            9.6950     4.1069    -2.3471 C.3     
  37 C37            6.8117     3.6197    -1.7733 C.3     
  38 H38           -1.0343     1.8206    -0.7265 H       
  39 H39            1.1798    -1.6442     0.4469 H       
  40 H40            3.2138    -0.2747     0.6532 H       
  41 H41            0.9991     3.1907    -0.5178 H       
  42 H42            4.0685     2.0907     0.8527 H       
  43 H43            1.8417     5.2022    -3.6781 H       
  44 H44            3.0707     6.3466    -3.6265 H       
  45 H45           -0.2241    -2.5906    -0.6524 H       
  46 H46           -0.5197    -2.2432     1.0685 H       
  47 H47           -2.0332    -4.0302     0.2181 H       
  48 H48           -2.9429    -2.5902     0.7362 H       
  49 H49           -3.5128    -1.3980    -2.6797 H       
  50 H50           -3.8084    -1.0505    -0.9588 H       
  51 H51           -1.9993     0.3890    -1.8294 H       
  52 H52           -1.0896    -1.0510    -2.3475 H       
  53 H53            4.9325     9.5940    -2.1827 H       
  54 H54           -4.0201    -2.8856    -3.4953 H       
  55 H55           -5.6569    -3.1956    -2.8386 H       
  56 H56           -5.2417    -5.1975    -4.3127 H       
  57 H57           -2.9374    -6.2168    -4.2469 H       
  58 H58           -2.6053    -4.4573    -4.2279 H       
  59 H59           -2.0508    -6.4070    -2.1269 H       
  60 H60           -1.7187    -4.6475    -2.1079 H       
  61 H61           -4.7696    -3.3838    -0.7187 H       
  62 H62           -3.5625    -5.5577    -0.2975 H       
  63 H63           -5.8249    -5.6398    -1.7336 H       
  64 H64           -4.6840    -6.9073    -2.3244 H       
  65 H65           10.6677     4.5443    -2.5718 H       
  66 H66            9.7381     3.6010    -1.3826 H       
  67 H67            9.4319     3.3880    -3.1230 H       
  68 H68            6.7889     3.4406    -0.6983 H       
  69 H69            5.7996     3.5586    -2.1733 H       
  70 H70            7.4383     2.8682    -2.2536 H       
@<TRIPOS>BOND
   1    1    2 ar
   2    1    6 ar
   3    1   38 1
   4    2    3 ar
   5    2   15 1
   6    3    4 ar
   7    3   39 1
   8    4    5 ar
   9    4   40 1
  10    5    6 ar
  11    5    7 1
  12    6   41 1
  13    7    8 1
  14    7   42 1
  15    8    9 2
  16    8   10 1
  17    9   12 1
  18   10   11 2
  19   11   12 1
  20   11   14 1
  21   12   13 1
  22   13   21 ar
  23   13   25 ar
  24   14   43 1
  25   14   44 1
  26   15   16 1
  27   15   20 1
  28   16   17 1
  29   16   45 1
  30   16   46 1
  31   17   18 1
  32   17   47 1
  33   17   48 1
  34   18   19 1
  35   18   30 1
  36   19   20 1
  37   19   49 1
  38   19   50 1
  39   20   51 1
  40   20   52 1
  41   21   22 ar
  42   22   23 ar
  43   22   53 1
  44   23   24 ar
  45   24   25 ar
  46   24   33 1
  47   25   35 1
  48   26   27 1
  49   26   30 1
  50   26   54 1
  51   26   55 1
  52   27   28 1
  53   27   32 1
  54   27   56 1
  55   28   29 1
  56   28   57 1
  57   28   58 1
  58   29   31 1
  59   29   59 1
  60   29   60 1
  61   30   31 1
  62   30   61 1
  63   31   32 1
  64   31   62 1
  65   32   63 1
  66   32   64 1
  67   33   34 1
  68   34   35 2
  69   34   36 1
  70   35   37 1
  71   36   65 1
  72   36   66 1
  73   36   67 1
  74   37   68 1
  75   37   69 1
  76   37   70 1

#	End of record

