#	Name: ASD11940003
#	Creating user name:	WinNT
#	Creation time:	15. 06. 2019 21:29

#	Modifying user name:	WinNT
#	Modification time:	15. 06. 2019 21:29

#	Program:	/corina/corina34_cracker 3.40 0067  02.08.2006

@<TRIPOS>MOLECULE
ASD11940003
   5    4    0    0    0
SMALL
NO_CHARGES


@<TRIPOS>ATOM
   1 O1             0.0021    -0.0041     0.0020 O.2     
   2 Se2           -0.0207     1.6775     0.0113 Du      
   3 O3             1.7511     2.0470    -0.0037 O.3     
   4 O4            -0.4296     2.0017    -1.5875 O.3     
   5 H5             2.1868     1.9188     0.8500 H       
@<TRIPOS>BOND
   1    1    2 2
   2    2    3 1
   3    2    4 1
   4    3    5 1

#	End of record

