#	Name: ASD10100027
#	Creating user name:	WinNT
#	Creation time:	15. 06. 2019 21:24

#	Modifying user name:	WinNT
#	Modification time:	15. 06. 2019 21:24

#	Program:	/corina/corina34_cracker 3.40 0067  02.08.2006

@<TRIPOS>MOLECULE
ASD10100027
  47   48    0    0    0
SMALL
NO_CHARGES


@<TRIPOS>ATOM
   1 C1            -0.0178     1.4608     0.0101 C.3     
   2 C2             1.2581    -0.3710     2.0554 C.2     
   3 C3             0.0241    -0.7433     1.2666 C.3     
   4 C4             1.7553    -1.0246    -1.8464 C.3     
   5 C5             1.8870    -1.7776    -3.1718 C.3     
   6 C6             3.3678    -1.9466    -3.5175 C.3     
   7 C7             0.0565     1.2642     3.2439 C.2     
   8 C8            -1.1864    -0.3736     2.0978 C.2     
   9 C9             3.4994    -2.6996    -4.8428 C.3     
  10 C10           -2.3602     1.5657     3.0846 C.3     
  11 C11           -2.6106     2.5444     1.9664 C.ar    
  12 C12           -3.3655     2.1654     0.8722 C.ar    
  13 C13           -3.5952     3.0631    -0.1535 C.ar    
  14 C14           -2.0901     3.8231     2.0375 C.ar    
  15 C15           -2.3198     4.7209     1.0118 C.ar    
  16 N16            1.2035     0.6349     2.9467 N.am    
  17 N17            0.0021    -0.0041     0.0020 N.am    
  18 N18           -1.1346     0.8120     2.8086 N.am    
  19 N19           -2.2282    -1.1361     2.1410 N.2     
  20 O20            2.2928    -0.9803     1.8890 O.2     
  21 O21           -0.6265     0.0684    -2.3479 O.2     
  22 O22            0.0936     2.2697     3.9251 O.2     
  23 O23           -0.5856    -2.0806    -1.1227 O.2     
  24 S24           -0.0004    -0.8243    -1.4366 S.o2    
  25 C25           -3.0703     4.3401    -0.0848 C.ar    
  26 H26            1.0048     1.8381     0.0023 H       
  27 H27           -0.5450     1.8219    -0.8730 H       
  28 H28           -0.5280     1.8123     0.9069 H       
  29 H29            0.0223    -1.8151     1.0685 H       
  30 H30            2.2506    -1.5895    -1.0568 H       
  31 H31            2.2212    -0.0434    -1.9382 H       
  32 H32            1.4211    -2.7588    -3.0800 H       
  33 H33            1.3917    -1.2127    -3.9614 H       
  34 H34            3.8337    -0.9654    -3.6092 H       
  35 H35            3.8631    -2.5115    -2.7278 H       
  36 H36            3.0335    -3.6808    -4.7510 H       
  37 H37            3.0041    -2.1346    -5.6324 H       
  38 H38            4.5544    -2.8200    -5.0890 H       
  39 H39           -2.2497     2.1076     4.0239 H       
  40 H40           -3.2014     0.8766     3.1595 H       
  41 H41           -3.7756     1.1677     0.8186 H       
  42 H42           -4.1844     2.7668    -1.0087 H       
  43 H43           -1.5043     4.1207     2.8946 H       
  44 H44           -1.9135     5.7199     1.0676 H       
  45 H45            2.0202     0.9145     3.3891 H       
  46 H46           -2.9937    -0.8814     2.6796 H       
  47 H47           -3.2495     5.0414    -0.8864 H       
@<TRIPOS>BOND
   1    1   17 1
   2    1   26 1
   3    1   27 1
   4    1   28 1
   5    2    3 1
   6    2   16 am
   7    2   20 2
   8    3    8 1
   9    3   17 1
  10    3   29 1
  11    4    5 1
  12    4   24 1
  13    4   30 1
  14    4   31 1
  15    5    6 1
  16    5   32 1
  17    5   33 1
  18    6    9 1
  19    6   34 1
  20    6   35 1
  21    7   16 am
  22    7   18 am
  23    7   22 2
  24    8   18 1
  25    8   19 2
  26    9   36 1
  27    9   37 1
  28    9   38 1
  29   10   11 1
  30   10   18 1
  31   10   39 1
  32   10   40 1
  33   11   12 ar
  34   11   14 ar
  35   12   13 ar
  36   12   41 1
  37   13   25 ar
  38   13   42 1
  39   14   15 ar
  40   14   43 1
  41   15   25 ar
  42   15   44 1
  43   16   45 1
  44   17   24 am
  45   19   46 1
  46   21   24 2
  47   23   24 2
  48   25   47 1

#	End of record

