#	Name: ASD11030074
#	Creating user name:	WinNT
#	Creation time:	15. 06. 2019 21:29

#	Modifying user name:	WinNT
#	Modification time:	15. 06. 2019 21:29

#	Program:	/corina/corina34_cracker 3.40 0067  02.08.2006

@<TRIPOS>MOLECULE
ASD11030074
  58   63    0    0    0
SMALL
NO_CHARGES


@<TRIPOS>ATOM
   1 C1            -0.0168     1.3855     0.0097 C.ar    
   2 C2             0.0021    -0.0041     0.0020 C.ar    
   3 C3            -1.1800    -0.7108     0.0091 C.ar    
   4 C4            -2.3998    -0.0285     0.0244 C.ar    
   5 C5            -2.4141     1.3692     0.0325 C.ar    
   6 C6            -1.2272     2.0680     0.0307 C.ar    
   7 C7            -3.6683    -0.7812     0.0315 C.2     
   8 O8            -3.6228    -2.1226     0.0229 O.3     
   9 C9            -4.7389    -2.8827     0.0290 C.ar    
  10 C10           -6.0028    -2.2657     0.0448 C.ar    
  11 C11           -6.0661    -0.7939     0.0548 C.2     
  12 C12           -4.8393    -0.0892     0.0520 C.2     
  13 C13           -4.6513    -4.2669     0.0193 C.ar    
  14 C14           -5.8010    -5.0376     0.0247 C.ar    
  15 C15           -7.0640    -4.4310     0.0401 C.ar    
  16 C16           -7.1669    -3.0406     0.0504 C.ar    
  17 C17           -8.2888    -5.2662     0.0447 C.ar    
  18 C18           -8.8573    -5.6697     1.2554 C.ar    
  19 C19           -8.8818    -5.6477    -1.1619 C.ar    
  20 C20          -10.0287    -6.4296    -1.1671 C.ar    
  21 C21          -10.5987    -6.8408     0.0247 C.ar    
  22 C22          -10.0173    -6.4605     1.2412 C.ar    
  23 C23          -10.5967    -6.8804     2.5289 C.2     
  24 C24           -9.9434    -6.4505     3.7080 C.2     
  25 C25           -8.8260    -5.6803     3.6126 C.2     
  26 O26           -8.3050    -5.3090     2.4324 O.3     
  27 O27          -11.6013    -7.5717     2.5769 O.2     
  28 C28           -8.1584    -5.2416     4.8527 C.ar    
  29 C29           -7.0086    -4.4496     4.7872 C.ar    
  30 C30           -8.6771    -5.6119     6.0966 C.ar    
  31 C31           -6.3887    -4.0418     5.9475 C.ar    
  32 C32           -6.9046    -4.4170     7.1821 C.ar    
  33 C33           -8.0509    -5.1997     7.2520 C.ar    
  34 O34            1.1507     2.0783     0.0022 O.3     
  35 O35           -7.1352    -0.2054     0.0686 O.2     
  36 O36           -5.7043    -6.3915     0.0147 O.3     
  37 O37           -8.3860    -2.4445     0.0657 O.3     
  38 O38           -8.3322    -5.2502    -2.3378 O.3     
  39 O39          -11.7201    -7.6053     0.0153 O.3     
  40 O40           -6.2899    -4.0136     8.3234 O.3     
  41 H41            0.9450    -0.5305    -0.0098 H       
  42 H42           -1.1645    -1.7907     0.0024 H       
  43 H43           -3.3544     1.9003     0.0440 H       
  44 H44           -1.2373     3.1479     0.0369 H       
  45 H45           -4.8326     0.9908     0.0593 H       
  46 H46           -3.6829    -4.7449     0.0071 H       
  47 H47          -10.4784    -6.7180    -2.1057 H       
  48 H48          -10.3291    -6.7315     4.6768 H       
  49 H49           -6.6067    -4.1581     3.8281 H       
  50 H50           -9.5679    -6.2201     6.1518 H       
  51 H51           -5.5003    -3.4298     5.8978 H       
  52 H52           -8.4487    -5.4888     8.2135 H       
  53 H53            1.4806     2.2837    -0.8833 H       
  54 H54           -5.6680    -6.7898     0.8951 H       
  55 H55           -8.7311    -2.2777     0.9535 H       
  56 H56           -7.6752    -5.8647    -2.6925 H       
  57 H57          -11.5475    -8.5566    -0.0012 H       
  58 H58           -6.6122    -3.1688     8.6662 H       
@<TRIPOS>BOND
   1    1    2 ar
   2    1   34 1
   3    1    6 ar
   4    2    3 ar
   5    2   41 1
   6    3    4 ar
   7    3   42 1
   8    4    5 ar
   9    4    7 1
  10    5    6 ar
  11    5   43 1
  12    6   44 1
  13    7    8 1
  14    7   12 2
  15    8    9 1
  16    9   10 ar
  17    9   13 ar
  18   10   11 1
  19   10   16 ar
  20   11   12 1
  21   11   35 2
  22   12   45 1
  23   13   14 ar
  24   13   46 1
  25   14   15 ar
  26   14   36 1
  27   15   16 ar
  28   15   17 1
  29   16   37 1
  30   17   18 ar
  31   17   19 ar
  32   18   22 ar
  33   18   26 1
  34   19   20 ar
  35   19   38 1
  36   20   21 ar
  37   20   47 1
  38   21   22 ar
  39   21   39 1
  40   22   23 1
  41   23   24 1
  42   23   27 2
  43   24   25 2
  44   24   48 1
  45   25   26 1
  46   25   28 1
  47   28   29 ar
  48   28   30 ar
  49   29   31 ar
  50   29   49 1
  51   30   33 ar
  52   30   50 1
  53   31   32 ar
  54   31   51 1
  55   32   33 ar
  56   32   40 1
  57   33   52 1
  58   34   53 1
  59   36   54 1
  60   37   55 1
  61   38   56 1
  62   39   57 1
  63   40   58 1

#	End of record

