#	Name: ASD11000042
#	Creating user name:	WinNT
#	Creation time:	15. 06. 2019 21:28

#	Modifying user name:	WinNT
#	Modification time:	15. 06. 2019 21:28

#	Program:	/corina/corina34_cracker 3.40 0067  02.08.2006

@<TRIPOS>MOLECULE
ASD11000042
  40   41    0    0    0
SMALL
NO_CHARGES


@<TRIPOS>ATOM
   1 C1            -0.0165     1.3785     0.0014 C.ar    
   2 C2             0.0021    -0.0050     0.0004 C.ar    
   3 C3            -1.1814    -0.7138     0.0116 C.ar    
   4 C4            -2.3995    -0.0320     0.0243 C.ar    
   5 C5            -2.4110     1.3639     0.0257 C.ar    
   6 C6            -1.2203     2.0604     0.0193 C.ar    
   7 C7            -3.6714    -0.7849     0.0358 C.2     
   8 O8            -3.6582    -2.0003     0.0342 O.2     
   9 N9            -4.8457    -0.1237     0.0481 N.am    
  10 C10           -6.0432    -0.8289    -0.0499 C.ar    
  11 N11           -6.0194    -2.1368    -0.2519 N.ar    
  12 C12            1.2803     2.1461    -0.0109 C.3     
  13 C13            2.0743     1.7859    -1.2681 C.3     
  14 C14            0.9845     3.6472    -0.0071 C.3     
  15 C15            2.0987     1.7845     1.2302 C.3     
  16 C16           -7.1301    -2.8421    -0.3506 C.ar    
  17 C17           -8.3658    -2.2352    -0.2463 C.ar    
  18 C18           -8.4344    -0.8647    -0.0343 C.ar    
  19 C19           -7.2526    -0.1531     0.0711 C.ar    
  20 C20           -9.7660    -0.1691     0.0846 C.3     
  21 H21            0.9452    -0.5312    -0.0095 H       
  22 H22           -1.1655    -1.7937     0.0101 H       
  23 H23           -3.3500     1.8973     0.0355 H       
  24 H24           -1.2278     3.1404     0.0203 H       
  25 H25           -4.8572     0.8432     0.1251 H       
  26 H26            1.4913     2.0435    -2.1523 H       
  27 H27            3.0123     2.3411    -1.2770 H       
  28 H28            2.2851     0.7165    -1.2708 H       
  29 H29            0.4188     3.9038     0.8885 H       
  30 H30            1.9225     4.2024    -0.0160 H       
  31 H31            0.4014     3.9048    -0.8913 H       
  32 H32            2.3095     0.7151     1.2276 H       
  33 H33            3.0367     2.3397     1.2214 H       
  34 H34            1.5331     2.0411     2.1259 H       
  35 H35           -7.0718    -3.9078    -0.5156 H       
  36 H36           -9.2698    -2.8203    -0.3291 H       
  37 H37           -7.2691     0.9140     0.2364 H       
  38 H38          -10.0782    -0.1580     1.1288 H       
  39 H39           -9.6747     0.8547    -0.2782 H       
  40 H40          -10.5081    -0.7007    -0.5110 H       
@<TRIPOS>BOND
   1    1    2 ar
   2    1   12 1
   3    1    6 ar
   4    2    3 ar
   5    2   21 1
   6    3    4 ar
   7    3   22 1
   8    4    5 ar
   9    4    7 1
  10    5    6 ar
  11    5   23 1
  12    6   24 1
  13    7    8 2
  14    7    9 am
  15    9   10 1
  16    9   25 1
  17   10   11 ar
  18   10   19 ar
  19   11   16 ar
  20   12   13 1
  21   12   14 1
  22   12   15 1
  23   13   26 1
  24   13   27 1
  25   13   28 1
  26   14   29 1
  27   14   30 1
  28   14   31 1
  29   15   32 1
  30   15   33 1
  31   15   34 1
  32   16   17 ar
  33   16   35 1
  34   17   18 ar
  35   17   36 1
  36   18   19 ar
  37   18   20 1
  38   19   37 1
  39   20   38 1
  40   20   39 1
  41   20   40 1

#	End of record

