#	Name: ASD13540002
#	Creating user name:	WinNT
#	Creation time:	15. 06. 2019 21:30

#	Modifying user name:	WinNT
#	Modification time:	15. 06. 2019 21:30

#	Program:	/corina/corina34_cracker 3.40 0067  02.08.2006

@<TRIPOS>MOLECULE
ASD13540002
  44   46    0    0    0
SMALL
NO_CHARGES


@<TRIPOS>ATOM
   1 C1             1.1054     1.1856    -0.1152 C.ar    
   2 C2             1.3009    -0.1798    -0.0934 C.ar    
   3 C3             2.5755    -0.6871     0.0791 C.ar    
   4 C4             3.6414     0.1742     0.2339 C.ar    
   5 C5             3.4471     1.5502     0.2147 C.ar    
   6 C6             2.1787     2.0537     0.0332 C.ar    
   7 C7             4.6554     2.4287     0.4052 C.3     
   8 C8             4.3898     3.8398    -0.1170 C.3     
   9 N9             3.0861     4.2791     0.4073 N.am    
  10 C10            1.8995     3.5345    -0.0276 C.3     
  11 C11            2.9869     5.3234     1.2534 C.2     
  12 O12            3.9841     5.9218     1.5977 O.2     
  13 C13            1.6370     5.7476     1.7718 C.3     
  14 N14            1.7965     6.8964     2.6668 N.am    
  15 C15            1.8517     8.1897     2.1405 C.ar    
  16 C16            2.9589     8.9927     2.3826 C.ar    
  17 C17            3.0109    10.2705     1.8612 C.ar    
  18 C18            1.9612    10.7511     1.0982 C.ar    
  19 C19            0.8567     9.9535     0.8558 C.ar    
  20 C20            0.8021     8.6727     1.3695 C.ar    
  21 Cl21           2.0299    12.3579     0.4445 Cl      
  22 S22            1.9112     6.6623     4.3021 S.o2    
  23 O23            1.5687     7.9229     4.8614 O.2     
  24 O24            1.1153     5.5111     4.5481 O.2     
  25 C25            3.6652     6.2959     4.5849 C.3     
  26 H26            0.1105     1.5824    -0.2532 H       
  27 H27            0.4618    -0.8497    -0.2102 H       
  28 H28            2.7359    -1.7550     0.0930 H       
  29 H29            4.6358    -0.2241     0.3716 H       
  30 H30            4.8982     2.4791     1.4667 H       
  31 H31            5.4994     1.9996    -0.1348 H       
  32 H32            5.1728     4.5145     0.2292 H       
  33 H33            4.3650     3.8310    -1.2067 H       
  34 H34            1.6504     3.8149    -1.0510 H       
  35 H35            1.0615     3.7728     0.6274 H       
  36 H36            0.9971     6.0255     0.9343 H       
  37 H37            1.1817     4.9217     2.3183 H       
  38 H38            3.7783     8.6183     2.9783 H       
  39 H39            3.8714    10.8954     2.0495 H       
  40 H40            0.0386    10.3314     0.2606 H       
  41 H41           -0.0578     8.0487     1.1757 H       
  42 H42            4.2774     7.0678     4.1186 H       
  43 H43            3.8634     6.2729     5.6565 H       
  44 H44            3.9086     5.3267     4.1496 H       
@<TRIPOS>BOND
   1    1    2 ar
   2    1    6 ar
   3    1   26 1
   4    2    3 ar
   5    2   27 1
   6    3    4 ar
   7    3   28 1
   8    4    5 ar
   9    4   29 1
  10    5    7 1
  11    5    6 ar
  12    6   10 1
  13    7    8 1
  14    7   30 1
  15    7   31 1
  16    8    9 1
  17    8   32 1
  18    8   33 1
  19    9   10 1
  20    9   11 am
  21   10   34 1
  22   10   35 1
  23   11   12 2
  24   11   13 1
  25   13   14 1
  26   13   36 1
  27   13   37 1
  28   14   15 1
  29   14   22 am
  30   15   16 ar
  31   15   20 ar
  32   16   17 ar
  33   16   38 1
  34   17   18 ar
  35   17   39 1
  36   18   19 ar
  37   18   21 1
  38   19   20 ar
  39   19   40 1
  40   20   41 1
  41   22   23 2
  42   22   24 2
  43   22   25 1
  44   25   42 1
  45   25   43 1
  46   25   44 1

#	End of record

