#	Name: ASD11920073
#	Creating user name:	WinNT
#	Creation time:	15. 06. 2019 21:29

#	Modifying user name:	WinNT
#	Modification time:	15. 06. 2019 21:29

#	Program:	/corina/corina34_cracker 3.40 0067  02.08.2006

@<TRIPOS>MOLECULE
ASD11920073
  47   52    0    0    0
SMALL
NO_CHARGES


@<TRIPOS>ATOM
   1 C1            -0.0183     1.4975     0.0103 C.3     
   2 N2             0.0021    -0.0041     0.0020 Du      
   3 C3             1.4976     0.0731    -0.1429 C.3     
   4 C4            -0.0228    -0.7340    -1.2998 C.2     
   5 C5            -0.9641    -0.5459    -2.2139 C.2     
   6 C6            -2.0441     0.4209    -1.9293 C.ar    
   7 C7            -2.2797     0.7193    -0.5817 C.ar    
   8 C8            -3.2653     1.6133    -0.2379 C.ar    
   9 C9            -4.0247     2.2172    -1.2316 C.ar    
  10 O10           -5.0444     3.1240    -1.1585 O.3     
  11 C11           -5.7229     3.0269    -2.4245 C.3     
  12 O12           -4.6819     2.6267    -3.3347 O.3     
  13 C13           -3.7980     1.9151    -2.5746 C.ar    
  14 C14           -2.8038     1.0174    -2.9250 C.ar    
  15 C15           -1.4255     0.0289     0.4461 C.3     
  16 C16           -1.9253    -1.4038     0.6444 C.3     
  17 O17           -1.7956    -2.1536    -0.5946 O.3     
  18 C18           -0.9720    -3.1959    -0.3919 C.2     
  19 O19           -0.6632    -4.0117    -1.2377 O.2     
  20 C20           -0.4979    -3.2078     1.0006 C.ar    
  21 C21            0.3574    -4.0653     1.7019 C.ar    
  22 O22            1.0362    -5.1809     1.3152 O.3     
  23 C23            1.4026    -5.8514     2.5356 C.3     
  24 O24            1.4807    -4.7857     3.5007 O.3     
  25 C25            0.6289    -3.8200     3.0461 C.ar    
  26 C26            0.0535    -2.7334     3.6826 C.ar    
  27 C27           -0.7945    -1.8838     2.9883 C.ar    
  28 C28           -1.0693    -2.1145     1.6629 C.ar    
  29 H29            0.9779     1.8731     0.2441 H       
  30 H30           -0.3230     1.8621    -0.9707 H       
  31 H31           -0.7245     1.8471     0.7634 H       
  32 H32            0.1978    -0.5650     0.9317 H       
  33 H33            1.9108    -0.9346    -0.1872 H       
  34 H34            1.7467     0.6085    -1.0590 H       
  35 H35            1.9188     0.6011     0.7126 H       
  36 H36            0.7666    -1.4508    -1.5071 H       
  37 H37           -0.9410    -1.0866    -3.1451 H       
  38 H38           -3.4485     1.8456     0.8003 H       
  39 H39           -6.5003     2.2711    -2.3812 H       
  40 H40           -6.1282     3.9915    -2.7123 H       
  41 H41           -2.6213     0.7843    -3.9623 H       
  42 H42           -1.4918     0.5685     1.3921 H       
  43 H43           -2.9656    -1.3953     0.9694 H       
  44 H44            0.6364    -6.5719     2.8218 H       
  45 H45            2.3700    -6.3419     2.4276 H       
  46 H46            0.2659    -2.5467     4.7250 H       
  47 H47           -1.2401    -1.0384     3.4915 H       
@<TRIPOS>BOND
   1    1    2 1
   2    1   29 1
   3    1   30 1
   4    1   31 1
   5    2    3 1
   6    2    4 1
   7    2   15 1
   8    2   32 1
   9    3   33 1
  10    3   34 1
  11    3   35 1
  12    4    5 2
  13    4   36 1
  14    5    6 1
  15    5   37 1
  16    6    7 ar
  17    6   14 ar
  18    7    8 ar
  19    7   15 1
  20    8    9 ar
  21    8   38 1
  22    9   10 1
  23    9   13 ar
  24   10   11 1
  25   11   12 1
  26   11   39 1
  27   11   40 1
  28   12   13 1
  29   13   14 ar
  30   14   41 1
  31   15   16 1
  32   15   42 1
  33   16   17 1
  34   16   28 1
  35   16   43 1
  36   17   18 1
  37   18   19 2
  38   18   20 1
  39   20   21 ar
  40   20   28 ar
  41   21   22 1
  42   21   25 ar
  43   22   23 1
  44   23   24 1
  45   23   44 1
  46   23   45 1
  47   24   25 1
  48   25   26 ar
  49   26   27 ar
  50   26   46 1
  51   27   28 ar
  52   27   47 1

#	End of record

