#	Name: ASD11920056
#	Creating user name:	WinNT
#	Creation time:	15. 06. 2019 21:29

#	Modifying user name:	WinNT
#	Modification time:	15. 06. 2019 21:29

#	Program:	/corina/corina34_cracker 3.40 0067  02.08.2006

@<TRIPOS>MOLECULE
ASD11920056
  81   83    0    0    0
SMALL
NO_CHARGES


@<TRIPOS>ATOM
   1 Si1           -0.0933     1.4570     1.1423 Si      
   2 Si2            1.0664    -6.5461    -1.6613 Si      
   3 C3             0.6725     1.4038    -4.1515 C.2     
   4 N4            -0.5140     1.7187    -3.5935 N.am    
   5 O5             1.1938     2.1575    -4.9535 O.2     
   6 S6            -0.5283    -2.4346     2.7663 S.o2    
   7 C7             1.3091     0.1913    -3.7923 C.2     
   8 N8            -0.4917    -0.2670    -2.3527 N.am    
   9 O9            -2.1589     1.1828    -2.2113 O.2     
  10 C10            0.7123    -0.6236    -2.8962 C.2     
  11 N11            2.4715    -1.2672     0.6765 N.pl3   
  12 O12           -0.7505    -2.5140    -1.6244 O.3     
  13 C13           -1.0892     0.8852    -2.7069 C.2     
  14 O14           -0.8360    -2.8648     1.3179 O.3     
  15 C15            2.6352    -0.1845    -4.4015 C.3     
  16 O16            0.2201     0.3205     0.0153 O.3     
  17 C17           -1.1395    -1.1514    -1.3808 C.3     
  18 O18            0.8762    -4.9310    -1.7849 O.3     
  19 C19            0.3940    -2.7842    -0.7853 C.3     
  20 O20           -1.3428    -1.3070     3.0565 O.2     
  21 C21            0.0506    -2.0604     0.5360 C.3     
  22 O22           -0.4899    -3.6126     3.5601 O.2     
  23 C23           -0.6773    -0.7911     0.0456 C.3     
  24 C24            0.5478    -4.2884    -0.5515 C.3     
  25 C25            1.2981    -1.7019     1.2797 C.2     
  26 C26            1.1412    -1.8525     2.5905 C.2     
  27 C27            0.8894     2.9940     0.7644 C.3     
  28 C28           -1.9115     1.8628     1.1262 C.3     
  29 C29            0.3843     0.8125     2.8238 C.3     
  30 C30            0.6047     3.4413    -0.6708 C.3     
  31 C31            0.4884     4.1071     1.7345 C.3     
  32 C32            2.3821     2.6959     0.9191 C.3     
  33 C33            1.4896    -7.2513    -3.3330 C.3     
  34 C34            2.4434    -6.9194    -0.4632 C.3     
  35 C35           -0.5164    -7.3126    -1.0466 C.3     
  36 C36            2.7896    -6.6218    -3.8378 C.3     
  37 C37            1.6680    -8.7664    -3.2171 C.3     
  38 C38            0.3588    -6.9447    -4.3169 C.3     
  39 H39           -0.9544     2.5495    -3.8316 H       
  40 H40            1.1830    -1.5526    -2.6101 H       
  41 H41            2.5173    -1.1799    -0.2884 H       
  42 H42            3.2451    -1.0511     1.2203 H       
  43 H43            2.9504     0.5951    -5.0950 H       
  44 H44            3.3799    -0.2921    -3.6129 H       
  45 H45            2.5344    -1.1283    -4.9373 H       
  46 H46           -2.2226    -1.0558    -1.4572 H       
  47 H47            1.3000    -2.3686    -1.2263 H       
  48 H48           -1.5339    -0.5719     0.6829 H       
  49 H49           -0.3886    -4.6941    -0.1685 H       
  50 H50            1.3431    -4.4641     0.1728 H       
  51 H51            1.8638    -1.6644     3.3709 H       
  52 H52           -2.4898     0.9429     1.2119 H       
  53 H53           -2.1449     2.5183     1.9652 H       
  54 H54           -2.1635     2.3647     0.1920 H       
  55 H55            1.3288     0.2733     2.7514 H       
  56 H56            0.4948     1.6478     3.5152 H       
  57 H57           -0.3915     0.1392     3.1885 H       
  58 H58           -0.4527     3.6855    -0.7723 H       
  59 H59            1.2047     4.3211    -0.9030 H       
  60 H60            0.8594     2.6358    -1.3597 H       
  61 H61            0.6912     3.7885     2.7569 H       
  62 H62            1.0633     5.0064     1.5133 H       
  63 H63           -0.5750     4.3195     1.6242 H       
  64 H64            2.6677     1.9029     0.2280 H       
  65 H65            2.9570     3.5951     0.6980 H       
  66 H66            2.5848     2.3773     1.9416 H       
  67 H67            2.1958    -6.5069     0.5149 H       
  68 H68            2.5705    -7.9988    -0.3806 H       
  69 H69            3.3695    -6.4710    -0.8228 H       
  70 H70           -1.3221    -7.0942    -1.7476 H       
  71 H71           -0.3893    -8.3920    -0.9641 H       
  72 H72           -0.7640    -6.9000    -0.0686 H       
  73 H73            3.5952    -6.8402    -3.1368 H       
  74 H74            3.0372    -7.0344    -4.8158 H       
  75 H75            2.6625    -5.5424    -3.9204 H       
  76 H76            0.7419    -9.2149    -2.8574 H       
  77 H77            1.9156    -9.1790    -4.1951 H       
  78 H78            2.4736    -8.9848    -2.5161 H       
  79 H79            0.2317    -5.8653    -4.3995 H       
  80 H80            0.6064    -7.3573    -5.2950 H       
  81 H81           -0.5673    -7.3931    -3.9573 H       
@<TRIPOS>BOND
   1    1   16 1
   2    1   27 1
   3    1   28 1
   4    1   29 1
   5    2   18 1
   6    2   33 1
   7    2   34 1
   8    2   35 1
   9    3    4 am
  10    3    5 2
  11    3    7 1
  12    4   13 am
  13    4   39 1
  14    6   14 1
  15    6   20 2
  16    6   22 2
  17    6   26 1
  18    7   10 2
  19    7   15 1
  20    8   10 1
  21    8   13 am
  22    8   17 1
  23    9   13 2
  24   10   40 1
  25   11   25 1
  26   11   41 1
  27   11   42 1
  28   12   17 1
  29   12   19 1
  30   14   21 1
  31   15   43 1
  32   15   44 1
  33   15   45 1
  34   16   23 1
  35   17   23 1
  36   17   46 1
  37   18   24 1
  38   19   21 1
  39   19   24 1
  40   19   47 1
  41   21   23 1
  42   21   25 1
  43   23   48 1
  44   24   49 1
  45   24   50 1
  46   25   26 2
  47   26   51 1
  48   27   30 1
  49   27   31 1
  50   27   32 1
  51   28   52 1
  52   28   53 1
  53   28   54 1
  54   29   55 1
  55   29   56 1
  56   29   57 1
  57   30   58 1
  58   30   59 1
  59   30   60 1
  60   31   61 1
  61   31   62 1
  62   31   63 1
  63   32   64 1
  64   32   65 1
  65   32   66 1
  66   33   36 1
  67   33   37 1
  68   33   38 1
  69   34   67 1
  70   34   68 1
  71   34   69 1
  72   35   70 1
  73   35   71 1
  74   35   72 1
  75   36   73 1
  76   36   74 1
  77   36   75 1
  78   37   76 1
  79   37   77 1
  80   37   78 1
  81   38   79 1
  82   38   80 1
  83   38   81 1

#	End of record

