#	Name: ASD11000219
#	Creating user name:	WinNT
#	Creation time:	15. 06. 2019 21:28

#	Modifying user name:	WinNT
#	Modification time:	15. 06. 2019 21:28

#	Program:	/corina/corina34_cracker 3.40 0067  02.08.2006

@<TRIPOS>MOLECULE
ASD11000219
  58   60    0    0    0
SMALL
NO_CHARGES


@<TRIPOS>ATOM
   1 C1            -0.0162     1.3201     0.0177 C.ar    
   2 N2             0.0010    -0.0048     0.0230 N.ar    
   3 C3             1.1465    -0.6660     0.0167 C.ar    
   4 C4             2.3370     0.0439     0.0044 C.ar    
   5 C5             2.2826     1.4289    -0.0009 C.ar    
   6 N6             1.1035     2.0283     0.0060 N.ar    
   7 N7            -1.2339     1.9804     0.0186 N.pl3   
   8 C8            -1.2737     3.3739     0.1320 C.ar    
   9 C9            -2.2518     4.0986    -0.5369 C.ar    
  10 C10           -2.2887     5.4753    -0.4231 C.ar    
  11 C11           -1.3509     6.1319     0.3568 C.ar    
  12 C12           -0.3757     5.4117     1.0232 C.ar    
  13 C13           -0.3388     4.0348     0.9179 C.ar    
  14 Cl14          -1.3990     7.8615     0.4977 Cl      
  15 Cl15          -3.5106     6.3825    -1.2584 Cl      
  16 C16            3.6618    -0.6745    -0.0026 C.3     
  17 O17            4.0701    -0.9076    -1.3520 O.3     
  18 C18            5.2538    -1.5510    -1.5364 C.ar    
  19 C19            5.7100    -1.8094    -2.8205 C.ar    
  20 C20            6.9124    -2.4631    -3.0078 C.ar    
  21 C21            7.6637    -2.8606    -1.9118 C.ar    
  22 C22            7.2079    -2.6014    -0.6277 C.ar    
  23 C23            6.0077    -1.9439    -0.4405 C.ar    
  24 O24            8.8469    -3.5049    -2.0962 O.3     
  25 Si25          10.1352    -2.5099    -2.1987 Si      
  26 C26            9.9107    -1.3497    -3.6389 C.3     
  27 C27           10.2853    -1.5243    -0.6248 C.3     
  28 C28           11.6810    -3.5191    -2.4493 C.3     
  29 C29           11.5576    -4.3285    -3.7418 C.3     
  30 C30           12.8894    -2.5857    -2.5454 C.3     
  31 C31           11.8653    -4.4719    -1.2664 C.3     
  32 H32            1.1542    -1.7460     0.0214 H       
  33 H33            3.1919     2.0116    -0.0101 H       
  34 H34           -2.0590     1.4764    -0.0593 H       
  35 H35           -2.9826     3.5867    -1.1455 H       
  36 H36            0.3547     5.9261     1.6300 H       
  37 H37            0.4199     3.4730     1.4424 H       
  38 H38            4.4093    -0.0631     0.5028 H       
  39 H39            3.5609    -1.6278     0.5163 H       
  40 H40            5.1250    -1.4999    -3.6739 H       
  41 H41            7.2672    -2.6650    -4.0076 H       
  42 H42            7.7928    -2.9113     0.2257 H       
  43 H43            5.6546    -1.7388     0.5594 H       
  44 H44            9.0063    -0.7592    -3.4923 H       
  45 H45           10.7716    -0.6847    -3.7074 H       
  46 H46            9.8228    -1.9263    -4.5597 H       
  47 H47           10.4166    -2.2031     0.2178 H       
  48 H48           11.1462    -0.8593    -0.6933 H       
  49 H49            9.3809    -0.9339    -0.4782 H       
  50 H50           11.4263    -3.6497    -4.5844 H       
  51 H51           12.4620    -4.9190    -3.8884 H       
  52 H52           10.6967    -4.9935    -3.6733 H       
  53 H53           12.9773    -2.0090    -1.6246 H       
  54 H54           13.7938    -3.1761    -2.6920 H       
  55 H55           12.7581    -1.9069    -3.3880 H       
  56 H56           11.0044    -5.1369    -1.1980 H       
  57 H57           12.7697    -5.0624    -1.4131 H       
  58 H58           11.9531    -3.8953    -0.3456 H       
@<TRIPOS>BOND
   1    1    2 ar
   2    1    6 ar
   3    1    7 1
   4    2    3 ar
   5    3    4 ar
   6    3   32 1
   7    4    5 ar
   8    4   16 1
   9    5    6 ar
  10    5   33 1
  11    7    8 1
  12    7   34 1
  13    8    9 ar
  14    8   13 ar
  15    9   10 ar
  16    9   35 1
  17   10   11 ar
  18   10   15 1
  19   11   12 ar
  20   11   14 1
  21   12   13 ar
  22   12   36 1
  23   13   37 1
  24   16   17 1
  25   16   38 1
  26   16   39 1
  27   17   18 1
  28   18   19 ar
  29   18   23 ar
  30   19   20 ar
  31   19   40 1
  32   20   21 ar
  33   20   41 1
  34   21   22 ar
  35   21   24 1
  36   22   23 ar
  37   22   42 1
  38   23   43 1
  39   24   25 1
  40   25   26 1
  41   25   27 1
  42   25   28 1
  43   26   44 1
  44   26   45 1
  45   26   46 1
  46   27   47 1
  47   27   48 1
  48   27   49 1
  49   28   29 1
  50   28   31 1
  51   28   30 1
  52   29   50 1
  53   29   51 1
  54   29   52 1
  55   30   53 1
  56   30   54 1
  57   30   55 1
  58   31   56 1
  59   31   57 1
  60   31   58 1

#	End of record

