#	Name: ASD14170008
#	Creating user name:	WinNT
#	Creation time:	15. 06. 2019 21:30

#	Modifying user name:	WinNT
#	Modification time:	15. 06. 2019 21:30

#	Program:	/corina/corina34_cracker 3.40 0067  02.08.2006

@<TRIPOS>MOLECULE
ASD14170008
  38   40    0    0    0
SMALL
NO_CHARGES


@<TRIPOS>ATOM
   1 C1            -0.0985     1.2945    -0.6874 C.2     
   2 C2            -0.0533    -0.0910    -0.4401 C.2     
   3 C3             1.2784    -0.4641    -0.4354 C.2     
   4 N4             2.0076     0.6498    -0.6701 N.pl3   
   5 N5             1.1267     1.7267    -0.8227 N.2     
   6 N6             1.7754    -1.7475    -0.2277 N.am    
   7 C7            -1.3465     2.1335    -0.7856 C.3     
   8 F8            -1.6779     2.6264     0.4810 F       
   9 F9            -1.1215     3.2036    -1.6582 F       
  10 F10           -2.3986     1.3494    -1.2708 F       
  11 C11           -1.2177    -0.9844    -0.2243 C.ar    
  12 C12           -2.1317    -1.2024    -1.2536 C.ar    
  13 C13           -3.2134    -2.0342    -1.0482 C.ar    
  14 C14           -3.3916    -2.6521     0.1788 C.ar    
  15 C15           -2.4860    -2.4380     1.2049 C.ar    
  16 C16           -1.3979    -1.6127     1.0066 C.ar    
  17 F17           -4.4521    -3.4657     0.3754 F       
  18 C18            3.1049    -1.9672    -0.2505 C.2     
  19 N19            3.5862    -3.2099    -0.0494 N.am    
  20 O20            3.8703    -1.0442    -0.4526 O.2     
  21 C21            4.9594    -3.4570    -0.1696 C.ar    
  22 C22            7.2305    -2.7409     0.1132 C.ar    
  23 C23            7.6734    -3.9449    -0.4079 C.ar    
  24 C24            6.7602    -4.9031    -0.8148 C.ar    
  25 C25            5.4055    -4.6615    -0.6967 C.ar    
  26 C26            5.8766    -2.4954     0.2329 C.ar    
  27 F27            8.9981    -4.1831    -0.5243 F       
  28 H28            2.9751     0.6950    -0.7234 H       
  29 H29            1.1648    -2.4838    -0.0666 H       
  30 H30           -1.9937    -0.7208    -2.2104 H       
  31 H31           -3.9224    -2.2035    -1.8452 H       
  32 H32           -2.6290    -2.9215     2.1600 H       
  33 H33           -0.6895    -1.4503     1.8055 H       
  34 H34            2.9814    -3.9332     0.1786 H       
  35 H35            7.9442    -1.9948     0.4299 H       
  36 H36            7.1077    -5.8414    -1.2213 H       
  37 H37            4.6936    -5.4093    -1.0138 H       
  38 H38            5.5315    -1.5561     0.6391 H       
@<TRIPOS>BOND
   1    1    2 1
   2    1    5 2
   3    1    7 1
   4    2    3 2
   5    2   11 1
   6    3    4 1
   7    3    6 1
   8    4    5 1
   9    4   28 1
  10    6   18 am
  11    6   29 1
  12    7    8 1
  13    7    9 1
  14    7   10 1
  15   11   12 ar
  16   11   16 ar
  17   12   13 ar
  18   12   30 1
  19   13   14 ar
  20   13   31 1
  21   14   15 ar
  22   14   17 1
  23   15   16 ar
  24   15   32 1
  25   16   33 1
  26   18   19 am
  27   18   20 2
  28   19   21 1
  29   19   34 1
  30   21   26 ar
  31   21   25 ar
  32   22   23 ar
  33   22   26 ar
  34   22   35 1
  35   23   24 ar
  36   23   27 1
  37   24   25 ar
  38   24   36 1
  39   25   37 1
  40   26   38 1

#	End of record

