#	Name: ASD11000195
#	Creating user name:	WinNT
#	Creation time:	15. 06. 2019 21:28

#	Modifying user name:	WinNT
#	Modification time:	15. 06. 2019 21:28

#	Program:	/corina/corina34_cracker 3.40 0067  02.08.2006

@<TRIPOS>MOLECULE
ASD11000195
  48   51    0    0    0
SMALL
NO_CHARGES


@<TRIPOS>ATOM
   1 N1            -0.0072     1.7559     0.3909 N.ar    
   2 C2             0.0771     0.4336     0.3992 C.ar    
   3 N3             1.2449    -0.1875     0.3210 N.ar    
   4 C4             2.3714     0.4997     0.2310 C.ar    
   5 C5             2.3195     1.8848     0.2193 C.ar    
   6 C6             1.0812     2.5022     0.3031 C.ar    
   7 C7             3.5818     2.7018     0.1185 C.3     
   8 O8             3.8833     2.9449    -1.2571 O.3     
   9 C9             4.9996     3.6737    -1.5249 C.ar    
  10 C10            5.7899     4.1391    -0.4842 C.ar    
  11 N11           -1.0830    -0.3172     0.4923 N.pl3   
  12 C12           -1.0254    -1.7118     0.3796 C.ar    
  13 C13           -1.8919    -2.5048     1.1200 C.ar    
  14 C14           -0.1055    -2.3019    -0.4771 C.ar    
  15 C15           -0.0491    -3.6776    -0.5892 C.ar    
  16 C16           -0.9107    -4.4704     0.1533 C.ar    
  17 C17           -1.8344    -3.8818     1.0074 C.ar    
  18 O18           -0.8545    -5.8250     0.0417 O.3     
  19 C19            5.3506     3.9466    -2.8389 C.ar    
  20 C20            6.4843     4.6862    -3.1119 C.ar    
  21 C21            7.2730     5.1574    -2.0704 C.ar    
  22 C22            6.9235     4.8797    -0.7553 C.ar    
  23 F23           -2.6736    -4.6545     1.7312 F       
  24 C24            0.1161    -6.3621    -0.8591 C.3     
  25 F25           -0.1346    -5.8886    -2.1514 F       
  26 F26            1.3958    -5.9647    -0.4569 F       
  27 N27            8.4226     5.9069    -2.3462 N.pl3   
  28 C28            8.8074     6.9268    -1.4893 C.2     
  29 S29           10.1184     7.9905    -1.7592 S.3     
  30 C30            9.7783     8.8129    -0.2389 C.2     
  31 C31            8.7248     8.2213     0.3254 C.2     
  32 N32            8.2217     7.2166    -0.3688 N.2     
  33 H33            3.3203    -0.0122     0.1679 H       
  34 H34            1.0061     3.5796     0.2962 H       
  35 H35            3.4415     3.6523     0.6332 H       
  36 H36            4.4052     2.1567     0.5800 H       
  37 H37            5.5183     3.9225     0.5384 H       
  38 H38           -1.9354     0.1230     0.6356 H       
  39 H39           -2.6101    -2.0464     1.7836 H       
  40 H40            0.5658    -1.6852    -1.0562 H       
  41 H41            0.6663    -4.1358    -1.2560 H       
  42 H42            4.7371     3.5801    -3.6487 H       
  43 H43            6.7578     4.8979    -4.1350 H       
  44 H44            7.5360     5.2460     0.0553 H       
  45 H45            0.0549    -7.4504    -0.8526 H       
  46 H46            8.9501     5.7127    -3.1367 H       
  47 H47           10.3274     9.6504     0.1657 H       
  48 H48            8.3137     8.5404     1.2718 H       
@<TRIPOS>BOND
   1    1    2 ar
   2    1    6 ar
   3    2    3 ar
   4    2   11 1
   5    3    4 ar
   6    4    5 ar
   7    4   33 1
   8    5    6 ar
   9    5    7 1
  10    6   34 1
  11    7    8 1
  12    7   35 1
  13    7   36 1
  14    8    9 1
  15    9   19 ar
  16    9   10 ar
  17   10   22 ar
  18   10   37 1
  19   11   12 1
  20   11   38 1
  21   12   13 ar
  22   12   14 ar
  23   13   17 ar
  24   13   39 1
  25   14   15 ar
  26   14   40 1
  27   15   16 ar
  28   15   41 1
  29   16   17 ar
  30   16   18 1
  31   17   23 1
  32   18   24 1
  33   19   20 ar
  34   19   42 1
  35   20   21 ar
  36   20   43 1
  37   21   22 ar
  38   21   27 1
  39   22   44 1
  40   24   25 1
  41   24   26 1
  42   24   45 1
  43   27   28 1
  44   27   46 1
  45   28   29 1
  46   28   32 2
  47   29   30 1
  48   30   31 2
  49   30   47 1
  50   31   32 1
  51   31   48 1

#	End of record

