#	Name: ASD11000023
#	Creating user name:	WinNT
#	Creation time:	15. 06. 2019 21:28

#	Modifying user name:	WinNT
#	Modification time:	15. 06. 2019 21:28

#	Program:	/corina/corina34_cracker 3.40 0067  02.08.2006

@<TRIPOS>MOLECULE
ASD11000023
  59   62    0    0    0
SMALL
NO_CHARGES


@<TRIPOS>ATOM
   1 C1             0.0965     1.2853     0.1372 C.3     
   2 C2            -0.4347    -0.1192    -0.1564 C.3     
   3 N3             0.0185    -0.5444    -1.4850 N.am    
   4 C4             0.0800    -1.0788     0.8873 C.ar    
   5 C5             0.6520    -2.2878     0.5581 C.ar    
   6 C6            -0.0399    -0.7082     2.2200 C.ar    
   7 C7             1.0934    -3.1365     1.5664 C.ar    
   8 C8             0.9726    -2.7740     2.8950 C.ar    
   9 C9             0.4040    -1.5476     3.2255 C.ar    
  10 C10           -0.0867    -1.9769    -1.8083 C.3     
  11 C11            0.8420    -2.7406    -0.8658 C.3     
  12 O12            0.2846    -1.1775     4.5287 O.3     
  13 C13           -0.3093     0.0959     4.7896 C.3     
  14 O14            1.4075    -3.6116     3.8741 O.3     
  15 C15            1.9804    -4.8531     3.4586 C.3     
  16 C16            0.5110     0.3406    -2.3742 C.2     
  17 O17            0.4793     1.5306    -2.1285 O.2     
  18 C18            1.0899    -0.1360    -3.6484 C.ar    
  19 C19            1.6826    -1.3973    -3.7203 C.ar    
  20 C20            1.0407     0.6715    -4.7859 C.ar    
  21 C21            1.5832     0.2203    -5.9725 C.ar    
  22 C22            2.1749    -1.0303    -6.0350 C.ar    
  23 C23            2.2213    -1.8368    -4.9123 C.ar    
  24 O24            1.5249     1.2715     0.1012 O.3     
  25 C25            2.1601     2.4496     0.3432 C.ar    
  26 C26            3.5459     2.5065     0.3236 C.ar    
  27 C27            1.4214     3.5944     0.6037 C.ar    
  28 C28            2.0652     4.7910     0.8495 C.ar    
  29 C29            3.4532     4.8481     0.8358 C.ar    
  30 C30            4.1918     3.7021     0.5691 C.ar    
  31 Cl31           1.5230     1.2221    -7.3890 Cl      
  32 S32            4.2760     6.3744     1.1487 S.3     
  33 C33            6.0292     5.9268     1.0195 C.3     
  34 H34           -0.2792     1.9802    -0.6138 H       
  35 H35           -0.2391     1.6015     1.1249 H       
  36 H36           -1.5243    -0.1074    -0.1315 H       
  37 H37           -0.4831     0.2435     2.4735 H       
  38 H38            1.5345    -4.0882     1.3095 H       
  39 H39           -1.1139    -2.3126    -1.6659 H       
  40 H40            0.2170    -2.1450    -2.8416 H       
  41 H41            1.8762    -2.5660    -1.1625 H       
  42 H42            0.6252    -3.8066    -0.9349 H       
  43 H43           -1.3216     0.1142     4.3860 H       
  44 H44           -0.3440     0.2669     5.8655 H       
  45 H45            0.2848     0.8777     4.3164 H       
  46 H46            2.8502    -4.6598     2.8308 H       
  47 H47            2.2851    -5.4242     4.3356 H       
  48 H48            1.2430    -5.4222     2.8926 H       
  49 H49            1.7200    -2.0282    -2.8446 H       
  50 H50            0.5791     1.6467    -4.7380 H       
  51 H51            2.5980    -1.3791    -6.9655 H       
  52 H52            2.6845    -2.8108    -4.9675 H       
  53 H53            4.1199     1.6154     0.1166 H       
  54 H54            0.3424     3.5499     0.6140 H       
  55 H55            1.4899     5.6824     1.0520 H       
  56 H56            5.2709     3.7453     0.5582 H       
  57 H57            6.2651     5.1640     1.7615 H       
  58 H58            6.2324     5.5382     0.0216 H       
  59 H59            6.6436     6.8093     1.1979 H       
@<TRIPOS>BOND
   1    1    2 1
   2    1   24 1
   3    1   34 1
   4    1   35 1
   5    2    3 1
   6    2    4 1
   7    2   36 1
   8    3   10 1
   9    3   16 am
  10    4    5 ar
  11    4    6 ar
  12    5    7 ar
  13    5   11 1
  14    6    9 ar
  15    6   37 1
  16    7    8 ar
  17    7   38 1
  18    8    9 ar
  19    8   14 1
  20    9   12 1
  21   10   11 1
  22   10   39 1
  23   10   40 1
  24   11   41 1
  25   11   42 1
  26   12   13 1
  27   13   43 1
  28   13   44 1
  29   13   45 1
  30   14   15 1
  31   15   46 1
  32   15   47 1
  33   15   48 1
  34   16   17 2
  35   16   18 1
  36   18   20 ar
  37   18   19 ar
  38   19   23 ar
  39   19   49 1
  40   20   21 ar
  41   20   50 1
  42   21   22 ar
  43   21   31 1
  44   22   23 ar
  45   22   51 1
  46   23   52 1
  47   24   25 1
  48   25   26 ar
  49   25   27 ar
  50   26   30 ar
  51   26   53 1
  52   27   28 ar
  53   27   54 1
  54   28   29 ar
  55   28   55 1
  56   29   30 ar
  57   29   32 1
  58   30   56 1
  59   32   33 1
  60   33   57 1
  61   33   58 1
  62   33   59 1

#	End of record

