#	Name: ASD13490050
#	Creating user name:	WinNT
#	Creation time:	15. 06. 2019 21:30

#	Modifying user name:	WinNT
#	Modification time:	15. 06. 2019 21:30

#	Program:	/corina/corina34_cracker 3.40 0067  02.08.2006

@<TRIPOS>MOLECULE
ASD13490050
  52   55    0    0    0
SMALL
NO_CHARGES


@<TRIPOS>ATOM
   1 C1            -0.0159     1.3771     0.0954 C.ar    
   2 C2             0.0030    -0.0037     0.1144 C.ar    
   3 C3             1.2165    -0.6832     0.0948 C.ar    
   4 C4             2.4106     0.0245     0.0560 C.ar    
   5 C5             2.3967     1.4034     0.0374 C.ar    
   6 C6             1.1823     2.0883     0.0565 C.ar    
   7 N7             1.2341    -2.0860     0.1146 N.pl3   
   8 C8             1.9321    -2.9041    -0.7353 C.2     
   9 C9             1.6657    -4.1709    -0.3638 C.2     
  10 N10            0.8287    -4.1328     0.6834 N.2     
  11 C11            0.5675    -2.8894     0.9831 C.2     
  12 C12            1.1655     3.5711     0.0355 C.2     
  13 N13            0.0327     4.2713     0.0530 N.2     
  14 C14            0.1422     5.5637     0.0316 C.2     
  15 S15            1.8457     6.0070    -0.0162 S.3     
  16 C16            2.2927     4.3028     0.0033 C.2     
  17 N17           -0.9176     6.4574     0.0445 N.pl3   
  18 C18           -0.6737     7.8291     0.1544 C.ar    
  19 C19           -0.1902    10.5449     0.3714 C.ar    
  20 C20            0.6230     9.6441     1.0350 C.ar    
  21 C21            0.3846     8.2882     0.9289 C.ar    
  22 C22           -1.4851     8.7362    -0.5149 C.ar    
  23 C23           -1.2409    10.0911    -0.4044 C.ar    
  24 C24           -2.6303     8.2426    -1.3610 C.3     
  25 C25            2.2134    -5.4160    -1.0126 C.3     
  26 C26            1.7674    10.1433     1.8790 C.3     
  27 C27            1.2557    10.4888     3.2789 C.3     
  28 F28           -1.1573    -0.6946     0.1525 F       
  29 C29            0.0731    12.0240     0.4896 C.3     
  30 H30           -0.9580     1.9051     0.1061 H       
  31 H31            3.3514    -0.5055     0.0409 H       
  32 H32            3.3261     1.9526     0.0080 H       
  33 H33            2.5724    -2.5927    -1.5474 H       
  34 H34           -0.0734    -2.5556     1.7857 H       
  35 H35            3.2998     3.9129    -0.0103 H       
  36 H36           -1.8284     6.1306    -0.0228 H       
  37 H37            1.0197     7.5854     1.4476 H       
  38 H38           -1.8742    10.7972    -0.9209 H       
  39 H39           -3.5290     8.1689    -0.7487 H       
  40 H40           -2.8046     8.9409    -2.1796 H       
  41 H41           -2.3855     7.2609    -1.7667 H       
  42 H42            3.1484    -5.6970    -0.5280 H       
  43 H43            1.4924    -6.2269    -0.9091 H       
  44 H44            2.3955    -5.2245    -2.0701 H       
  45 H45            2.5301     9.3680     1.9521 H       
  46 H46            2.1968    11.0333     1.4192 H       
  47 H47            0.4930    11.2640     3.2059 H       
  48 H48            0.8263     9.5987     3.7388 H       
  49 H49            2.0834    10.8499     3.8894 H       
  50 H50            0.7556    12.3359    -0.3011 H       
  51 H51           -0.8661    12.5689     0.3948 H       
  52 H52            0.5204    12.2370     1.4605 H       
@<TRIPOS>BOND
   1    1    2 ar
   2    1    6 ar
   3    1   30 1
   4    2    3 ar
   5    2   28 1
   6    3    4 ar
   7    3    7 1
   8    4    5 ar
   9    4   31 1
  10    5    6 ar
  11    5   32 1
  12    6   12 1
  13    7    8 1
  14    7   11 1
  15    8    9 2
  16    8   33 1
  17    9   10 1
  18    9   25 1
  19   10   11 2
  20   11   34 1
  21   12   13 1
  22   12   16 2
  23   13   14 2
  24   14   15 1
  25   14   17 1
  26   15   16 1
  27   16   35 1
  28   17   18 1
  29   17   36 1
  30   18   22 ar
  31   18   21 ar
  32   19   20 ar
  33   19   23 ar
  34   19   29 1
  35   20   21 ar
  36   20   26 1
  37   21   37 1
  38   22   23 ar
  39   22   24 1
  40   23   38 1
  41   24   39 1
  42   24   40 1
  43   24   41 1
  44   25   42 1
  45   25   43 1
  46   25   44 1
  47   26   27 1
  48   26   45 1
  49   26   46 1
  50   27   47 1
  51   27   48 1
  52   27   49 1
  53   29   50 1
  54   29   51 1
  55   29   52 1

#	End of record

