#	Name: ASD10610076
#	Creating user name:	WinNT
#	Creation time:	15. 06. 2019 21:27

#	Modifying user name:	WinNT
#	Modification time:	15. 06. 2019 21:27

#	Program:	/corina/corina34_cracker 3.40 0067  02.08.2006

@<TRIPOS>MOLECULE
ASD10610076
  63   68    0    0    0
SMALL
NO_CHARGES


@<TRIPOS>ATOM
   1 O1            -0.3529     1.3161    -0.3402 O.3     
   2 N2            -0.8101     0.2579    -0.7039 N.2     
   3 C3            -1.3015     0.3293    -1.9112 C.2     
   4 C4            -1.1037     1.6649    -2.3464 C.2     
   5 C5            -0.4828     2.2648    -1.2870 C.2     
   6 C6            -0.0429     3.6703    -1.1985 C.2     
   7 O7            -0.2245     4.4243    -2.1348 O.2     
   8 N8             0.5603     4.1184    -0.0796 N.am    
   9 O9            -0.1250     6.4993     1.2953 O.3     
  10 C10            0.0364     6.5862    -0.1265 C.3     
  11 C11            1.0957     5.4812    -0.0317 C.3     
  12 C12            1.2372     6.0614     1.3809 C.3     
  13 C13            2.2970     5.6873    -0.9180 C.2     
  14 N14            3.1961     4.6958    -1.0759 N.am    
  15 O15            2.4548     6.7455    -1.4892 O.2     
  16 C16            4.4186     4.9315    -1.8480 C.3     
  17 C17            5.5311     3.9606    -1.3989 C.3     
  18 C18            5.3543     2.7790    -2.3759 C.3     
  19 C19            4.7230     3.3796    -3.6140 C.ar    
  20 C20            4.6281     2.8813    -4.9003 C.ar    
  21 C21            3.9910     3.6233    -5.8918 C.ar    
  22 C22            3.4504     4.8702    -5.5806 C.ar    
  23 C23            3.5504     5.3588    -4.2955 C.ar    
  24 C24            4.1849     4.6175    -3.3107 C.ar    
  25 C25            3.8884     3.0902    -7.2713 C.ar    
  26 C26            2.6494     3.0754    -7.9318 C.ar    
  27 C27            2.5658     2.5714    -9.2292 C.ar    
  28 C28            3.6999     2.0900    -9.8573 C.ar    
  29 C29            4.9209     2.1053    -9.2043 C.ar    
  30 C30            5.0206     2.6071    -7.9202 C.ar    
  31 O31            0.2378     4.4226    -5.7891 O.3     
  32 N32            1.3757     4.0899    -6.0450 N.2     
  33 C33            1.4373     3.5922    -7.2537 C.2     
  34 N34            0.1870     3.6383    -7.7681 N.2     
  35 C35           -0.5599     4.1657    -6.8306 C.2     
  36 C36           -2.0409     4.4324    -6.9106 C.3     
  37 F37            1.3777     2.5530    -9.8720 F       
  38 Cl38           6.3358     1.4970   -10.0054 Cl      
  39 O39           -1.8861    -0.6756    -2.6115 O.3     
  40 C40           -1.9776    -1.9477    -1.9670 C.3     
  41 H41           -1.3788     2.1046    -3.2937 H       
  42 H42            0.6399     3.5386     0.6939 H       
  43 H43           -0.8525     6.2870    -0.6820 H       
  44 H44            0.4380     7.5434    -0.4587 H       
  45 H45            1.9525     6.8816     1.4422 H       
  46 H46            1.4006     5.3025     2.1460 H       
  47 H47            3.0337     3.8260    -0.6782 H       
  48 H48            4.7477     5.9640    -1.7307 H       
  49 H49            6.5140     4.4168    -1.5165 H       
  50 H50            5.3725     3.6392    -0.3695 H       
  51 H51            6.3225     2.3415    -2.6194 H       
  52 H52            4.6960     2.0257    -1.9432 H       
  53 H53            5.0485     1.9149    -5.1365 H       
  54 H54            2.9551     5.4516    -6.3441 H       
  55 H55            3.1320     6.3249    -4.0544 H       
  56 H56            3.6329     1.6997   -10.8621 H       
  57 H57            5.9769     2.6202    -7.4185 H       
  58 H58           -2.3811     4.8769    -5.9752 H       
  59 H59           -2.2427     5.1184    -7.7333 H       
  60 H60           -2.5703     3.4950    -7.0810 H       
  61 H61           -0.9769    -2.3043    -1.7231 H       
  62 H62           -2.5616    -1.8502    -1.0518 H       
  63 H63           -2.4641    -2.6590    -2.6344 H       
@<TRIPOS>BOND
   1    1    2 1
   2    1    5 1
   3    2    3 2
   4    3    4 1
   5    3   39 1
   6    4    5 2
   7    4   41 1
   8    5    6 1
   9    6    7 2
  10    6    8 am
  11    8   11 1
  12    8   42 1
  13    9   10 1
  14    9   12 1
  15   10   11 1
  16   10   43 1
  17   10   44 1
  18   11   12 1
  19   11   13 1
  20   12   45 1
  21   12   46 1
  22   13   14 am
  23   13   15 2
  24   14   16 1
  25   14   47 1
  26   16   17 1
  27   16   24 1
  28   16   48 1
  29   17   18 1
  30   17   49 1
  31   17   50 1
  32   18   19 1
  33   18   51 1
  34   18   52 1
  35   19   20 ar
  36   19   24 ar
  37   20   21 ar
  38   20   53 1
  39   21   22 ar
  40   21   25 1
  41   22   23 ar
  42   22   54 1
  43   23   24 ar
  44   23   55 1
  45   25   26 ar
  46   25   30 ar
  47   26   27 ar
  48   26   33 1
  49   27   28 ar
  50   27   37 1
  51   28   29 ar
  52   28   56 1
  53   29   30 ar
  54   29   38 1
  55   30   57 1
  56   31   32 1
  57   31   35 1
  58   32   33 2
  59   33   34 1
  60   34   35 2
  61   35   36 1
  62   36   58 1
  63   36   59 1
  64   36   60 1
  65   39   40 1
  66   40   61 1
  67   40   62 1
  68   40   63 1

#	End of record

