#	Name: ASD10410156
#	Creating user name:	WinNT
#	Creation time:	15. 06. 2019 21:27

#	Modifying user name:	WinNT
#	Modification time:	15. 06. 2019 21:27

#	Program:	/corina/corina34_cracker 3.40 0067  02.08.2006

@<TRIPOS>MOLECULE
ASD10410156
  71   77    0    0    0
SMALL
NO_CHARGES


@<TRIPOS>ATOM
   1 C1            -0.0740     1.4485    -0.5485 C.ar    
   2 C2            -0.1850     0.0729    -0.4389 C.ar    
   3 C3             0.9379    -0.7140    -0.4043 C.ar    
   4 C4             2.1946    -0.1435    -0.4790 C.ar    
   5 C5             2.3157     1.2369    -0.5893 C.ar    
   6 C6             1.1767     2.0312    -0.6237 C.ar    
   7 N7             3.5812     1.8246    -0.6650 N.pl3   
   8 C8             3.7555     3.0172    -1.3670 C.2     
   9 N9             4.8677     3.7094    -1.4251 N.2     
  10 N10            2.8160     3.6342    -2.0931 N.2     
  11 C11            3.3128     4.7323    -2.6209 C.2     
  12 N12            4.6116     4.8310    -2.2304 N.pl3   
  13 N13            2.6364     5.6243    -3.4304 N.pl3   
  14 C14            5.5092     5.8431    -2.5626 C.ar    
  15 C15           -1.5593    -0.5589    -0.3585 C.3     
  16 C16           -1.7666    -1.0893     1.0623 C.3     
  17 C17           -1.1920    -2.4844     1.2090 C.3     
  18 C18            0.3203    -2.5512     1.1285 C.3     
  19 C19            0.8084    -2.2184    -0.2842 C.3     
  20 N20           -1.6140    -3.0280     2.5068 N.3     
  21 N21            5.1314     6.8516    -3.3376 N.ar    
  22 C22            6.8252     5.8159    -2.0785 C.ar    
  23 C23            5.9789     7.8150    -3.6556 C.ar    
  24 N24            7.2192     7.8308    -3.2321 N.ar    
  25 C25            7.6968     6.8501    -2.4334 C.ar    
  26 C26           -1.9146    -5.0537     3.8985 C.3     
  27 C27           -2.9569    -6.1148     3.4306 C.3     
  28 C28           -4.1239    -5.2756     2.8264 C.3     
  29 C29           -3.5473    -4.6903     1.5170 C.3     
  30 C30           -1.3379    -4.4685     2.5891 C.3     
  31 C31           -2.0862    -5.2311     1.4534 C.3     
  32 C32           -2.2688    -6.6396     2.1212 C.3     
  33 Cl33           5.4281     9.1087    -4.6737 Cl      
  34 C34            8.9767     6.6867    -1.8806 C.2     
  35 C35            9.1460     5.6108    -1.1284 C.2     
  36 S36            7.6662     4.6698    -1.0453 S.3     
  37 C37           10.0882     7.6738    -2.1283 C.3     
  38 C38           -0.9735    -2.3052     3.6137 C.3     
  39 H39           -0.9614     2.0633    -0.5794 H       
  40 H40            3.0766    -0.7661    -0.4515 H       
  41 H41            1.2686     3.1039    -0.7089 H       
  42 H42            4.3385     1.4032    -0.2293 H       
  43 H43            1.7065     5.4655    -3.6561 H       
  44 H44            3.0914     6.4095    -3.7731 H       
  45 H45           -2.3199     0.1883    -0.5851 H       
  46 H46           -1.6264    -1.3818    -1.0701 H       
  47 H47           -1.2729    -0.4224     1.7692 H       
  48 H48           -2.8338    -1.1165     1.2823 H       
  49 H49           -1.6082    -3.1141     0.4227 H       
  50 H50            0.7483    -1.8379     1.8328 H       
  51 H51            0.6490    -3.5561     1.3935 H       
  52 H52            0.0883    -2.5841    -1.0162 H       
  53 H53            1.7786    -2.6845    -0.4558 H       
  54 H54           -2.4029    -4.2726     4.4812 H       
  55 H55           -1.1257    -5.5278     4.4826 H       
  56 H56           -3.2412    -6.8623     4.1712 H       
  57 H57           -4.9804    -5.9149     2.6121 H       
  58 H58           -4.4081    -4.4740     3.5081 H       
  59 H59           -4.1203    -5.0419     0.6590 H       
  60 H60           -3.5480    -3.6010     1.5550 H       
  61 H61           -0.2653    -4.6530     2.5304 H       
  62 H62           -1.6122    -5.2089     0.4721 H       
  63 H63           -1.3130    -7.1216     2.3267 H       
  64 H64           -2.9301    -7.2840     1.5420 H       
  65 H65           10.0698     5.3461    -0.6356 H       
  66 H66           10.0664     8.4460    -1.3593 H       
  67 H67           11.0472     7.1566    -2.0968 H       
  68 H68            9.9549     8.1328    -3.1079 H       
  69 H69           -1.2954    -1.2639     3.6022 H       
  70 H70           -1.2593    -2.7634     4.5605 H       
  71 H71            0.1096    -2.3519     3.4997 H       
@<TRIPOS>BOND
   1    1    2 ar
   2    1    6 ar
   3    1   39 1
   4    2    3 ar
   5    2   15 1
   6    3    4 ar
   7    3   19 1
   8    4    5 ar
   9    4   40 1
  10    5    6 ar
  11    5    7 1
  12    6   41 1
  13    7    8 1
  14    7   42 1
  15    8    9 2
  16    8   10 1
  17    9   12 1
  18   10   11 2
  19   11   12 1
  20   11   13 1
  21   12   14 1
  22   13   43 1
  23   13   44 1
  24   14   21 ar
  25   14   22 ar
  26   15   16 1
  27   15   45 1
  28   15   46 1
  29   16   17 1
  30   16   47 1
  31   16   48 1
  32   17   18 1
  33   17   20 1
  34   17   49 1
  35   18   19 1
  36   18   50 1
  37   18   51 1
  38   19   52 1
  39   19   53 1
  40   20   38 1
  41   20   30 1
  42   21   23 ar
  43   22   25 ar
  44   22   36 1
  45   23   24 ar
  46   23   33 1
  47   24   25 ar
  48   25   34 1
  49   26   27 1
  50   26   30 1
  51   26   54 1
  52   26   55 1
  53   27   28 1
  54   27   32 1
  55   27   56 1
  56   28   29 1
  57   28   57 1
  58   28   58 1
  59   29   31 1
  60   29   59 1
  61   29   60 1
  62   30   31 1
  63   30   61 1
  64   31   32 1
  65   31   62 1
  66   32   63 1
  67   32   64 1
  68   34   35 2
  69   34   37 1
  70   35   36 1
  71   35   65 1
  72   37   66 1
  73   37   67 1
  74   37   68 1
  75   38   69 1
  76   38   70 1
  77   38   71 1

#	End of record

