#	Name: ASD13110033
#	Creating user name:	WinNT
#	Creation time:	15. 06. 2019 21:30

#	Modifying user name:	WinNT
#	Modification time:	15. 06. 2019 21:30

#	Program:	/corina/corina34_cracker 3.40 0067  02.08.2006

@<TRIPOS>MOLECULE
ASD13110033
  35   36    0    0    0
SMALL
NO_CHARGES


@<TRIPOS>ATOM
   1 C1             7.0144     0.5399    -0.1771 C.ar    
   2 C2             8.1607     0.8754    -0.8786 C.ar    
   3 C3             8.2393     2.1061    -1.5017 C.ar    
   4 C4             7.1784     2.9896    -1.4210 C.ar    
   5 C5             6.0146     2.6714    -0.7195 C.ar    
   6 C6             5.9565     1.4166    -0.0946 C.ar    
   7 Cl7            6.9080    -1.0081     0.6015 Cl      
   8 S8             6.9272     4.6137    -2.0756 S.3     
   9 C9             5.3023     4.7950    -1.3940 C.2     
  10 N10            5.0482     3.6609    -0.7339 N.am    
  11 O11            4.5661     5.7581    -1.5039 O.2     
  12 C12            3.7720     3.4696    -0.0403 C.3     
  13 C13            3.9331     3.8402     1.4353 C.3     
  14 C14            4.2066     5.3406     1.5574 C.3     
  15 N15            2.7003     3.5066     2.1613 N.3     
  16 C16            2.8820     3.6696     3.6099 C.3     
  17 C17            1.6936     3.0906     4.3335 C.2     
  18 O18            1.6410     3.1275     5.6742 O.3     
  19 O19            0.7883     2.5931     3.7068 O.2     
  20 C20            1.5706     4.3119     1.6785 C.3     
  21 H21            8.9859     0.1813    -0.9376 H       
  22 H22            9.1286     2.3780    -2.0510 H       
  23 H23            5.0716     1.1352     0.4571 H       
  24 H24            3.0128     4.1065    -0.4942 H       
  25 H25            3.4671     2.4263    -0.1217 H       
  26 H26            4.7675     3.2829     1.8610 H       
  27 H27            4.3214     5.6046     2.6087 H       
  28 H28            5.1213     5.5881     1.0188 H       
  29 H29            3.3722     5.8979     1.1318 H       
  30 H30            3.7871     3.1495     3.9234 H       
  31 H31            2.9711     4.7296     3.8479 H       
  32 H32            0.8587     2.7435     6.0936 H       
  33 H33            1.3739     4.0722     0.6335 H       
  34 H34            0.6855     4.0907     2.2748 H       
  35 H35            1.8143     5.3705     1.7687 H       
@<TRIPOS>BOND
   1    1    2 ar
   2    1    6 ar
   3    1    7 1
   4    2    3 ar
   5    2   21 1
   6    3    4 ar
   7    3   22 1
   8    4    8 1
   9    4    5 ar
  10    5    6 ar
  11    5   10 1
  12    6   23 1
  13    8    9 1
  14    9   10 am
  15    9   11 2
  16   10   12 1
  17   12   13 1
  18   12   24 1
  19   12   25 1
  20   13   14 1
  21   13   15 1
  22   13   26 1
  23   14   27 1
  24   14   28 1
  25   14   29 1
  26   15   16 1
  27   15   20 1
  28   16   17 1
  29   16   30 1
  30   16   31 1
  31   17   18 1
  32   17   19 2
  33   18   32 1
  34   20   33 1
  35   20   34 1
  36   20   35 1

#	End of record

