#	Name: ASD10800050
#	Creating user name:	WinNT
#	Creation time:	15. 06. 2019 21:28

#	Modifying user name:	WinNT
#	Modification time:	15. 06. 2019 21:28

#	Program:	/corina/corina34_cracker 3.40 0067  02.08.2006

@<TRIPOS>MOLECULE
ASD10800050
  49   52    0    0    0
SMALL
NO_CHARGES


@<TRIPOS>ATOM
   1 C1             0.0196     1.2553     0.2092 C.ar    
   2 C2             0.1016    -0.1281     0.4298 C.ar    
   3 C3             1.3237    -0.7257     0.4969 C.ar    
   4 C4             2.4953     0.0140     0.3501 C.ar    
   5 C5             2.4542     1.3587     0.1347 C.ar    
   6 C6             1.2140     2.0078     0.0597 C.ar    
   7 C7             3.7321     2.1422    -0.0213 C.3     
   8 C8             4.1392     2.7285     1.3320 C.3     
   9 N9             4.7920     1.2559    -0.5082 N.pl3   
  10 C10            5.3470     3.6119     1.1539 C.ar    
  11 C11            5.1852     4.9572     0.8802 C.ar    
  12 C12            6.6169     3.0781     1.2698 C.ar    
  13 C13            7.7249     3.8884     1.1064 C.ar    
  14 C14            7.5630     5.2324     0.8266 C.ar    
  15 C15            6.2931     5.7675     0.7168 C.ar    
  16 C16            9.1092     3.3066     1.2336 C.3     
  17 C17            6.1167     7.2327     0.4119 C.3     
  18 C18            4.9436     1.0422    -1.8587 C.2     
  19 N19            5.8901     0.3592    -2.3951 N.2     
  20 S20            3.8605     1.6605    -3.1112 S.3     
  21 C21            4.7725     0.9353    -4.5120 C.3     
  22 C22            5.9417     0.2059    -3.8319 C.3     
  23 C23            1.1043     3.3932    -0.1603 C.ar    
  24 C24           -0.1374     3.9489    -0.2197 C.ar    
  25 N25           -1.2374     3.2224    -0.0761 N.ar    
  26 C26           -1.2115     1.9257     0.1248 C.ar    
  27 H27           -0.7978    -0.7146     0.5460 H       
  28 H28            1.3857    -1.7904     0.6671 H       
  29 H29            3.4507    -0.4862     0.4082 H       
  30 H30            3.5777     2.9507    -0.7359 H       
  31 H31            3.3152     3.3168     1.7358 H       
  32 H32            4.3795     1.9190     2.0212 H       
  33 H33            5.3869     0.8197     0.1217 H       
  34 H34            4.1931     5.3751     0.7937 H       
  35 H35            6.7433     2.0280     1.4883 H       
  36 H36            8.4286     5.8655     0.6993 H       
  37 H37            9.4475     2.9571     0.2582 H       
  38 H38            9.7923     4.0717     1.6025 H       
  39 H39            9.0890     2.4702     1.9323 H       
  40 H40            6.0729     7.3765    -0.6677 H       
  41 H41            5.1909     7.5889     0.8637 H       
  42 H42            6.9586     7.7925     0.8191 H       
  43 H43            4.1451     0.2280    -5.0545 H       
  44 H44            5.1382     1.7164    -5.1785 H       
  45 H45            6.8818     0.6166    -4.2003 H       
  46 H46            5.8950    -0.8542    -4.0813 H       
  47 H47            1.9873     4.0036    -0.2792 H       
  48 H48           -0.2289     5.0118    -0.3882 H       
  49 H49           -2.1350     1.3770     0.2359 H       
@<TRIPOS>BOND
   1    1    2 ar
   2    1    6 ar
   3    1   26 ar
   4    2    3 ar
   5    2   27 1
   6    3    4 ar
   7    3   28 1
   8    4    5 ar
   9    4   29 1
  10    5    6 ar
  11    5    7 1
  12    6   23 ar
  13    7    8 1
  14    7    9 1
  15    7   30 1
  16    8   10 1
  17    8   31 1
  18    8   32 1
  19    9   18 1
  20    9   33 1
  21   10   11 ar
  22   10   12 ar
  23   11   15 ar
  24   11   34 1
  25   12   13 ar
  26   12   35 1
  27   13   14 ar
  28   13   16 1
  29   14   15 ar
  30   14   36 1
  31   15   17 1
  32   16   37 1
  33   16   38 1
  34   16   39 1
  35   17   40 1
  36   17   41 1
  37   17   42 1
  38   18   19 2
  39   18   20 1
  40   19   22 1
  41   20   21 1
  42   21   22 1
  43   21   43 1
  44   21   44 1
  45   22   45 1
  46   22   46 1
  47   23   24 ar
  48   23   47 1
  49   24   25 ar
  50   24   48 1
  51   25   26 ar
  52   26   49 1

#	End of record

