#	Name: ASD11000085
#	Creating user name:	WinNT
#	Creation time:	15. 06. 2019 21:28

#	Modifying user name:	WinNT
#	Modification time:	15. 06. 2019 21:28

#	Program:	/corina/corina34_cracker 3.40 0067  02.08.2006

@<TRIPOS>MOLECULE
ASD11000085
  60   63    0    0    0
SMALL
NO_CHARGES


@<TRIPOS>ATOM
   1 C1             0.4535     1.3557    -0.6716 C.ar    
   2 C2             0.3909     0.0023    -0.4024 C.ar    
   3 C3             1.5559    -0.7482    -0.3459 C.ar    
   4 C4             2.7838    -0.1396    -0.5592 C.ar    
   5 C5             2.8465     1.2137    -0.8284 C.ar    
   6 C6             1.6814     1.9641    -0.8854 C.ar    
   7 O7             1.7431     3.2964    -1.1509 O.3     
   8 C8             0.5042     4.0072    -1.1944 C.3     
   9 O9             1.4942    -2.0805    -0.0809 O.3     
  10 C10            2.7190    -2.8133    -0.1509 C.3     
  11 C11            2.4322    -4.3049     0.0326 C.3     
  12 N12            1.9861    -4.5505     1.4081 N.am    
  13 C13            1.3562    -4.7317    -0.9345 C.ar    
  14 C14            0.2638    -5.4727    -0.5409 C.ar    
  15 C15            1.4953    -4.3533    -2.2631 C.ar    
  16 C16           -0.6867    -5.8492    -1.4824 C.ar    
  17 C17           -0.5507    -5.4784    -2.8073 C.ar    
  18 C18            0.5481    -4.7208    -3.2014 C.ar    
  19 C19            1.3339    -5.8407     1.6867 C.3     
  20 C20            0.0329    -5.8916     0.8874 C.3     
  21 S21            2.2075    -3.4222     2.5998 S.o2    
  22 O22            2.0844    -2.1510     1.9768 O.2     
  23 O23            0.6902    -4.3455    -4.5007 O.3     
  24 C24            1.8439    -3.5690    -4.8293 C.3     
  25 O25           -1.4863    -5.8519    -3.7208 O.3     
  26 C26           -2.5866    -6.6282    -3.2424 C.3     
  27 O27            1.4009    -3.8322     3.6955 O.2     
  28 C28            3.8805    -3.5528     3.1374 C.ar    
  29 C29            4.8402    -2.7011     2.6231 C.ar    
  30 C30            6.1526    -2.8036     3.0448 C.ar    
  31 C31            6.5053    -3.7575     3.9810 C.ar    
  32 C32            5.5454    -4.6087     4.4959 C.ar    
  33 C33            4.2321    -4.5033     4.0775 C.ar    
  34 H34           -0.4540     1.9392    -0.7200 H       
  35 H35           -0.5653    -0.4714    -0.2356 H       
  36 H36            3.6911    -0.7239    -0.5145 H       
  37 H37            3.8027     1.6876    -0.9942 H       
  38 H38            0.0032     3.9236    -0.2300 H       
  39 H39            0.6954     5.0574    -1.4147 H       
  40 H40           -0.1311     3.5827    -1.9718 H       
  41 H41            3.1852    -2.6498    -1.1225 H       
  42 H42            3.3915    -2.4730     0.6366 H       
  43 H43            3.3404    -4.8754    -0.1614 H       
  44 H44            2.3500    -3.7668    -2.5663 H       
  45 H45           -1.5393    -6.4371    -1.1762 H       
  46 H46            1.9871    -6.6578     1.3805 H       
  47 H47            1.1158    -5.9213     2.7516 H       
  48 H48           -0.6950    -5.2211     1.3443 H       
  49 H49           -0.3583    -6.9089     0.9038 H       
  50 H50            1.8331    -2.6419    -4.2561 H       
  51 H51            2.7436    -4.1349    -4.5878 H       
  52 H52            1.8350    -3.3377    -5.8944 H       
  53 H53           -3.2567    -6.8578    -4.0709 H       
  54 H54           -2.2148    -7.5561    -2.8079 H       
  55 H55           -3.1275    -6.0627    -2.4836 H       
  56 H56            4.5646    -1.9558     1.8917 H       
  57 H57            6.9026    -2.1386     2.6425 H       
  58 H58            7.5308    -3.8381     4.3100 H       
  59 H59            5.8210    -5.3542     5.2271 H       
  60 H60            3.4822    -5.1682     4.4798 H       
@<TRIPOS>BOND
   1    1    2 ar
   2    1    6 ar
   3    1   34 1
   4    2    3 ar
   5    2   35 1
   6    3    4 ar
   7    3    9 1
   8    4    5 ar
   9    4   36 1
  10    5    6 ar
  11    5   37 1
  12    6    7 1
  13    7    8 1
  14    8   38 1
  15    8   39 1
  16    8   40 1
  17    9   10 1
  18   10   11 1
  19   10   41 1
  20   10   42 1
  21   11   12 1
  22   11   13 1
  23   11   43 1
  24   12   19 1
  25   12   21 am
  26   13   14 ar
  27   13   15 ar
  28   14   16 ar
  29   14   20 1
  30   15   18 ar
  31   15   44 1
  32   16   17 ar
  33   16   45 1
  34   17   18 ar
  35   17   25 1
  36   18   23 1
  37   19   20 1
  38   19   46 1
  39   19   47 1
  40   20   48 1
  41   20   49 1
  42   21   22 2
  43   21   27 2
  44   21   28 1
  45   23   24 1
  46   24   50 1
  47   24   51 1
  48   24   52 1
  49   25   26 1
  50   26   53 1
  51   26   54 1
  52   26   55 1
  53   28   29 ar
  54   28   33 ar
  55   29   30 ar
  56   29   56 1
  57   30   31 ar
  58   30   57 1
  59   31   32 ar
  60   31   58 1
  61   32   33 ar
  62   32   59 1
  63   33   60 1

#	End of record

