#	Name: ASD15080001
#	Creating user name:	WinNT
#	Creation time:	15. 06. 2019 21:31

#	Modifying user name:	WinNT
#	Modification time:	15. 06. 2019 21:31

#	Program:	/corina/corina34_cracker 3.40 0067  02.08.2006

@<TRIPOS>MOLECULE
ASD15080001
  55   57    0    0    0
SMALL
NO_CHARGES


@<TRIPOS>ATOM
   1 C1             0.1694     1.7466    -0.2754 C.ar    
   2 N2             0.2651     0.5589     0.3034 N.ar    
   3 C3             1.4336    -0.0353     0.4607 C.ar    
   4 N4             2.5573     0.5117     0.0563 N.ar    
   5 C5             1.3554     2.3872    -0.7337 C.ar    
   6 C6             1.5218     3.6226    -1.3676 C.2     
   7 C7             2.5671     1.7093    -0.5399 C.ar    
   8 S8             3.8891     2.6777    -1.1776 S.3     
   9 C9             2.7837     3.9463    -1.6778 C.2     
  10 C10            0.3590     4.5286    -1.6811 C.3     
  11 C11            3.1869     5.1902    -2.3450 C.2     
  12 O12            2.3468     6.0136    -2.6561 O.2     
  13 N13            4.4876     5.4201    -2.6130 N.am    
  14 C14            4.8899     6.6614    -3.2788 C.3     
  15 C15            6.4087     6.6720    -3.4633 C.3     
  16 C16            6.8290     7.9685    -4.1587 C.3     
  17 O17            8.2475     7.9784    -4.3310 O.3     
  18 C18            8.7466     9.1525    -4.9748 C.3     
  19 N19           -1.0612     2.3510    -0.4369 N.pl3   
  20 C20           -2.2320     1.6556    -0.1063 C.ar    
  21 C21           -4.5636     1.6631     0.4812 C.ar    
  22 C22           -4.5469     0.2799     0.5473 C.ar    
  23 C23           -3.3764    -0.4140     0.2929 C.ar    
  24 C24           -2.2204     0.2708    -0.0329 C.ar    
  25 C25           -3.4089     2.3545     0.1549 C.ar    
  26 O26           -3.4234     3.7127     0.0900 O.3     
  27 C27           -4.6889     4.3565     0.2520 C.3     
  28 C28           -4.9806     4.5399     1.7427 C.3     
  29 C29           -4.6569     5.7239    -0.4335 C.3     
  30 F30           -5.6741    -0.3934     0.8657 F       
  31 H31            1.4667    -1.0034     0.9382 H       
  32 H32            0.1062     5.1142    -0.7973 H       
  33 H33            0.6306     5.1995    -2.4961 H       
  34 H34           -0.5007     3.9272    -1.9767 H       
  35 H35            5.1572     4.7637    -2.3650 H       
  36 H36            4.4052     6.7248    -4.2530 H       
  37 H37            4.5921     7.5141    -2.6686 H       
  38 H38            6.8935     6.6087    -2.4891 H       
  39 H39            6.7066     5.8194    -4.0735 H       
  40 H40            6.3442     8.0318    -5.1329 H       
  41 H41            6.5311     8.8211    -3.5485 H       
  42 H42            8.4886    10.0297    -4.3815 H       
  43 H43            9.8304     9.0829    -5.0680 H       
  44 H44            8.3016     9.2404    -5.9659 H       
  45 H45           -1.1154     3.2569    -0.7791 H       
  46 H46           -5.4780     2.2022     0.6797 H       
  47 H47           -3.3670    -1.4926     0.3457 H       
  48 H48           -1.3083    -0.2728    -0.2305 H       
  49 H49           -5.4691     3.7426    -0.1980 H       
  50 H50           -5.0034     3.5657     2.2311 H       
  51 H51           -4.2005     5.1538     2.1928 H       
  52 H52           -5.9459     5.0310     1.8663 H       
  53 H53           -4.4491     5.5932    -1.4955 H       
  54 H54           -5.6222     6.2150    -0.3099 H       
  55 H55           -3.8767     6.3378     0.0166 H       
@<TRIPOS>BOND
   1    1    2 ar
   2    1    5 ar
   3    1   19 1
   4    2    3 ar
   5    3    4 ar
   6    3   31 1
   7    4    7 ar
   8    5    7 ar
   9    5    6 1
  10    6    9 2
  11    6   10 1
  12    7    8 1
  13    8    9 1
  14    9   11 1
  15   10   32 1
  16   10   33 1
  17   10   34 1
  18   11   12 2
  19   11   13 am
  20   13   14 1
  21   13   35 1
  22   14   15 1
  23   14   36 1
  24   14   37 1
  25   15   16 1
  26   15   38 1
  27   15   39 1
  28   16   17 1
  29   16   40 1
  30   16   41 1
  31   17   18 1
  32   18   42 1
  33   18   43 1
  34   18   44 1
  35   19   20 1
  36   19   45 1
  37   20   25 ar
  38   20   24 ar
  39   21   22 ar
  40   21   25 ar
  41   21   46 1
  42   22   23 ar
  43   22   30 1
  44   23   24 ar
  45   23   47 1
  46   24   48 1
  47   25   26 1
  48   26   27 1
  49   27   28 1
  50   27   29 1
  51   27   49 1
  52   28   50 1
  53   28   51 1
  54   28   52 1
  55   29   53 1
  56   29   54 1
  57   29   55 1

#	End of record

