#	Name: ASD10950059
#	Creating user name:	WinNT
#	Creation time:	15. 06. 2019 21:28

#	Modifying user name:	WinNT
#	Modification time:	15. 06. 2019 21:28

#	Program:	/corina/corina34_cracker 3.40 0067  02.08.2006

@<TRIPOS>MOLECULE
ASD10950059
  56   59    0    0    0
SMALL
NO_CHARGES


@<TRIPOS>ATOM
   1 C1            -0.9373     1.0978     1.5296 C.3     
   2 O2            -0.7540    -0.3107     1.2281 O.3     
   3 C3            -0.1656    -0.6134     0.0547 C.2     
   4 O4             0.1848     0.2749    -0.6960 O.2     
   5 C5             0.0535    -2.0257    -0.3191 C.ar    
   6 C6             0.6631    -2.3430    -1.5346 C.ar    
   7 C7             0.8645    -3.6639    -1.8774 C.ar    
   8 C8             0.4641    -4.6733    -1.0199 C.ar    
   9 C9            -0.1406    -4.3659     0.1861 C.ar    
  10 C10           -0.3429    -3.0492     0.5440 C.ar    
  11 C11            0.6871    -6.1140    -1.4015 C.3     
  12 N12            1.1136    -6.8862    -0.2287 N.am    
  13 C13            2.3225    -6.6507     0.5646 C.3     
  14 C14            2.0062    -5.6733     1.6984 C.3     
  15 C15            3.2497    -5.4312     2.5144 C.2     
  16 C16            3.6022    -6.0696     3.6414 C.2     
  17 N17            4.7957    -5.5821     4.0999 N.pl3   
  18 C18            5.2518    -4.5930     3.2578 C.ar    
  19 C19            4.3064    -4.4588     2.2248 C.ar    
  20 C20            4.5092    -3.5186     1.2126 C.ar    
  21 C21            5.6266    -2.7327     1.2309 C.ar    
  22 C22            6.5629    -2.8616     2.2479 C.ar    
  23 C23            6.3843    -3.7849     3.2544 C.ar    
  24 C24            0.1987    -7.8480    -0.0100 C.2     
  25 O25            0.2475    -8.6657     0.8870 O.2     
  26 C26           -0.8761    -7.7619    -1.0232 C.2     
  27 C27           -0.6094    -6.7345    -1.8671 C.2     
  28 C28           -1.3938    -6.3231    -2.9706 C.2     
  29 O29           -2.4723    -6.8408    -3.1752 O.2     
  30 C30           -0.8900    -5.2420    -3.8918 C.3     
  31 O31           -1.9521    -8.5768    -1.0957 O.3     
  32 C32           -1.7040    -9.9552    -1.3793 C.3     
  33 H33            0.0331     1.5938     1.5520 H       
  34 H34           -1.5616     1.5554     0.7623 H       
  35 H35           -1.4208     1.2014     2.5010 H       
  36 H36            0.9758    -1.5561    -2.2049 H       
  37 H37            1.3356    -3.9107    -2.8174 H       
  38 H38           -0.4510    -5.1587     0.8506 H       
  39 H39           -0.8150    -2.8106     1.4856 H       
  40 H40            1.4391    -6.1809    -2.1877 H       
  41 H41            2.6708    -7.5943     0.9848 H       
  42 H42            3.0990    -6.2284    -0.0731 H       
  43 H43            1.6579    -4.7298     1.2782 H       
  44 H44            1.2296    -6.0957     2.3361 H       
  45 H45            3.0284    -6.8518     4.1162 H       
  46 H46            5.2522    -5.8877     4.8994 H       
  47 H47            3.7855    -3.4132     0.4179 H       
  48 H48            5.7831    -2.0056     0.4478 H       
  49 H49            7.4414    -2.2334     2.2484 H       
  50 H50            7.1184    -3.8776     4.0411 H       
  51 H51            0.0875    -4.9008    -3.5512 H       
  52 H52           -0.8044    -5.6378    -4.9038 H       
  53 H53           -1.5889    -4.4056    -3.8867 H       
  54 H54           -1.2028   -10.0434    -2.3432 H       
  55 H55           -1.0700   -10.3781    -0.6000 H       
  56 H56           -2.6501   -10.4956    -1.4109 H       
@<TRIPOS>BOND
   1    1    2 1
   2    1   33 1
   3    1   34 1
   4    1   35 1
   5    2    3 1
   6    3    4 2
   7    3    5 1
   8    5    6 ar
   9    5   10 ar
  10    6    7 ar
  11    6   36 1
  12    7    8 ar
  13    7   37 1
  14    8    9 ar
  15    8   11 1
  16    9   10 ar
  17    9   38 1
  18   10   39 1
  19   11   12 1
  20   11   27 1
  21   11   40 1
  22   12   13 1
  23   12   24 am
  24   13   14 1
  25   13   41 1
  26   13   42 1
  27   14   15 1
  28   14   43 1
  29   14   44 1
  30   15   16 2
  31   15   19 1
  32   16   17 1
  33   16   45 1
  34   17   18 1
  35   17   46 1
  36   18   19 ar
  37   18   23 ar
  38   19   20 ar
  39   20   21 ar
  40   20   47 1
  41   21   22 ar
  42   21   48 1
  43   22   23 ar
  44   22   49 1
  45   23   50 1
  46   24   25 2
  47   24   26 1
  48   26   27 2
  49   26   31 1
  50   27   28 1
  51   28   29 2
  52   28   30 1
  53   30   51 1
  54   30   52 1
  55   30   53 1
  56   31   32 1
  57   32   54 1
  58   32   55 1
  59   32   56 1

#	End of record

