#	Name: ASD10610162
#	Creating user name:	WinNT
#	Creation time:	15. 06. 2019 21:28

#	Modifying user name:	WinNT
#	Modification time:	15. 06. 2019 21:28

#	Program:	/corina/corina34_cracker 3.40 0067  02.08.2006

@<TRIPOS>MOLECULE
ASD10610162
  18   18    0    0    0
SMALL
NO_CHARGES


@<TRIPOS>ATOM
   1 C1            -0.0180     1.4748     0.0102 C.2     
   2 C2             0.0021    -0.0041     0.0020 C.ar    
   3 C3             0.0231    -0.7117     1.2056 C.ar    
   4 C4             0.0413    -2.0915     1.1916 C.ar    
   5 C5             0.0392    -2.7756    -0.0129 C.ar    
   6 C6             0.0188    -2.0816    -1.2098 C.ar    
   7 C7            -0.0058    -0.6993    -1.2100 C.ar    
   8 N8             1.1017     2.1417     0.0030 N.2     
   9 N9            -1.2207     2.1476     0.0195 N.pl3   
  10 O10           -1.2399     3.5634     0.0273 O.3     
  11 F11           -0.0313    -0.0224    -2.3789 F       
  12 Cl12           0.0627    -4.5114    -0.0207 Cl      
  13 Br13           0.0273     0.2189     2.8517 Br      
  14 H14            0.0576    -2.6394     2.1221 H       
  15 H15            0.0180    -2.6208    -2.1456 H       
  16 H16            1.0885     3.1116     0.0084 H       
  17 H17           -2.0541     1.6512     0.0208 H       
  18 H18           -2.1286     3.9447     0.0336 H       
@<TRIPOS>BOND
   1    1    2 1
   2    1    8 2
   3    1    9 1
   4    2    3 ar
   5    2    7 ar
   6    3    4 ar
   7    3   13 1
   8    4    5 ar
   9    4   14 1
  10    5    6 ar
  11    5   12 1
  12    6    7 ar
  13    6   15 1
  14    7   11 1
  15    8   16 1
  16    9   10 1
  17    9   17 1
  18   10   18 1

#	End of record

