#	Name: ASD14300004
#	Creating user name:	WinNT
#	Creation time:	15. 06. 2019 21:31

#	Modifying user name:	WinNT
#	Modification time:	15. 06. 2019 21:31

#	Program:	/corina/corina34_cracker 3.40 0067  02.08.2006

@<TRIPOS>MOLECULE
ASD14300004
  53   55    0    0    0
SMALL
NO_CHARGES


@<TRIPOS>ATOM
   1 N1            -0.0164     1.3569     0.0095 N.pl3   
   2 C2             0.0021    -0.0041     0.0020 C.2     
   3 C3             1.2902    -0.4169    -0.0125 C.2     
   4 C4             2.1053     0.7234    -0.0142 C.2     
   5 C5             1.2817     1.8121    -0.0004 C.2     
   6 C6             1.7073     3.2233     0.0031 C.ar    
   7 N7             3.0042     3.5298    -0.0077 N.ar    
   8 C8             3.3818     4.8029    -0.0044 C.ar    
   9 N9             2.4654     5.7682     0.0096 N.ar    
  10 C10            1.1780     5.4626     0.0202 C.ar    
  11 N11            0.7951     4.1969     0.0115 N.ar    
  12 C12           -1.1648     2.1595     0.0196 C.ar    
  13 C13           -2.1822     1.9296    -0.8969 C.ar    
  14 C14           -3.3130     2.7225    -0.8845 C.ar    
  15 C15           -3.4323     3.7448     0.0390 C.ar    
  16 C16           -2.4207     3.9763     0.9530 C.ar    
  17 C17           -1.2902     3.1828     0.9496 C.ar    
  18 Cl18          -0.0116     6.7267     0.0390 Cl      
  19 N19            4.7238     5.1250    -0.0150 N.pl3   
  20 C20            5.1401     6.5296    -0.0114 C.3     
  21 C21            5.2982     7.0109     1.4323 C.3     
  22 C22            5.7329     8.4779     1.4361 C.3     
  23 C23            5.8911     8.9592     2.8797 C.3     
  24 C24            5.7321     4.0622    -0.0299 C.3     
  25 C25            6.0698     3.6999    -1.4775 C.3     
  26 C26            7.1229     2.5900    -1.4931 C.3     
  27 C27            7.4606     2.2277    -2.9407 C.3     
  28 H28           -0.8660    -0.6465     0.0074 H       
  29 H29            1.6300    -1.4421    -0.0209 H       
  30 H30            3.1851     0.7381    -0.0241 H       
  31 H31           -2.0893     1.1318    -1.6188 H       
  32 H32           -4.1048     2.5442    -1.5970 H       
  33 H33           -4.3172     4.3639     0.0463 H       
  34 H34           -2.5168     4.7754     1.6731 H       
  35 H35           -0.5026     3.3610     1.6668 H       
  36 H36            6.0918     6.6278    -0.5335 H       
  37 H37            4.3853     7.1335    -0.5151 H       
  38 H38            4.3464     6.9127     1.9544 H       
  39 H39            6.0530     6.4070     1.9360 H       
  40 H40            6.6847     8.5761     0.9140 H       
  41 H41            4.9782     9.0818     0.9323 H       
  42 H42            4.9393     8.8609     3.4018 H       
  43 H43            6.6458     8.3553     3.3835 H       
  44 H44            6.2008    10.0043     2.8824 H       
  45 H45            6.6325     4.4085     0.4775 H       
  46 H46            5.3413     3.1834     0.4829 H       
  47 H47            5.1695     3.3536    -1.9849 H       
  48 H48            6.4607     4.5788    -1.9903 H       
  49 H49            8.0233     2.9363    -0.9857 H       
  50 H50            6.7320     1.7112    -0.9803 H       
  51 H51            6.5602     1.8814    -3.4481 H       
  52 H52            7.8514     3.1066    -3.4535 H       
  53 H53            8.2108     1.4370    -2.9518 H       
@<TRIPOS>BOND
   1    1    2 1
   2    1    5 1
   3    1   12 1
   4    2    3 2
   5    2   28 1
   6    3    4 1
   7    3   29 1
   8    4    5 2
   9    4   30 1
  10    5    6 1
  11    6    7 ar
  12    6   11 ar
  13    7    8 ar
  14    8    9 ar
  15    8   19 1
  16    9   10 ar
  17   10   11 ar
  18   10   18 1
  19   12   13 ar
  20   12   17 ar
  21   13   14 ar
  22   13   31 1
  23   14   15 ar
  24   14   32 1
  25   15   16 ar
  26   15   33 1
  27   16   17 ar
  28   16   34 1
  29   17   35 1
  30   19   20 1
  31   19   24 1
  32   20   21 1
  33   20   36 1
  34   20   37 1
  35   21   22 1
  36   21   38 1
  37   21   39 1
  38   22   23 1
  39   22   40 1
  40   22   41 1
  41   23   42 1
  42   23   43 1
  43   23   44 1
  44   24   25 1
  45   24   45 1
  46   24   46 1
  47   25   26 1
  48   25   47 1
  49   25   48 1
  50   26   27 1
  51   26   49 1
  52   26   50 1
  53   27   51 1
  54   27   52 1
  55   27   53 1

#	End of record

