#	Name: ASD10100013
#	Creating user name:	WinNT
#	Creation time:	15. 06. 2019 21:24

#	Modifying user name:	WinNT
#	Modification time:	15. 06. 2019 21:24

#	Program:	/corina/corina34_cracker 3.40 0067  02.08.2006

@<TRIPOS>MOLECULE
ASD10100013
  41   43    0    0    0
SMALL
NO_CHARGES


@<TRIPOS>ATOM
   1 O1            -0.6290     1.1019    -1.9894 O.2     
   2 C2            -0.3475     1.7954    -1.0310 C.2     
   3 C3             0.9166     2.5617    -1.0189 C.ar    
   4 C4             1.7893     2.4914    -2.1061 C.ar    
   5 C5             2.9674     3.2090    -2.0884 C.ar    
   6 C6             3.2849     3.9968    -0.9962 C.ar    
   7 C7             2.4245     4.0705     0.0849 C.ar    
   8 C8             1.2400     3.3632     0.0771 C.ar    
   9 N9            -1.1906     1.8698     0.0179 N.am    
  10 C10           -2.4445     1.2269    -0.0384 C.2     
  11 C11           -2.5274    -0.1646    -0.2351 C.2     
  12 O12           -1.5122    -0.8286    -0.3590 O.2     
  13 N13           -3.7362    -0.7578    -0.2850 N.am    
  14 C14           -4.8627    -0.0359    -0.1497 C.2     
  15 O15           -5.9405    -0.5968    -0.1992 O.2     
  16 N16           -4.8192     1.2953     0.0399 N.am    
  17 C17           -3.6112     1.9501     0.1041 C.2     
  18 N18           -3.5670     3.3100     0.2979 N.pl3   
  19 C19           -6.0658     2.0514     0.1836 C.3     
  20 C20           -6.4535     2.1091     1.6387 C.ar    
  21 C21           -6.0033     3.1468     2.4333 C.ar    
  22 C22           -6.3589     3.1997     3.7681 C.ar    
  23 C23           -7.1650     2.2151     4.3082 C.ar    
  24 C24           -7.6159     1.1779     3.5133 C.ar    
  25 C25           -7.2639     1.1274     2.1775 C.ar    
  26 H26            1.5429     1.8764    -2.9589 H       
  27 H27            3.6435     3.1555    -2.9289 H       
  28 H28            4.2086     4.5563    -0.9872 H       
  29 H29            2.6785     4.6867     0.9347 H       
  30 H30            0.5693     3.4216     0.9216 H       
  31 H31           -0.9350     2.3656     0.8114 H       
  32 H32           -3.7945    -1.7165    -0.4205 H       
  33 H33           -4.3907     3.8138     0.3903 H       
  34 H34           -2.7120     3.7660     0.3422 H       
  35 H35           -5.9225     3.0636    -0.1947 H       
  36 H36           -6.8562     1.5600    -0.3838 H       
  37 H37           -5.3735     3.9160     2.0114 H       
  38 H38           -6.0066     4.0101     4.3891 H       
  39 H39           -7.4422     2.2561     5.3512 H       
  40 H40           -8.2455     0.4085     3.9354 H       
  41 H41           -7.6162     0.3170     1.5565 H       
@<TRIPOS>BOND
   1    1    2 2
   2    2    3 1
   3    2    9 am
   4    3    4 ar
   5    3    8 ar
   6    4    5 ar
   7    4   26 1
   8    5    6 ar
   9    5   27 1
  10    6    7 ar
  11    6   28 1
  12    7    8 ar
  13    7   29 1
  14    8   30 1
  15    9   10 1
  16    9   31 1
  17   10   11 1
  18   10   17 2
  19   11   12 2
  20   11   13 am
  21   13   14 am
  22   13   32 1
  23   14   15 2
  24   14   16 am
  25   16   17 1
  26   16   19 1
  27   17   18 1
  28   18   33 1
  29   18   34 1
  30   19   20 1
  31   19   35 1
  32   19   36 1
  33   20   21 ar
  34   20   25 ar
  35   21   22 ar
  36   21   37 1
  37   22   23 ar
  38   22   38 1
  39   23   24 ar
  40   23   39 1
  41   24   25 ar
  42   24   40 1
  43   25   41 1

#	End of record

