#	Name: ASD10090001
#	Creating user name:	WinNT
#	Creation time:	15. 06. 2019 21:24

#	Modifying user name:	WinNT
#	Modification time:	15. 06. 2019 21:24

#	Program:	/corina/corina34_cracker 3.40 0067  02.08.2006

@<TRIPOS>MOLECULE
ASD10090001
 136  137    0    0    0
SMALL
NO_CHARGES


@<TRIPOS>ATOM
   1 N1             3.7070    -2.0091     3.5414 N.3     
   2 C2             3.2669    -3.3049     3.0075 C.3     
   3 C3             1.7687    -3.4150     3.1276 C.2     
   4 O4             1.0957    -2.4146     3.2583 O.2     
   5 C5             3.6699    -3.4135     1.5355 C.3     
   6 C6             5.1958    -3.4271     1.4242 C.3     
   7 C7             5.5988    -3.5357    -0.0477 C.3     
   8 C8             7.1247    -3.5492    -0.1591 C.3     
   9 N9             7.5117    -3.6535    -1.5723 N.3     
  10 N10            1.1768    -4.6252     3.0896 N.am    
  11 C11           -0.2797    -4.7322     3.2063 C.3     
  12 C12           -0.7441    -6.0061     2.5486 C.2     
  13 O13            0.0621    -6.7512     2.0330 O.2     
  14 C14           -0.6730    -4.7489     4.6848 C.3     
  15 C15           -0.3187    -3.4261     5.3138 C.2     
  16 C16            0.8794    -3.0711     5.8158 C.2     
  17 N17           -1.1513    -2.3523     5.4794 N.pl3   
  18 C18           -0.4341    -1.3799     6.0825 C.2     
  19 N19            0.7795    -1.8169     6.2806 N.2     
  20 N20           -2.0553    -6.3173     2.5332 N.am    
  21 C21           -2.5068    -7.5556     1.8937 C.3     
  22 C22           -3.8159    -7.9872     2.5029 C.2     
  23 O23           -4.3220    -7.3255     3.3843 O.2     
  24 C24           -2.6963    -7.3158     0.3946 C.3     
  25 C25           -1.3436    -6.9992    -0.2463 C.3     
  26 C26           -1.5302    -6.7630    -1.7229 C.2     
  27 O27           -2.6322    -6.8399    -2.2124 O.2     
  28 O28           -0.4723    -6.4671    -2.4943 O.3     
  29 N29           -4.4243    -9.1084     2.0681 N.am    
  30 C30           -5.6970    -9.5279     2.6603 C.3     
  31 C31           -6.4560   -10.3751     1.6717 C.2     
  32 O32           -5.9807   -10.6058     0.5800 O.2     
  33 C33           -5.4263   -10.3418     3.9273 C.3     
  34 C34           -4.7669    -9.4458     4.9777 C.3     
  35 S35           -4.4459   -10.4107     6.4799 S.3     
  36 C36           -3.6763    -9.1976     7.5874 C.3     
  37 N37           -7.6630   -10.8765     2.0007 N.am    
  38 C38           -8.4008   -11.7000     1.0397 C.3     
  39 C39           -9.3466   -12.6102     1.7801 C.2     
  40 O40           -9.6558   -12.3608     2.9260 O.2     
  41 C41           -9.1968   -10.7947     0.0976 C.3     
  42 C42          -10.1343    -9.9050     0.9164 C.3     
  43 O43           -8.2958    -9.9759    -0.6505 O.3     
  44 N44           -9.8489   -13.7013     1.1688 N.am    
  45 C45          -10.6789   -14.6455     1.9210 C.3     
  46 C46          -11.5873   -15.3830     0.9713 C.2     
  47 O47          -11.5455   -15.1435    -0.2169 O.2     
  48 C48           -9.7801   -15.6473     2.6486 C.3     
  49 C49           -8.9462   -14.9138     3.7010 C.3     
  50 C50           -9.8714   -14.3435     4.7779 C.3     
  51 C51           -7.9593   -15.8915     4.3420 C.3     
  52 N52          -12.4461   -16.3087     1.4424 N.am    
  53 C53          -13.3292   -17.0257     0.5191 C.3     
  54 C54          -13.7127   -18.3534     1.1199 C.2     
  55 O55          -13.2899   -18.6697     2.2118 O.2     
  56 C56          -14.5899   -16.1951     0.2707 C.3     
  57 N57          -14.5254   -19.1895     0.4439 N.am    
  58 C58          -14.8981   -20.4803     1.0280 C.3     
  59 C59          -16.0844   -20.2956     1.9388 C.2     
  60 O60          -16.5686   -19.1990     2.0850 O.2     
  61 C61          -15.2609   -21.4601    -0.0897 C.3     
  62 C62          -14.0405   -21.7396    -0.9285 C.ar    
  63 C63          -13.2003   -22.7865    -0.5988 C.ar    
  64 C64          -13.7644   -20.9525    -2.0308 C.ar    
  65 C65          -12.0808   -23.0429    -1.3682 C.ar    
  66 C66          -12.6450   -21.2089    -2.8002 C.ar    
  67 C67          -11.8018   -22.2526    -2.4675 C.ar    
  68 H68            4.7134    -1.9369     3.5315 H       
  69 H69            3.2849    -1.2464     3.0332 H       
  70 H70            3.7368    -4.1095     3.5732 H       
  71 H71            3.2668    -4.3350     1.1155 H       
  72 H72            3.2731    -2.5597     0.9862 H       
  73 H73            5.5990    -2.5056     1.8443 H       
  74 H74            5.5926    -4.2808     1.9735 H       
  75 H75            5.1957    -4.4571    -0.4678 H       
  76 H76            5.2020    -2.6819    -0.5970 H       
  77 H77            7.5279    -2.6277     0.2610 H       
  78 H78            7.5215    -4.4030     0.3902 H       
  79 H79            7.1022    -2.9081    -2.1153 H       
  80 H80            8.5156    -3.6643    -1.6725 H       
  81 H81            1.7150    -5.4253     2.9850 H       
  82 H82           -0.7472    -3.8785     2.7156 H       
  83 H83           -1.7462    -4.9175     4.7734 H       
  84 H84           -0.1361    -5.5490     5.1946 H       
  85 H85            1.7655    -3.6882     5.8399 H       
  86 H86           -2.0826    -2.2996     5.2132 H       
  87 H87           -0.8028    -0.4015     6.3529 H       
  88 H88           -2.7001    -5.7213     2.9455 H       
  89 H89           -1.7608    -8.3358     2.0454 H       
  90 H90           -3.1163    -8.2099    -0.0662 H       
  91 H91           -3.3751    -6.4763     0.2439 H       
  92 H92           -0.9236    -6.1051     0.2145 H       
  93 H93           -0.6648    -7.8386    -0.0956 H       
  94 H94           -0.6416    -6.3240    -3.4355 H       
  95 H95           -4.0196    -9.6377     1.3631 H       
  96 H96           -6.2877    -8.6475     2.9132 H       
  97 H97           -6.3672   -10.7286     4.3186 H       
  98 H98           -4.7622   -11.1730     3.6902 H       
  99 H99           -3.8260    -9.0590     4.5864 H       
 100 H100          -5.4309    -8.6146     5.2148 H       
 101 H101          -3.4362    -9.6743     8.5378 H       
 102 H102          -2.7627    -8.8170     7.1308 H       
 103 H103          -4.3676    -8.3725     7.7592 H       
 104 H104          -8.0431   -10.6920     2.8739 H       
 105 H105          -7.6986   -12.2995     0.4604 H       
 106 H106          -9.7834   -11.4081    -0.5863 H       
 107 H107          -9.5477    -9.2916     1.6003 H       
 108 H108         -10.7014    -9.2600     0.2453 H       
 109 H109         -10.8216   -10.5296     1.4871 H       
 110 H110          -7.7171   -10.4708    -1.2466 H       
 111 H111          -9.6608   -13.8614     0.2308 H       
 112 H112         -11.2797   -14.1008     2.6493 H       
 113 H113         -10.3973   -16.4022     3.1356 H       
 114 H114          -9.1165   -16.1286     1.9301 H       
 115 H115          -8.3962   -14.1009     3.2269 H       
 116 H116          -9.2773   -13.8209     5.5277 H       
 117 H117         -10.5745   -13.6469     4.3213 H       
 118 H118         -10.4214   -15.1564     5.2521 H       
 119 H119          -7.3002   -16.2978     3.5747 H       
 120 H120          -7.3653   -15.3690     5.0917 H       
 121 H121          -8.5093   -16.7044     4.8161 H       
 122 H122         -12.4796   -16.5002     2.3927 H       
 123 H123         -12.8107   -17.1904    -0.4254 H       
 124 H124         -15.1084   -16.0304     1.2153 H       
 125 H125         -14.3125   -15.2347    -0.1638 H       
 126 H126         -15.2469   -16.7286    -0.4162 H       
 127 H127         -14.8635   -18.9365    -0.4294 H       
 128 H128         -14.0590   -20.8761     1.6000 H       
 129 H129         -16.5016   -21.1440     2.4609 H       
 130 H130         -15.6230   -22.3910     0.3465 H       
 131 H131         -16.0401   -21.0250    -0.7156 H       
 132 H132         -13.4182   -23.4040     0.2600 H       
 133 H133         -14.4235   -20.1375    -2.2912 H       
 134 H134         -11.4239   -23.8604    -1.1102 H       
 135 H135         -12.4294   -20.5942    -3.6617 H       
 136 H136         -10.9272   -22.4529    -3.0686 H       
@<TRIPOS>BOND
   1    1    2 1
   2    1   68 1
   3    1   69 1
   4    2    3 1
   5    2    5 1
   6    2   70 1
   7    3   10 am
   8    3    4 2
   9    5    6 1
  10    5   71 1
  11    5   72 1
  12    6    7 1
  13    6   73 1
  14    6   74 1
  15    7    8 1
  16    7   75 1
  17    7   76 1
  18    8    9 1
  19    8   77 1
  20    8   78 1
  21    9   79 1
  22    9   80 1
  23   10   11 1
  24   10   81 1
  25   11   14 1
  26   11   12 1
  27   11   82 1
  28   12   13 2
  29   12   20 am
  30   14   15 1
  31   14   83 1
  32   14   84 1
  33   15   17 1
  34   15   16 2
  35   16   19 1
  36   16   85 1
  37   17   18 1
  38   17   86 1
  39   18   19 2
  40   18   87 1
  41   20   21 1
  42   20   88 1
  43   21   22 1
  44   21   24 1
  45   21   89 1
  46   22   29 am
  47   22   23 2
  48   24   25 1
  49   24   90 1
  50   24   91 1
  51   25   26 1
  52   25   92 1
  53   25   93 1
  54   26   27 2
  55   26   28 1
  56   28   94 1
  57   29   30 1
  58   29   95 1
  59   30   31 1
  60   30   33 1
  61   30   96 1
  62   31   32 2
  63   31   37 am
  64   33   34 1
  65   33   97 1
  66   33   98 1
  67   34   35 1
  68   34   99 1
  69   34  100 1
  70   35   36 1
  71   36  101 1
  72   36  102 1
  73   36  103 1
  74   37   38 1
  75   37  104 1
  76   38   39 1
  77   38   41 1
  78   38  105 1
  79   39   44 am
  80   39   40 2
  81   41   42 1
  82   41   43 1
  83   41  106 1
  84   42  107 1
  85   42  108 1
  86   42  109 1
  87   43  110 1
  88   44   45 1
  89   44  111 1
  90   45   48 1
  91   45   46 1
  92   45  112 1
  93   46   47 2
  94   46   52 am
  95   48   49 1
  96   48  113 1
  97   48  114 1
  98   49   50 1
  99   49   51 1
 100   49  115 1
 101   50  116 1
 102   50  117 1
 103   50  118 1
 104   51  119 1
 105   51  120 1
 106   51  121 1
 107   52   53 1
 108   52  122 1
 109   53   54 1
 110   53   56 1
 111   53  123 1
 112   54   57 am
 113   54   55 2
 114   56  124 1
 115   56  125 1
 116   56  126 1
 117   57   58 1
 118   57  127 1
 119   58   61 1
 120   58   59 1
 121   58  128 1
 122   59   60 2
 123   59  129 1
 124   61   62 1
 125   61  130 1
 126   61  131 1
 127   62   63 ar
 128   62   64 ar
 129   63   65 ar
 130   63  132 1
 131   64   66 ar
 132   64  133 1
 133   65   67 ar
 134   65  134 1
 135   66   67 ar
 136   66  135 1
 137   67  136 1

#	End of record

