#	Name: ASD10160324
#	Creating user name:	WinNT
#	Creation time:	15. 06. 2019 21:25

#	Modifying user name:	WinNT
#	Modification time:	15. 06. 2019 21:25

#	Program:	/corina/corina34_cracker 3.40 0067  02.08.2006

@<TRIPOS>MOLECULE
ASD10160324
  21   22    0    0    0
SMALL
NO_CHARGES


@<TRIPOS>ATOM
   1 N1            -0.0157     1.3066     0.0092 N.ar    
   2 C2             0.0021    -0.0041     0.0020 C.ar    
   3 C3             1.1969    -0.7208    -0.0128 C.ar    
   4 C4             2.3900    -0.0564    -0.0206 C.ar    
   5 C5             2.3664     1.3513    -0.0132 C.ar    
   6 C6             3.5527     2.1020    -0.0210 C.ar    
   7 C7             3.4909     3.4638    -0.0140 C.ar    
   8 C8             2.2645     4.1244     0.0012 C.ar    
   9 C9             1.0902     3.4271     0.0091 C.ar    
  10 C10            1.1159     2.0168     0.0022 C.ar    
  11 O11           -0.0964     4.0883     0.0239 O.3     
  12 C12           -0.0433     5.5163     0.0305 C.3     
  13 Cl13           4.9607     4.3875    -0.0236 Cl      
  14 H14           -0.9341    -0.5426     0.0081 H       
  15 H15            1.1795    -1.8007    -0.0177 H       
  16 H16            3.3256    -0.5958    -0.0317 H       
  17 H17            4.5103     1.6027    -0.0320 H       
  18 H18            2.2420     5.2042     0.0072 H       
  19 H19           -1.0567     5.9175     0.0423 H       
  20 H20            0.4923     5.8559     0.9170 H       
  21 H21            0.4750     5.8647    -0.8628 H       
@<TRIPOS>BOND
   1    1    2 ar
   2    1   10 ar
   3    2    3 ar
   4    2   14 1
   5    3    4 ar
   6    3   15 1
   7    4    5 ar
   8    4   16 1
   9    5    6 ar
  10    5   10 ar
  11    6    7 ar
  12    6   17 1
  13    7    8 ar
  14    7   13 1
  15    8    9 ar
  16    8   18 1
  17    9   10 ar
  18    9   11 1
  19   11   12 1
  20   12   19 1
  21   12   20 1
  22   12   21 1

#	End of record

