#	Name: ASD10410151
#	Creating user name:	WinNT
#	Creation time:	15. 06. 2019 21:27

#	Modifying user name:	WinNT
#	Modification time:	15. 06. 2019 21:27

#	Program:	/corina/corina34_cracker 3.40 0067  02.08.2006

@<TRIPOS>MOLECULE
ASD10410151
  70   76    0    0    0
SMALL
NO_CHARGES


@<TRIPOS>ATOM
   1 C1             0.2265     1.7541     0.5582 C.ar    
   2 C2             0.1728     0.3832     0.7716 C.ar    
   3 C3             1.3164    -0.3894     0.6158 C.ar    
   4 C4             2.5068     0.2058     0.2486 C.ar    
   5 C5             2.5606     1.5773     0.0351 C.ar    
   6 C6             1.4172     2.3496     0.1909 C.ar    
   7 C7             1.2581    -1.8772     0.8479 C.3     
   8 N8             3.7681     2.1811    -0.3368 N.pl3   
   9 C9             3.7580     3.3463    -1.1035 C.2     
  10 N10            4.8139     4.0539    -1.4275 N.2     
  11 N11            2.6703     3.9194    -1.6319 N.2     
  12 C12            3.0174     5.0020    -2.2944 C.2     
  13 N13            4.3609     5.1363    -2.1988 N.pl3   
  14 C14            5.1420     6.1507    -2.7569 C.ar    
  15 N15            2.1618     5.8500    -2.9717 N.pl3   
  16 N16           -1.0340    -0.2203     1.1443 N.3     
  17 C17           -1.5278    -1.1095     0.0836 C.3     
  18 C18           -2.8031    -1.8086     0.5603 C.3     
  19 N19           -3.8117    -0.7982     0.9085 N.3     
  20 C20           -3.3179     0.0910     1.9692 C.3     
  21 C21           -2.0426     0.7902     1.4925 C.3     
  22 N22            4.5776     7.1127    -3.4645 N.ar    
  23 N23            5.2529     8.0640    -3.9952 N.ar    
  24 C24            6.5560     8.1654    -3.8829 C.ar    
  25 C25            7.2745     7.1947    -3.1485 C.ar    
  26 C26            6.5330     6.1594    -2.5654 C.ar    
  27 C27           -5.0781    -1.4315     1.2996 C.3     
  28 C28           -6.0964    -0.3556     1.7863 C.3     
  29 C29           -5.7556    -2.0842     0.0731 C.3     
  30 C30           -7.1194    -1.3412    -0.0659 C.3     
  31 C31           -7.2796    -1.1787     2.3811 C.3     
  32 C32           -7.9571    -1.8314     1.1545 C.3     
  33 C33           -6.7169     0.0968     0.4175 C.3     
  34 C34            8.6902     7.0676    -2.8717 C.2     
  35 C35            9.0205     6.0184    -2.1395 C.2     
  36 S36            7.6092     5.0709    -1.7066 S.3     
  37 C37            7.2843     9.3123    -4.5350 C.3     
  38 H38           -0.6638     2.3541     0.6751 H       
  39 H39            3.3961    -0.3948     0.1278 H       
  40 H40            1.4590     3.4159     0.0249 H       
  41 H41            1.0461    -2.3838    -0.0936 H       
  42 H42            2.2157    -2.2219     1.2383 H       
  43 H43            0.4704    -2.1022     1.5670 H       
  44 H44            4.6115     1.7890    -0.0613 H       
  45 H45            1.2091     5.6681    -2.9856 H       
  46 H46            2.5139     6.6271    -3.4332 H       
  47 H47           -1.7462    -0.5239    -0.8094 H       
  48 H48           -0.7683    -1.8563    -0.1477 H       
  49 H49           -3.1872    -2.4467    -0.2356 H       
  50 H50           -2.5787    -2.4158     1.4373 H       
  51 H51           -4.0773     0.8379     2.2005 H       
  52 H52           -3.0994    -0.4946     2.8622 H       
  53 H53           -1.6585     1.4282     2.2884 H       
  54 H54           -2.2669     1.3974     0.6155 H       
  55 H55           -4.9063    -2.1726     2.0802 H       
  56 H56           -5.6918     0.4282     2.4267 H       
  57 H57           -5.1490    -1.9352    -0.8202 H       
  58 H58           -5.9184    -3.1474     0.2499 H       
  59 H59           -7.6058    -1.4158    -1.0385 H       
  60 H60           -6.9060    -1.9443     3.0610 H       
  61 H61           -7.9793    -0.5205     2.8962 H       
  62 H62           -8.9899    -1.4941     1.0666 H       
  63 H63           -7.9166    -2.9179     1.2314 H       
  64 H64           -7.5860     0.7400     0.5553 H       
  65 H65           -5.9747     0.5549    -0.2363 H       
  66 H66            9.4200     7.7756    -3.2359 H       
  67 H67           10.0305     5.7763    -1.8434 H       
  68 H68            7.3428    10.1486    -3.8385 H       
  69 H69            8.2910     8.9954    -4.8077 H       
  70 H70            6.7459     9.6224    -5.4307 H       
@<TRIPOS>BOND
   1    1    2 ar
   2    1    6 ar
   3    1   38 1
   4    2    3 ar
   5    2   16 1
   6    3    4 ar
   7    3    7 1
   8    4    5 ar
   9    4   39 1
  10    5    6 ar
  11    5    8 1
  12    6   40 1
  13    7   41 1
  14    7   42 1
  15    7   43 1
  16    8    9 1
  17    8   44 1
  18    9   10 2
  19    9   11 1
  20   10   13 1
  21   11   12 2
  22   12   13 1
  23   12   15 1
  24   13   14 1
  25   14   22 ar
  26   14   26 ar
  27   15   45 1
  28   15   46 1
  29   16   17 1
  30   16   21 1
  31   17   18 1
  32   17   47 1
  33   17   48 1
  34   18   19 1
  35   18   49 1
  36   18   50 1
  37   19   20 1
  38   19   27 1
  39   20   21 1
  40   20   51 1
  41   20   52 1
  42   21   53 1
  43   21   54 1
  44   22   23 ar
  45   23   24 ar
  46   24   25 ar
  47   24   37 1
  48   25   26 ar
  49   25   34 1
  50   26   36 1
  51   27   28 1
  52   27   29 1
  53   27   55 1
  54   28   31 1
  55   28   33 1
  56   28   56 1
  57   29   30 1
  58   29   57 1
  59   29   58 1
  60   30   32 1
  61   30   33 1
  62   30   59 1
  63   31   32 1
  64   31   60 1
  65   31   61 1
  66   32   62 1
  67   32   63 1
  68   33   64 1
  69   33   65 1
  70   34   35 2
  71   34   66 1
  72   35   36 1
  73   35   67 1
  74   37   68 1
  75   37   69 1
  76   37   70 1

#	End of record

