#	Name: ASD13700001
#	Creating user name:	WinNT
#	Creation time:	15. 06. 2019 21:30

#	Modifying user name:	WinNT
#	Modification time:	15. 06. 2019 21:30

#	Program:	/corina/corina34_cracker 3.40 0067  02.08.2006

@<TRIPOS>MOLECULE
ASD13700001
  42   45    0    0    0
SMALL
NO_CHARGES


@<TRIPOS>ATOM
   1 C1            -0.0255     1.3858    -0.1602 C.ar    
   2 C2            -0.0107     0.0037    -0.1647 C.ar    
   3 C3             1.1874    -0.6848    -0.0943 C.ar    
   4 C4             2.3874     0.0002    -0.0180 C.ar    
   5 C5             2.3907     1.3889    -0.0124 C.ar    
   6 C6             1.1742     2.0896    -0.0843 C.ar    
   7 C7             1.1862     3.5653    -0.0779 C.2     
   8 C8             3.6629     2.1445     0.0690 C.2     
   9 C9             3.6413     3.6104     0.0739 C.2     
  10 C10            2.4714     4.2867     0.0033 C.2     
  11 N11            4.8015     1.5056     0.1368 N.am    
  12 O12            0.1418     4.1843    -0.1395 O.2     
  13 S13            2.4822     6.0487     0.0102 S.3     
  14 C14            1.8765     6.3647    -1.6139 C.2     
  15 S15            6.2218     2.3521     0.2278 S.o2    
  16 O16            6.3651     3.0300    -1.0128 O.2     
  17 O17            6.2111     3.0203     1.4819 O.2     
  18 C18            7.5283     1.1723     0.3039 C.ar    
  19 C19            7.9632     0.7006     1.5283 C.ar    
  20 C20            8.1145     0.7141    -0.8612 C.ar    
  21 C21            9.1395    -0.2115    -0.8015 C.ar    
  22 C22            9.5785    -0.6786     0.4232 C.ar    
  23 C23            8.9881    -0.2251     1.5880 C.ar    
  24 C24           10.6956    -1.6881     0.4883 C.3     
  25 N25            1.6275     5.4554    -2.5274 N.2     
  26 N26            1.5893     7.5697    -2.1171 N.2     
  27 C27            1.1626     7.4455    -3.3476 C.2     
  28 N28            1.1643     6.1392    -3.6633 N.pl3   
  29 H29           -0.9633     1.9181    -0.2199 H       
  30 H30           -0.9406    -0.5424    -0.2232 H       
  31 H31            1.1860    -1.7648    -0.0986 H       
  32 H32            3.3188    -0.5437     0.0374 H       
  33 H33            4.5707     4.1573     0.1334 H       
  34 H34            7.5024     1.0555     2.4383 H       
  35 H35            7.7715     1.0790    -1.8180 H       
  36 H36            9.5970    -0.5700    -1.7117 H       
  37 H37            9.3281    -0.5933     2.5446 H       
  38 H38           11.6518    -1.1684     0.5487 H       
  39 H39           10.5670    -2.3160     1.3699 H       
  40 H40           10.6759    -2.3099    -0.4067 H       
  41 H41            0.8587     8.2533    -3.9969 H       
  42 H42            0.8962     5.7458    -4.5085 H       
@<TRIPOS>BOND
   1    1    2 ar
   2    1    6 ar
   3    1   29 1
   4    2    3 ar
   5    2   30 1
   6    3    4 ar
   7    3   31 1
   8    4    5 ar
   9    4   32 1
  10    5    6 ar
  11    5    8 1
  12    6    7 1
  13    7   10 1
  14    7   12 2
  15    8    9 1
  16    8   11 2
  17    9   10 2
  18    9   33 1
  19   10   13 1
  20   11   15 am
  21   13   14 1
  22   14   26 1
  23   14   25 2
  24   15   16 2
  25   15   17 2
  26   15   18 1
  27   18   20 ar
  28   18   19 ar
  29   19   23 ar
  30   19   34 1
  31   20   21 ar
  32   20   35 1
  33   21   22 ar
  34   21   36 1
  35   22   23 ar
  36   22   24 1
  37   23   37 1
  38   24   38 1
  39   24   39 1
  40   24   40 1
  41   25   28 1
  42   26   27 2
  43   27   28 1
  44   27   41 1
  45   28   42 1

#	End of record

