#	Name: ASD10610205
#	Creating user name:	WinNT
#	Creation time:	15. 06. 2019 21:28

#	Modifying user name:	WinNT
#	Modification time:	15. 06. 2019 21:28

#	Program:	/corina/corina34_cracker 3.40 0067  02.08.2006

@<TRIPOS>MOLECULE
ASD10610205
  13   13    0    0    0
SMALL
NO_CHARGES


@<TRIPOS>ATOM
   1 C1             0.0021    -0.0041     0.0020 C.1     
   2 C2            -0.0173     1.4278     0.0099 C.ar    
   3 C3             1.1818     2.1467     0.0023 C.ar    
   4 C4             1.1558     3.5259     0.0095 C.ar    
   5 C5            -0.0546     4.1999     0.0246 C.ar    
   6 C6            -1.2464     3.4963     0.0327 C.ar    
   7 C7            -1.2364     2.1143     0.0194 C.ar    
   8 N8             0.0175    -1.1399    -0.0042 N.1     
   9 F9            -2.4003     1.4283     0.0211 F       
  10 Cl10          -0.0764     5.9357     0.0341 Cl      
  11 Br11           2.8358     1.2304    -0.0171 Br      
  12 H12            2.0816     4.0819     0.0036 H       
  13 H13           -2.1862     4.0283     0.0449 H       
@<TRIPOS>BOND
   1    1    2 1
   2    1    8 3
   3    2    3 ar
   4    2    7 ar
   5    3    4 ar
   6    3   11 1
   7    4    5 ar
   8    4   12 1
   9    5    6 ar
  10    5   10 1
  11    6    7 ar
  12    6   13 1
  13    7    9 1

#	End of record

