#	Name: ASD11030059
#	Creating user name:	WinNT
#	Creation time:	15. 06. 2019 21:29

#	Modifying user name:	WinNT
#	Modification time:	15. 06. 2019 21:29

#	Program:	/corina/corina34_cracker 3.40 0067  02.08.2006

@<TRIPOS>MOLECULE
ASD11030059
  82   87    0    0    0
SMALL
NO_CHARGES


@<TRIPOS>ATOM
   1 C1             3.1630    -0.2885     5.9330 C.ar    
   2 C2             3.7717    -1.3723     6.5517 C.ar    
   3 C3             5.1300    -1.5762     6.3481 C.ar    
   4 N4             5.7990    -0.7379     5.5763 N.ar    
   5 C5             5.1869     0.2890     4.9992 C.ar    
   6 N6             3.8898     0.5119     5.1734 N.ar    
   7 C7             5.9680     1.2062     4.1428 C.2     
   8 C8             5.4709     2.2901     3.4954 C.2     
   9 C9             6.5363     2.8980     2.7882 C.ar    
  10 C10            7.6883     2.1272     3.0442 C.ar    
  11 N11            7.3145     1.0983     3.8817 N.pl3   
  12 C12            6.6196     4.0270     1.9605 C.ar    
  13 C13            7.8116     4.3779     1.4051 C.ar    
  14 C14            8.9630     3.6168     1.6538 C.ar    
  15 C15            8.8988     2.4930     2.4734 C.ar    
  16 C16            8.2032     0.0560     4.4014 C.3     
  17 C17            4.0400     2.7622     3.5233 C.3     
  18 C18           10.2489     4.0089     1.0438 C.2     
  19 N19           10.3145     5.0961     0.2499 N.am    
  20 O20           11.2488     3.3510     1.2575 O.2     
  21 C21           11.6069     5.5416    -0.2768 C.3     
  22 C22           12.2332     4.5413    -1.2140 C.2     
  23 N23           11.4548     3.8037    -2.0304 N.am    
  24 O24           13.4375     4.4000    -1.2335 O.2     
  25 C25           12.0230     2.8053    -2.8213 C.ar    
  26 C26           13.1350     2.1045    -2.3605 C.ar    
  27 C27           13.6998     1.1251    -3.1258 C.ar    
  28 C28           13.1625     0.8188    -4.3823 C.ar    
  29 C29           12.0397     1.5242    -4.8510 C.ar    
  30 C30           11.4738     2.5103    -4.0631 C.ar    
  31 C31           11.5848     6.9756    -0.8316 C.3     
  32 C32           12.9688     7.1621    -0.1879 C.3     
  33 C33           12.5690     6.0569     0.8066 C.3     
  34 C34           13.7682    -0.2328    -5.2060 C.2     
  35 C35           14.8486    -0.9092    -4.7524 C.2     
  36 C36            3.9669     4.1893     4.0939 C.3     
  37 C37            3.3635     5.0767     2.9856 C.3     
  38 C38            2.5707     4.0870     2.0961 C.3     
  39 C39            3.4785     2.8321     2.0881 C.3     
  40 Cl40           2.8545    -2.4489     7.5584 Cl      
  41 C41           15.4333    -1.9242    -5.5475 C.2     
  42 O42           14.9643    -2.1881    -6.6387 O.2     
  43 O43           16.5109    -2.5990    -5.0950 O.3     
  44 O44           11.5115     1.2357    -6.0670 O.3     
  45 C45            9.9206     1.5304    -7.8622 C.3     
  46 C46           10.3713     1.9941    -6.4756 C.3     
  47 H47            2.1072    -0.1046     6.0673 H       
  48 H48            5.6336    -2.4096     6.8152 H       
  49 H49            5.7374     4.6180     1.7635 H       
  50 H50            7.8710     5.2482     0.7683 H       
  51 H51            9.7869     1.9088     2.6637 H       
  52 H52            8.6356     0.3851     5.3463 H       
  53 H53            7.6343    -0.8598     4.5617 H       
  54 H54            9.0009    -0.1328     3.6830 H       
  55 H55            3.4360     2.0865     4.1289 H       
  56 H56            9.5060     5.5835     0.0273 H       
  57 H57           10.4994     3.9673    -2.0680 H       
  58 H58           13.5531     2.3375    -1.3923 H       
  59 H59           14.5622     0.5862    -2.7620 H       
  60 H60           10.6113     3.0559    -4.4162 H       
  61 H61           11.5997     7.0228    -1.9205 H       
  62 H62           10.8099     7.6026    -0.3904 H       
  63 H63           13.7954     6.8819    -0.8408 H       
  64 H64           13.1067     8.1389     0.2758 H       
  65 H65           12.0632     6.4322     1.6962 H       
  66 H66           13.3785     5.3649     1.0389 H       
  67 H67           13.3519    -0.4671    -6.1746 H       
  68 H68           15.2649    -0.6749    -3.7838 H       
  69 H69            3.3266     4.2065     4.9759 H       
  70 H70            4.9663     4.5405     4.3506 H       
  71 H71            2.6951     5.8226     3.4157 H       
  72 H72            4.1539     5.5581     2.4097 H       
  73 H73            1.6015     3.8598     2.5401 H       
  74 H74            2.4515     4.4839     1.0880 H       
  75 H75            4.2875     2.9510     1.3674 H       
  76 H76            2.8941     1.9399     1.8633 H       
  77 H77           16.8390    -3.2719    -5.7070 H       
  78 H78            9.0509     2.1089    -8.1738 H       
  79 H79           10.7307     1.6791    -8.5762 H       
  80 H80            9.6591     0.4729    -7.8245 H       
  81 H81            9.5612     1.8454    -5.7616 H       
  82 H82           10.6329     3.0515    -6.5133 H       
@<TRIPOS>BOND
   1    1    2 ar
   2    1    6 ar
   3    1   47 1
   4    2    3 ar
   5    2   40 1
   6    3    4 ar
   7    3   48 1
   8    4    5 ar
   9    5    6 ar
  10    5    7 1
  11    7    8 2
  12    7   11 1
  13    8    9 1
  14    8   17 1
  15    9   10 ar
  16    9   12 ar
  17   10   11 1
  18   10   15 ar
  19   11   16 1
  20   12   13 ar
  21   12   49 1
  22   13   14 ar
  23   13   50 1
  24   14   15 ar
  25   14   18 1
  26   15   51 1
  27   16   52 1
  28   16   53 1
  29   16   54 1
  30   17   36 1
  31   17   39 1
  32   17   55 1
  33   18   19 am
  34   18   20 2
  35   19   21 1
  36   19   56 1
  37   21   22 1
  38   21   31 1
  39   21   33 1
  40   22   23 am
  41   22   24 2
  42   23   25 1
  43   23   57 1
  44   25   26 ar
  45   25   30 ar
  46   26   27 ar
  47   26   58 1
  48   27   28 ar
  49   27   59 1
  50   28   29 ar
  51   28   34 1
  52   29   30 ar
  53   29   44 1
  54   30   60 1
  55   31   32 1
  56   31   61 1
  57   31   62 1
  58   32   33 1
  59   32   63 1
  60   32   64 1
  61   33   65 1
  62   33   66 1
  63   34   35 2
  64   34   67 1
  65   35   41 1
  66   35   68 1
  67   36   37 1
  68   36   69 1
  69   36   70 1
  70   37   38 1
  71   37   71 1
  72   37   72 1
  73   38   39 1
  74   38   73 1
  75   38   74 1
  76   39   75 1
  77   39   76 1
  78   41   42 2
  79   41   43 1
  80   43   77 1
  81   44   46 1
  82   45   46 1
  83   45   78 1
  84   45   79 1
  85   45   80 1
  86   46   81 1
  87   46   82 1

#	End of record

