#	Name: ASD10410117
#	Creating user name:	WinNT
#	Creation time:	15. 06. 2019 21:26

#	Modifying user name:	WinNT
#	Modification time:	15. 06. 2019 21:26

#	Program:	/corina/corina34_cracker 3.40 0067  02.08.2006

@<TRIPOS>MOLECULE
ASD10410117
  52   56    0    0    0
SMALL
NO_CHARGES


@<TRIPOS>ATOM
   1 C1            -0.0184     1.3926    -0.0800 C.ar    
   2 C2            -0.0057     0.0095     0.0248 C.ar    
   3 C3             1.2007    -0.6691     0.1148 C.ar    
   4 C4             2.3904     0.0319     0.0998 C.ar    
   5 C5             2.3788     1.4166    -0.0056 C.ar    
   6 C6             1.1704     2.0952    -0.0952 C.ar    
   7 O7            -1.1769    -0.6816     0.0396 O.3     
   8 N8             3.5843     2.1280    -0.0204 N.pl3   
   9 C9             3.6713     3.3382    -0.7079 C.2     
  10 N10            4.7100     4.1386    -0.7092 N.2     
  11 N11            2.7102     3.8649    -1.4759 N.2     
  12 C12            3.1191     5.0119    -1.9742 C.2     
  13 N13            4.3814     5.2364    -1.5210 N.pl3   
  14 C14            5.1876     6.3362    -1.8050 C.ar    
  15 N15            2.3959     5.8393    -2.8115 N.pl3   
  16 C16            6.4774     6.4334    -1.2627 C.ar    
  17 C17           -1.0897    -2.1037     0.1498 C.3     
  18 C18           -2.4976    -2.7025     0.1502 C.3     
  19 N19           -3.1367    -2.4517    -1.1485 N.3     
  20 C20           -4.3935    -3.2124    -1.2746 C.3     
  21 C21           -5.5168    -2.1947    -1.5642 C.3     
  22 C22           -4.7468    -0.9812    -2.1487 C.3     
  23 C23           -3.4368    -1.0146    -1.3227 C.3     
  24 N24            4.7500     7.3062    -2.5974 N.ar    
  25 C25            5.5112     8.3519    -2.8706 C.ar    
  26 N26            6.7205     8.4897    -2.3844 N.ar    
  27 C27            7.2571     7.5525    -1.5712 C.ar    
  28 C28            8.5180     7.5143    -0.9554 C.2     
  29 C29            8.7604     6.4511    -0.2052 C.2     
  30 S30            7.3814     5.3645    -0.2002 S.3     
  31 Cl31           4.8850     9.5901    -3.9139 Cl      
  32 H32           -0.9580     1.9198    -0.1543 H       
  33 H33            1.2096    -1.7459     0.1971 H       
  34 H34            3.3297    -0.4966     0.1703 H       
  35 H35            1.1604     3.1720    -0.1775 H       
  36 H36            4.3591     1.7791     0.4474 H       
  37 H37            1.4984     5.5905    -3.0825 H       
  38 H38            2.7857     6.6691    -3.1283 H       
  39 H39           -0.5266    -2.4997    -0.6954 H       
  40 H40           -0.5831    -2.3658     1.0786 H       
  41 H41           -2.4354    -3.7769     0.3231 H       
  42 H42           -3.0886    -2.2408     0.9411 H       
  43 H43           -4.3159    -3.9231    -2.0974 H       
  44 H44           -4.6023    -3.7403    -0.3441 H       
  45 H45           -6.2194    -2.5939    -2.2957 H       
  46 H46           -6.0321    -1.9174    -0.6446 H       
  47 H47           -4.5429    -1.1227    -3.2101 H       
  48 H48           -5.2927    -0.0534    -1.9778 H       
  49 H49           -3.5868    -0.5381    -0.3539 H       
  50 H50           -2.6317    -0.5222    -1.8681 H       
  51 H51            9.2446     8.3025    -1.0859 H       
  52 H52            9.6809     6.2764     0.3320 H       
@<TRIPOS>BOND
   1    1    2 ar
   2    1    6 ar
   3    1   32 1
   4    2    3 ar
   5    2    7 1
   6    3    4 ar
   7    3   33 1
   8    4    5 ar
   9    4   34 1
  10    5    6 ar
  11    5    8 1
  12    6   35 1
  13    7   17 1
  14    8    9 1
  15    8   36 1
  16    9   10 2
  17    9   11 1
  18   10   13 1
  19   11   12 2
  20   12   13 1
  21   12   15 1
  22   13   14 1
  23   14   16 ar
  24   14   24 ar
  25   15   37 1
  26   15   38 1
  27   16   27 ar
  28   16   30 1
  29   17   18 1
  30   17   39 1
  31   17   40 1
  32   18   19 1
  33   18   41 1
  34   18   42 1
  35   19   20 1
  36   19   23 1
  37   20   21 1
  38   20   43 1
  39   20   44 1
  40   21   22 1
  41   21   45 1
  42   21   46 1
  43   22   23 1
  44   22   47 1
  45   22   48 1
  46   23   49 1
  47   23   50 1
  48   24   25 ar
  49   25   26 ar
  50   25   31 1
  51   26   27 ar
  52   27   28 1
  53   28   29 2
  54   28   51 1
  55   29   30 1
  56   29   52 1

#	End of record

