#	Name: ASD10220033
#	Creating user name:	WinNT
#	Creation time:	15. 06. 2019 21:26

#	Modifying user name:	WinNT
#	Modification time:	15. 06. 2019 21:26

#	Program:	/corina/corina34_cracker 3.40 0067  02.08.2006

@<TRIPOS>MOLECULE
ASD10220033
  31   33    0    0    0
SMALL
NO_CHARGES


@<TRIPOS>ATOM
   1 C1            -0.0069     1.4590    -0.1650 C.2     
   2 C2             0.0224     0.0515    -0.3055 C.2     
   3 C3            -1.1154    -0.6760    -0.3574 C.2     
   4 C4            -2.4371    -0.0567    -0.2719 C.2     
   5 C5            -2.5502     1.3178    -0.1332 C.2     
   6 C6            -1.3374     2.1484    -0.0666 C.2     
   7 O7            -3.6814    -0.5707    -0.3002 O.3     
   8 C8            -4.6060     0.3851    -0.1881 C.2     
   9 C9            -3.9879     1.6025    -0.0784 C.2     
  10 O10           -1.4102     3.3531     0.0551 O.2     
  11 O11            1.0256     2.0978    -0.1197 O.2     
  12 C12           -4.6316     2.9203     0.0644 C.2     
  13 O13           -3.9531     3.9105     0.2617 O.2     
  14 C14           -6.0992     3.0388    -0.0318 C.ar    
  15 C15           -6.8250     2.1380    -0.8170 C.ar    
  16 C16           -8.1964     2.2515    -0.9041 C.ar    
  17 C17           -8.8580     3.2612    -0.2122 C.ar    
  18 C18           -8.1390     4.1595     0.5702 C.ar    
  19 C19           -6.7680     4.0486     0.6667 C.ar    
  20 Br20           1.6905    -0.8313    -0.4241 Br      
  21 Br21          -0.9943    -2.5536    -0.5470 Br      
  22 O22          -10.2087     3.3706    -0.3011 O.3     
  23 C23          -10.9826     2.6505     0.6605 C.3     
  24 F24           -8.7855     5.1384     1.2403 F       
  25 F25           -8.8986     1.3815    -1.6626 F       
  26 H26           -5.6739     0.2241    -0.1848 H       
  27 H27           -6.3120     1.3545    -1.3549 H       
  28 H28           -6.2105     4.7460     1.2744 H       
  29 H29          -10.7263     2.9930     1.6631 H       
  30 H30          -12.0429     2.8241     0.4772 H       
  31 H31          -10.7687     1.5851     0.5748 H       
@<TRIPOS>BOND
   1    1    2 1
   2    1   11 2
   3    1    6 1
   4    2    3 2
   5    2   20 1
   6    3    4 1
   7    3   21 1
   8    4    5 2
   9    4    7 1
  10    5    6 1
  11    5    9 1
  12    6   10 2
  13    7    8 1
  14    8    9 2
  15    8   26 1
  16    9   12 1
  17   12   13 2
  18   12   14 1
  19   14   15 ar
  20   14   19 ar
  21   15   16 ar
  22   15   27 1
  23   16   17 ar
  24   16   25 1
  25   17   18 ar
  26   17   22 1
  27   18   19 ar
  28   18   24 1
  29   19   28 1
  30   22   23 1
  31   23   29 1
  32   23   30 1
  33   23   31 1

#	End of record

