#	Name: ASD11030075
#	Creating user name:	WinNT
#	Creation time:	15. 06. 2019 21:29

#	Modifying user name:	WinNT
#	Modification time:	15. 06. 2019 21:29

#	Program:	/corina/corina34_cracker 3.40 0067  02.08.2006

@<TRIPOS>MOLECULE
ASD11030075
  31   33    0    0    0
SMALL
NO_CHARGES


@<TRIPOS>ATOM
   1 C1            -0.0160     1.3781    -0.1453 C.ar    
   2 C2             0.0025    -0.0059    -0.0763 C.ar    
   3 C3             1.1748     2.0884    -0.1571 C.ar    
   4 C4             2.3957     1.4257    -0.1006 C.ar    
   5 C5             2.4343     0.0450    -0.0318 C.ar    
   6 C6             1.2355    -0.6785    -0.0186 C.ar    
   7 C7             1.2306    -2.1494     0.0543 C.2     
   8 C8            -0.0276    -2.7968     0.0631 C.2     
   9 C9            -1.1650    -2.0531     0.0050 C.2     
  10 O10           -1.1478    -0.7124    -0.0636 O.3     
  11 O11            2.2712    -2.7852     0.1048 O.2     
  12 C12           -2.4670    -2.7462     0.0147 C.ar    
  13 C13           -3.4781    -2.3253     0.8828 C.ar    
  14 C14           -2.6944    -3.8218    -0.8483 C.ar    
  15 C15           -4.6939    -2.9741     0.8904 C.ar    
  16 C16           -4.9177    -4.0460     0.0373 C.ar    
  17 C17           -3.9157    -4.4676    -0.8352 C.ar    
  18 O18            1.1483     3.4440    -0.2248 O.3     
  19 O19            3.6250    -0.6038     0.0225 O.3     
  20 O20           -6.1180    -4.6822     0.0489 O.3     
  21 O21           -4.1386    -5.5179    -1.6699 O.3     
  22 *22           -0.1097    -4.3528     0.1383 Du      
  23 H23           -0.9583     1.9035    -0.1944 H       
  24 H24            3.3162     1.9904    -0.1108 H       
  25 H25           -3.3066    -1.4918     1.5478 H       
  26 H26           -1.9174    -4.1472    -1.5241 H       
  27 H27           -5.4744    -2.6481     1.5620 H       
  28 H28            1.1232     3.8804     0.6377 H       
  29 H29            3.9536    -0.7484     0.9204 H       
  30 H30           -6.7655    -4.3115    -0.5663 H       
  31 H31           -4.5068    -5.2670    -2.5281 H       
@<TRIPOS>BOND
   1    1    2 ar
   2    1    3 ar
   3    1   23 1
   4    2    6 ar
   5    2   10 1
   6    3    4 ar
   7    3   18 1
   8    4    5 ar
   9    4   24 1
  10    5    6 ar
  11    5   19 1
  12    6    7 1
  13    7    8 1
  14    7   11 2
  15    8    9 2
  16    8   22 1
  17    9   10 1
  18    9   12 1
  19   12   13 ar
  20   12   14 ar
  21   13   15 ar
  22   13   25 1
  23   14   17 ar
  24   14   26 1
  25   15   16 ar
  26   15   27 1
  27   16   17 ar
  28   16   20 1
  29   17   21 1
  30   18   28 1
  31   19   29 1
  32   20   30 1
  33   21   31 1

#	End of record

