#	Name: ASD10420024
#	Creating user name:	WinNT
#	Creation time:	15. 06. 2019 21:27

#	Modifying user name:	WinNT
#	Modification time:	15. 06. 2019 21:27

#	Program:	/corina/corina34_cracker 3.40 0067  02.08.2006

@<TRIPOS>MOLECULE
ASD10420024
  61   65    0    0    0
SMALL
NO_CHARGES


@<TRIPOS>ATOM
   1 N1             0.0561     0.6608     0.1016 N.pl3   
   2 C2            -0.0698    -0.6846    -0.1163 C.2     
   3 C3            -1.4173    -0.9541    -0.4167 C.2     
   4 C4            -2.1014     0.2602    -0.3750 C.2     
   5 C5            -1.1824     1.2483    -0.0597 C.2     
   6 C6             1.2735     1.1930     0.4141 C.2     
   7 C7             2.3668     0.4054     0.5127 C.2     
   8 C8             2.2655    -0.9763     0.2940 C.2     
   9 C9             1.0542    -1.5196    -0.0176 C.2     
  10 C10           -1.4679     2.6288     0.0822 C.2     
  11 O11           -1.6050     3.3272    -0.9062 O.2     
  12 C12           -3.5725     0.4622    -0.6317 C.3     
  13 C13           -4.3451     0.1908     0.6334 C.ar    
  14 C14           -4.8409     1.2435     1.3794 C.ar    
  15 C15           -4.5625    -1.1109     1.0444 C.ar    
  16 C16           -5.2711    -1.3615     2.2049 C.ar    
  17 C17           -5.7633    -0.3106     2.9550 C.ar    
  18 C18           -2.0008    -2.2807    -0.7212 C.ar    
  19 C19           -2.0249    -3.2761     0.2558 C.ar    
  20 C20           -2.5704    -4.5099    -0.0339 C.ar    
  21 C21           -3.0927    -4.7608    -1.2902 C.ar    
  22 C22           -3.0713    -3.7778    -2.2636 C.ar    
  23 C23           -2.5338    -2.5381    -1.9844 C.ar    
  24 C24           -4.6095     2.6624     0.9276 C.3     
  25 C25           -5.5506     0.9938     2.5416 C.ar    
  26 F26           -6.0309     2.0222     3.2744 F       
  27 C27           -1.7816     4.6170     1.4834 C.3     
  28 C28           -0.7461     5.1302     2.4898 C.3     
  29 N29           -0.8352     4.3402     3.7251 N.3     
  30 C30           -0.5028     2.9302     3.4810 C.3     
  31 C31           -1.5283     2.3269     2.5153 C.3     
  32 N32           -1.5879     3.1692     1.3111 N.am    
  33 C33           -1.0247     6.6015     2.8035 C.3     
  34 H34            1.3639     2.2557     0.5840 H       
  35 H35            3.3230     0.8418     0.7608 H       
  36 H36            3.1400    -1.6051     0.3724 H       
  37 H37            0.9609    -2.5819    -0.1885 H       
  38 H38           -3.7479     1.4894    -0.9512 H       
  39 H39           -3.9025    -0.2227    -1.4129 H       
  40 H40           -4.1788    -1.9330     0.4583 H       
  41 H41           -5.4404    -2.3790     2.5250 H       
  42 H42           -6.3174    -0.5065     3.8611 H       
  43 H43           -1.6172    -3.0816     1.2367 H       
  44 H44           -2.5893    -5.2816     0.7215 H       
  45 H45           -3.5186    -5.7282    -1.5122 H       
  46 H46           -3.4800    -3.9799    -3.2427 H       
  47 H47           -2.5177    -1.7715    -2.7450 H       
  48 H48           -5.4685     3.0046     0.3505 H       
  49 H49           -4.4779     3.3042     1.7987 H       
  50 H50           -3.7146     2.7046     0.3067 H       
  51 H51           -2.7858     4.8097     1.8608 H       
  52 H52           -1.6438     5.1213     0.5270 H       
  53 H53            0.2532     5.0311     2.0659 H       
  54 H54           -0.2481     4.7304     4.4469 H       
  55 H55            0.4931     2.8618     3.0434 H       
  56 H56           -0.5248     2.3830     4.4234 H       
  57 H57           -1.2230     1.3171     2.2411 H       
  58 H58           -2.5082     2.2995     2.9919 H       
  59 H59           -2.0237     6.6996     3.2284 H       
  60 H60           -0.2880     6.9662     3.5193 H       
  61 H61           -0.9609     7.1870     1.8863 H       
@<TRIPOS>BOND
   1    1    2 1
   2    1    6 1
   3    1    5 1
   4    2    3 2
   5    2    9 1
   6    3    4 1
   7    3   18 1
   8    4    5 2
   9    4   12 1
  10    5   10 1
  11    6    7 2
  12    6   34 1
  13    7    8 1
  14    7   35 1
  15    8    9 2
  16    8   36 1
  17    9   37 1
  18   10   11 2
  19   10   32 am
  20   12   13 1
  21   12   38 1
  22   12   39 1
  23   13   14 ar
  24   13   15 ar
  25   14   24 1
  26   14   25 ar
  27   15   16 ar
  28   15   40 1
  29   16   17 ar
  30   16   41 1
  31   17   25 ar
  32   17   42 1
  33   18   19 ar
  34   18   23 ar
  35   19   20 ar
  36   19   43 1
  37   20   21 ar
  38   20   44 1
  39   21   22 ar
  40   21   45 1
  41   22   23 ar
  42   22   46 1
  43   23   47 1
  44   24   48 1
  45   24   49 1
  46   24   50 1
  47   25   26 1
  48   27   28 1
  49   27   32 1
  50   27   51 1
  51   27   52 1
  52   28   29 1
  53   28   33 1
  54   28   53 1
  55   29   30 1
  56   29   54 1
  57   30   31 1
  58   30   55 1
  59   30   56 1
  60   31   32 1
  61   31   57 1
  62   31   58 1
  63   33   59 1
  64   33   60 1
  65   33   61 1

#	End of record

