#	Name: ASD10160486
#	Creating user name:	WinNT
#	Creation time:	15. 06. 2019 21:26

#	Modifying user name:	WinNT
#	Modification time:	15. 06. 2019 21:26

#	Program:	/corina/corina34_cracker 3.40 0067  02.08.2006

@<TRIPOS>MOLECULE
ASD10160486
  22   23    0    0    0
SMALL
NO_CHARGES


@<TRIPOS>ATOM
   1 C1            -0.0168     1.3843     0.0097 C.ar    
   2 C2             0.0021    -0.0041     0.0020 C.ar    
   3 C3             1.2253    -0.6679    -0.0133 C.ar    
   4 C4             2.3857     0.0873    -0.0203 C.ar    
   5 C5             2.2897     1.4785    -0.0120 C.ar    
   6 N6             1.1045     2.0746     0.0027 N.ar    
   7 O7            -1.1609    -0.7069     0.0098 O.3     
   8 C8             3.5246     2.2998    -0.0194 C.ar    
   9 C9             3.5536     3.5131    -0.7046 C.ar    
  10 C10            4.7054     4.2734    -0.7077 C.ar    
  11 C11            5.8296     3.8333    -0.0325 C.ar    
  12 C12            5.8067     2.6297     0.6490 C.ar    
  13 C13            4.6586     1.8639     0.6637 C.ar    
  14 Cl14           3.9392    -0.6871    -0.0388 Cl      
  15 H15           -0.9631     1.9046     0.0170 H       
  16 H16            1.2683    -1.7470    -0.0191 H       
  17 H17           -1.5063    -0.9056    -0.8712 H       
  18 H18            2.6766     3.8575    -1.2325 H       
  19 H19            4.7292     5.2136    -1.2387 H       
  20 H20            6.7288     4.4316    -0.0376 H       
  21 H21            6.6875     2.2907     1.1739 H       
  22 H22            4.6404     0.9265     1.1998 H       
@<TRIPOS>BOND
   1    1    2 ar
   2    1    6 ar
   3    1   15 1
   4    2    3 ar
   5    2    7 1
   6    3    4 ar
   7    3   16 1
   8    4    5 ar
   9    4   14 1
  10    5    6 ar
  11    5    8 1
  12    7   17 1
  13    8    9 ar
  14    8   13 ar
  15    9   10 ar
  16    9   18 1
  17   10   11 ar
  18   10   19 1
  19   11   12 ar
  20   11   20 1
  21   12   13 ar
  22   12   21 1
  23   13   22 1

#	End of record

