#	Name: ASD11030007
#	Creating user name:	WinNT
#	Creation time:	15. 06. 2019 21:29

#	Modifying user name:	WinNT
#	Modification time:	15. 06. 2019 21:29

#	Program:	/corina/corina34_cracker 3.40 0067  02.08.2006

@<TRIPOS>MOLECULE
ASD11030007
  26   28    0    0    0
SMALL
NO_CHARGES


@<TRIPOS>ATOM
   1 O1             0.0021    -0.0041     0.0020 O.2     
   2 C2            -0.0144     1.2084     0.0087 C.2     
   3 C3             1.2431     2.0464     0.0012 C.3     
   4 S4             0.6136     3.7581     0.0152 S.3     
   5 C5            -1.0925     3.2775     0.0286 C.2     
   6 N6            -2.1291     4.0876     0.0420 N.2     
   7 C7            -1.9398     5.4329     0.0472 C.2     
   8 N8            -0.7843     6.0500     0.0397 N.2     
   9 N9            -0.7970     7.3110     0.0464 N.2     
  10 C10           -1.9566     7.9063     0.0603 C.2     
  11 S11           -3.2069     6.6612     0.0578 S.3     
  12 C12           -2.1839     9.3663     0.0705 C.ar    
  13 C13           -1.0985    10.2444     0.0648 C.ar    
  14 C14           -1.3165    11.6062     0.0738 C.ar    
  15 C15           -2.6100    12.1034     0.0885 C.ar    
  16 C16           -3.6911    11.2363     0.0946 C.ar    
  17 C17           -3.4849     9.8728     0.0799 C.ar    
  18 F18           -2.8179    13.4382     0.0973 F       
  19 N19           -1.1341     1.9114     0.0175 N.am    
  20 H20            1.8407     1.8499     0.8913 H       
  21 H21            1.8242     1.8586    -0.9017 H       
  22 H22           -0.0900     9.8581     0.0537 H       
  23 H23           -0.4776    12.2864     0.0698 H       
  24 H24           -4.6971    11.6292     0.1068 H       
  25 H25           -4.3281     9.1980     0.0847 H       
  26 H26           -1.9900     1.4550     0.0224 H       
@<TRIPOS>BOND
   1    1    2 2
   2    2    3 1
   3    2   19 am
   4    3    4 1
   5    3   20 1
   6    3   21 1
   7    4    5 1
   8    5    6 2
   9    5   19 1
  10    6    7 1
  11    7    8 2
  12    7   11 1
  13    8    9 1
  14    9   10 2
  15   10   11 1
  16   10   12 1
  17   12   13 ar
  18   12   17 ar
  19   13   14 ar
  20   13   22 1
  21   14   15 ar
  22   14   23 1
  23   15   16 ar
  24   15   18 1
  25   16   17 ar
  26   16   24 1
  27   17   25 1
  28   19   26 1

#	End of record

