#	Name: ASD10160101
#	Creating user name:	WinNT
#	Creation time:	15. 06. 2019 21:25

#	Modifying user name:	WinNT
#	Modification time:	15. 06. 2019 21:25

#	Program:	/corina/corina34_cracker 3.40 0067  02.08.2006

@<TRIPOS>MOLECULE
ASD10160101
  36   37    0    0    0
SMALL
NO_CHARGES


@<TRIPOS>ATOM
   1 C1            -0.1336     1.4672     0.0328 C.2     
   2 C2            -0.0832    -0.0063     0.0187 C.ar    
   3 C3             1.1418    -0.6653    -0.1382 C.ar    
   4 C4             1.1839    -2.0450    -0.1507 C.ar    
   5 C5             0.0136    -2.7784    -0.0080 C.ar    
   6 C6            -1.2071    -2.1265     0.1484 C.ar    
   7 C7            -1.2580    -0.7496     0.1679 C.ar    
   8 O8             0.8899     2.1119    -0.0921 O.2     
   9 N9            -1.3148     2.0997     0.1784 N.am    
  10 S10           -1.3715     3.7547     0.1942 S.o2    
  11 O11           -2.7466     4.0564     0.3873 O.2     
  12 O12           -0.3968     4.1295     1.1579 O.2     
  13 C13           -0.8406     4.2416    -1.4707 C.3     
  14 O14            0.0593    -4.1349    -0.0213 O.3     
  15 C15           -0.4798    -4.0473    -2.3405 C.ar    
  16 C16           -0.1523    -4.7691    -1.2053 C.ar    
  17 C17           -0.0421    -6.1588    -1.2948 C.ar    
  18 C18           -0.2679    -6.7595    -2.5289 C.ar    
  19 C19           -0.5903    -5.9681    -3.6133 C.ar    
  20 N20           -0.6853    -4.6579    -3.4922 N.ar    
  21 O21            0.2776    -6.9040    -0.2052 O.3     
  22 C22            0.3682    -8.3180    -0.3902 C.3     
  23 F23           -2.3426    -2.8453     0.2864 F       
  24 F24            2.2809     0.0477    -0.2776 F       
  25 H25            2.1283    -2.5547    -0.2721 H       
  26 H26           -2.2047    -0.2452     0.2940 H       
  27 H27           -2.1317     1.5855     0.2740 H       
  28 H28           -1.5227     3.8181    -2.2079 H       
  29 H29           -0.8481     5.3286    -1.5510 H       
  30 H30            0.1679     3.8707    -1.6535 H       
  31 H31           -0.5721    -2.9729    -2.2819 H       
  32 H32           -0.1915    -7.8314    -2.6375 H       
  33 H33           -0.7668    -6.4281    -4.5744 H       
  34 H34           -0.5917    -8.7015    -0.7359 H       
  35 H35            1.1360    -8.5390    -1.1317 H       
  36 H36            0.6296    -8.7922     0.5558 H       
@<TRIPOS>BOND
   1    1    2 1
   2    1    8 2
   3    1    9 am
   4    2    3 ar
   5    2    7 ar
   6    3    4 ar
   7    3   24 1
   8    4    5 ar
   9    4   25 1
  10    5    6 ar
  11    5   14 1
  12    6    7 ar
  13    6   23 1
  14    7   26 1
  15    9   10 am
  16    9   27 1
  17   10   11 2
  18   10   12 2
  19   10   13 1
  20   13   28 1
  21   13   29 1
  22   13   30 1
  23   14   16 1
  24   15   16 ar
  25   15   20 ar
  26   15   31 1
  27   16   17 ar
  28   17   18 ar
  29   17   21 1
  30   18   19 ar
  31   18   32 1
  32   19   20 ar
  33   19   33 1
  34   21   22 1
  35   22   34 1
  36   22   35 1
  37   22   36 1

#	End of record

