#	Name: ASD10160364
#	Creating user name:	WinNT
#	Creation time:	15. 06. 2019 21:25

#	Modifying user name:	WinNT
#	Modification time:	15. 06. 2019 21:25

#	Program:	/corina/corina34_cracker 3.40 0067  02.08.2006

@<TRIPOS>MOLECULE
ASD10160364
  22   22    0    0    0
SMALL
NO_CHARGES


@<TRIPOS>ATOM
   1 C1            -0.0167     1.3811     0.0096 C.ar    
   2 C2             0.0021    -0.0041     0.0020 C.ar    
   3 C3             1.2261    -0.6665    -0.0133 C.ar    
   4 C4             2.3860     0.0914    -0.0203 C.ar    
   5 C5             2.2883     1.4785    -0.0119 C.ar    
   6 N6             1.1076     2.0722     0.0026 N.ar    
   7 O7            -1.1614    -0.7081     0.0098 O.3     
   8 O8             3.4186     2.2314    -0.0183 O.3     
   9 C9             3.2528     3.6508    -0.0091 C.3     
  10 C10            3.2068     4.1495     1.4366 C.3     
  11 C11            4.4277     4.3063    -0.7377 C.3     
  12 F12            3.5960    -0.5094    -0.0347 F       
  13 H13           -0.9629     1.9017     0.0169 H       
  14 H14            1.2707    -1.7456    -0.0191 H       
  15 H15           -1.5067    -0.9070    -0.8712 H       
  16 H16            2.3219     3.9111    -0.5130 H       
  17 H17            2.3698     3.6825     1.9556 H       
  18 H18            4.1377     3.8892     1.9405 H       
  19 H19            3.0803     5.2321     1.4436 H       
  20 H20            4.4604     3.9509    -1.7676 H       
  21 H21            4.3012     5.3889    -0.7307 H       
  22 H22            5.3585     4.0460    -0.2338 H       
@<TRIPOS>BOND
   1    1    2 ar
   2    1    6 ar
   3    1   13 1
   4    2    3 ar
   5    2    7 1
   6    3    4 ar
   7    3   14 1
   8    4    5 ar
   9    4   12 1
  10    5    6 ar
  11    5    8 1
  12    7   15 1
  13    8    9 1
  14    9   10 1
  15    9   11 1
  16    9   16 1
  17   10   17 1
  18   10   18 1
  19   10   19 1
  20   11   20 1
  21   11   21 1
  22   11   22 1

#	End of record

