#	Name: ASD10410212
#	Creating user name:	WinNT
#	Creation time:	15. 06. 2019 21:27

#	Modifying user name:	WinNT
#	Modification time:	15. 06. 2019 21:27

#	Program:	/corina/corina34_cracker 3.40 0067  02.08.2006

@<TRIPOS>MOLECULE
ASD10410212
  59   63    0    0    0
SMALL
NO_CHARGES


@<TRIPOS>ATOM
   1 C1             0.7521     0.5813     0.1191 C.ar    
   2 C2             0.4708    -0.7764     0.1567 C.ar    
   3 C3             1.5058    -1.6996     0.1818 C.ar    
   4 C4             2.8174    -1.2675     0.1698 C.ar    
   5 C5             3.1000     0.0917     0.1322 C.ar    
   6 C6             2.0631     1.0152     0.1067 C.ar    
   7 O7            -0.8205    -1.2028     0.1694 O.3     
   8 N8             4.4292     0.5305     0.1205 N.pl3   
   9 C9             4.7653     1.7192    -0.5266 C.2     
  10 N10            5.9508     2.2795    -0.5194 N.2     
  11 N11            3.9306     2.4667    -1.2584 N.2     
  12 C12            4.5696     3.5179    -1.7251 C.2     
  13 N13            5.8559     3.4513    -1.2874 N.pl3   
  14 C14            6.8723     4.3606    -1.5480 C.2     
  15 N15            4.0310     4.5106    -2.5205 N.pl3   
  16 N16            8.0796     4.2584    -1.1123 N.2     
  17 C17           -1.0372    -2.6147     0.2084 C.3     
  18 C18           -2.5403    -2.9000     0.2174 C.3     
  19 N19           -3.1281    -2.4694    -1.0581 N.3     
  20 C20           -3.0583    -0.9993    -1.2044 C.3     
  21 C21           -4.3197    -0.5613    -1.9716 C.3     
  22 C22           -5.1146    -1.8639    -2.2188 C.3     
  23 C23           -4.5713    -2.8147    -1.1227 C.3     
  24 S24            6.6952     5.8107    -2.5261 S.3     
  25 C25            8.3882     6.2166    -2.2548 C.ar    
  26 C26            8.9565     5.2232    -1.4508 C.ar    
  27 C27            9.1566     7.2905    -2.6973 C.ar    
  28 C28           10.4839     7.3851    -2.3425 C.ar    
  29 C29           11.0588     6.4093    -1.5418 C.ar    
  30 C30           10.3186     5.3413    -1.1015 C.ar    
  31 C31           -4.7561    -4.2543    -1.5280 C.2     
  32 O32           -3.7936    -4.9718    -1.6647 O.2     
  33 O33           -5.9900    -4.7396    -1.7372 O.3     
  34 C34           -6.0925    -6.1350    -2.1253 C.3     
  35 H35           -0.0544     1.2993     0.0950 H       
  36 H36            1.2859    -2.7566     0.2110 H       
  37 H37            3.6231    -1.9864     0.1901 H       
  38 H38            2.2819     2.0724     0.0770 H       
  39 H39            5.1164     0.0078     0.5624 H       
  40 H40            3.0983     4.4688    -2.7835 H       
  41 H41            4.5856     5.2495    -2.8162 H       
  42 H42           -0.5851    -3.0761    -0.6695 H       
  43 H43           -0.5837    -3.0271     1.1098 H       
  44 H44           -2.7065    -3.9688     0.3516 H       
  45 H45           -3.0089    -2.3538     1.0361 H       
  46 H46           -3.0395    -0.5288    -0.2214 H       
  47 H47           -2.1667    -0.7241    -1.7678 H       
  48 H48           -4.9071     0.1319    -1.3694 H       
  49 H49           -4.0445    -0.1002    -2.9202 H       
  50 H50           -6.1833    -1.6945    -2.0874 H       
  51 H51           -4.9052    -2.2609    -3.2121 H       
  52 H52           -5.0572    -2.6175    -0.1671 H       
  53 H53            8.7103     8.0511    -3.3208 H       
  54 H54           11.0771     8.2189    -2.6880 H       
  55 H55           12.1002     6.4881    -1.2668 H       
  56 H56           10.7799     4.5892    -0.4786 H       
  57 H57           -7.1415    -6.3979    -2.2621 H       
  58 H58           -5.5535    -6.2929    -3.0594 H       
  59 H59           -5.6596    -6.7617    -1.3456 H       
@<TRIPOS>BOND
   1    1    2 ar
   2    1    6 ar
   3    1   35 1
   4    2    3 ar
   5    2    7 1
   6    3    4 ar
   7    3   36 1
   8    4    5 ar
   9    4   37 1
  10    5    6 ar
  11    5    8 1
  12    6   38 1
  13    7   17 1
  14    8    9 1
  15    8   39 1
  16    9   10 2
  17    9   11 1
  18   10   13 1
  19   11   12 2
  20   12   13 1
  21   12   15 1
  22   13   14 1
  23   14   16 2
  24   14   24 1
  25   15   40 1
  26   15   41 1
  27   16   26 1
  28   17   18 1
  29   17   42 1
  30   17   43 1
  31   18   19 1
  32   18   44 1
  33   18   45 1
  34   19   20 1
  35   19   23 1
  36   20   21 1
  37   20   46 1
  38   20   47 1
  39   21   22 1
  40   21   48 1
  41   21   49 1
  42   22   23 1
  43   22   50 1
  44   22   51 1
  45   23   31 1
  46   23   52 1
  47   24   25 1
  48   25   26 ar
  49   25   27 ar
  50   26   30 ar
  51   27   28 ar
  52   27   53 1
  53   28   29 ar
  54   28   54 1
  55   29   30 ar
  56   29   55 1
  57   30   56 1
  58   31   32 2
  59   31   33 1
  60   33   34 1
  61   34   57 1
  62   34   58 1
  63   34   59 1

#	End of record

