#	Name: ASD10610105
#	Creating user name:	WinNT
#	Creation time:	15. 06. 2019 21:28

#	Modifying user name:	WinNT
#	Modification time:	15. 06. 2019 21:28

#	Program:	/corina/corina34_cracker 3.40 0067  02.08.2006

@<TRIPOS>MOLECULE
ASD10610105
  64   68    0    0    0
SMALL
NO_CHARGES


@<TRIPOS>ATOM
   1 C1            -0.0891     1.4513    -0.0506 C.ar    
   2 C2            -0.0739     0.0577    -0.0409 C.ar    
   3 C3             1.1587    -0.6006    -0.0171 C.ar    
   4 C4             2.3144     0.1623    -0.0040 C.ar    
   5 C5             2.2193     1.5424    -0.0144 C.ar    
   6 N6             1.0355     2.1336    -0.0374 N.ar    
   7 C7             3.7682    -0.2543     0.0209 C.3     
   8 C8             4.5543     1.0007    -0.4145 C.3     
   9 C9             3.6089     2.1462     0.0045 C.3     
  10 C10           -1.3411    -0.7116    -0.0551 C.ar    
  11 C11           -1.5235    -1.7419    -0.9728 C.ar    
  12 C12           -2.7059    -2.4573    -0.9836 C.ar    
  13 C13           -3.7151    -2.1553    -0.0848 C.ar    
  14 C14           -3.5502    -1.1344     0.8333 C.ar    
  15 C15           -2.3607    -0.4084     0.8608 C.ar    
  16 F16           -4.5391    -0.8447     1.7070 F       
  17 Cl17          -2.9274    -3.7414    -2.1307 Cl      
  18 C18           -2.1786     0.6874     1.8431 C.2     
  19 N19           -3.0504     1.0868     2.7484 N.2     
  20 N20           -2.5188     2.0599     3.4051 N.pl3   
  21 N21           -1.3387     2.2899     2.9453 N.2     
  22 N22           -1.0930     1.4613     1.9879 N.2     
  23 C23           -3.1577     2.7903     4.5026 C.3     
  24 N24            3.6954     3.2521    -0.9525 N.am    
  25 C25            3.2978     4.4882    -0.5915 C.2     
  26 O26            2.7862     4.6681     0.4933 O.2     
  27 C27            3.4888     5.6470    -1.5359 C.3     
  28 N28            4.0141     5.3033    -2.8597 N.am    
  29 C29            2.4868     6.8001    -1.4511 C.3     
  30 C30            3.9150     6.9870    -0.9329 C.3     
  31 C31            3.2782     4.5517    -3.7023 C.2     
  32 O32            2.1432     4.2378    -3.4029 O.2     
  33 O33            3.8008     4.1486    -4.8758 O.3     
  34 C34            3.0017     3.2367    -5.6747 C.3     
  35 C35            1.7088     3.9333    -6.1036 C.3     
  36 C36            3.7924     2.8197    -6.9164 C.3     
  37 C37            2.6620     1.9963    -4.8460 C.3     
  38 H38           -1.0328     1.9758    -0.0736 H       
  39 H39            1.2088    -1.6794    -0.0088 H       
  40 H40            4.0591    -0.5524     1.0282 H       
  41 H41            3.9399    -1.0707    -0.6806 H       
  42 H42            5.5033     1.0673     0.1176 H       
  43 H43            4.7125     1.0038    -1.4930 H       
  44 H44            3.8568     2.4931     1.0076 H       
  45 H45           -0.7408    -1.9823    -1.6770 H       
  46 H46           -4.6358    -2.7197    -0.1011 H       
  47 H47           -2.9236     2.3022     5.4487 H       
  48 H48           -2.7874     3.8152     4.5212 H       
  49 H49           -4.2376     2.7968     4.3546 H       
  50 H50            4.0389     3.0947    -1.8459 H       
  51 H51            4.8914     5.6167    -3.1296 H       
  52 H52            2.2187     7.3032    -2.3801 H       
  53 H53            1.6894     6.7206    -0.7122 H       
  54 H54            4.0569     7.0306     0.1469 H       
  55 H55            4.5859     7.6131    -1.5211 H       
  56 H56            1.9471     4.7666    -6.7647 H       
  57 H57            1.0707     3.2232    -6.6295 H       
  58 H58            1.1875     4.3065    -5.2221 H       
  59 H59            4.7135     2.3234    -6.6109 H       
  60 H60            3.1925     2.1351    -7.5162 H       
  61 H61            4.0344     3.7034    -7.5068 H       
  62 H62            2.0987     2.2934    -3.9614 H       
  63 H63            2.0622     1.3117    -5.4458 H       
  64 H64            3.5831     1.5000    -4.5405 H       
@<TRIPOS>BOND
   1    1    2 ar
   2    1    6 ar
   3    1   38 1
   4    2    3 ar
   5    2   10 1
   6    3    4 ar
   7    3   39 1
   8    4    5 ar
   9    4    7 1
  10    5    6 ar
  11    5    9 1
  12    7    8 1
  13    7   40 1
  14    7   41 1
  15    8    9 1
  16    8   42 1
  17    8   43 1
  18    9   24 1
  19    9   44 1
  20   10   11 ar
  21   10   15 ar
  22   11   12 ar
  23   11   45 1
  24   12   13 ar
  25   12   17 1
  26   13   14 ar
  27   13   46 1
  28   14   15 ar
  29   14   16 1
  30   15   18 1
  31   18   19 2
  32   18   22 1
  33   19   20 1
  34   20   21 1
  35   20   23 1
  36   21   22 2
  37   23   47 1
  38   23   48 1
  39   23   49 1
  40   24   25 am
  41   24   50 1
  42   25   26 2
  43   25   27 1
  44   27   28 1
  45   27   29 1
  46   27   30 1
  47   28   31 am
  48   28   51 1
  49   29   30 1
  50   29   52 1
  51   29   53 1
  52   30   54 1
  53   30   55 1
  54   31   32 2
  55   31   33 1
  56   33   34 1
  57   34   35 1
  58   34   36 1
  59   34   37 1
  60   35   56 1
  61   35   57 1
  62   35   58 1
  63   36   59 1
  64   36   60 1
  65   36   61 1
  66   37   62 1
  67   37   63 1
  68   37   64 1

#	End of record

