#	Name: ASD10420124
#	Creating user name:	WinNT
#	Creation time:	15. 06. 2019 21:27

#	Modifying user name:	WinNT
#	Modification time:	15. 06. 2019 21:27

#	Program:	/corina/corina34_cracker 3.40 0067  02.08.2006

@<TRIPOS>MOLECULE
ASD10420124
  25   26    0    0    0
SMALL
NO_CHARGES


@<TRIPOS>ATOM
   1 C1            -0.0179     1.4717     0.0101 C.2     
   2 C2            -1.1126    -6.3568    -0.0186 C.ar    
   3 C3            -1.1364    -4.9746    -0.0114 C.ar    
   4 C4             0.0598    -4.2592    -0.0190 C.ar    
   5 C5             1.2749    -4.9418    -0.0338 C.ar    
   6 C6             1.2887    -6.3241    -0.0409 C.ar    
   7 C7             0.0974    -7.0308    -0.0338 C.ar    
   8 C8             1.2387    -2.0633    -0.0195 C.ar    
   9 C9             1.2214    -0.6870    -0.0133 C.ar    
  10 C10            0.0021    -0.0041     0.0020 C.ar    
  11 C11           -1.1983    -0.7199     0.0101 C.ar    
  12 C12           -1.1782    -2.0962     0.0030 C.ar    
  13 C13            0.0397    -2.7766    -0.0118 C.ar    
  14 O14            1.0258     2.0934     0.0035 O.2     
  15 O15           -1.1938     2.1294     0.0193 O.3     
  16 F16           -2.2714    -7.0513    -0.0057 F       
  17 F17            2.4659    -6.9868    -0.0553 F       
  18 H18           -2.0803    -4.4500     0.0000 H       
  19 H19            2.2043    -4.3916    -0.0401 H       
  20 H20            0.1120    -8.1107    -0.0394 H       
  21 H21            2.1807    -2.5912    -0.0358 H       
  22 H22            2.1497    -0.1350    -0.0188 H       
  23 H23           -2.1412    -0.1934     0.0223 H       
  24 H24           -2.1056    -2.6496     0.0092 H       
  25 H25           -1.1563     3.0957     0.0244 H       
@<TRIPOS>BOND
   1    1   10 1
   2    1   14 2
   3    1   15 1
   4    2    3 ar
   5    2    7 ar
   6    2   16 1
   7    3    4 ar
   8    3   18 1
   9    4    5 ar
  10    4   13 1
  11    5    6 ar
  12    5   19 1
  13    6    7 ar
  14    6   17 1
  15    7   20 1
  16    8    9 ar
  17    8   13 ar
  18    8   21 1
  19    9   10 ar
  20    9   22 1
  21   10   11 ar
  22   11   12 ar
  23   11   23 1
  24   12   13 ar
  25   12   24 1
  26   15   25 1

#	End of record

