#	Name: ASD10420005
#	Creating user name:	WinNT
#	Creation time:	15. 06. 2019 21:27

#	Modifying user name:	WinNT
#	Modification time:	15. 06. 2019 21:27

#	Program:	/corina/corina34_cracker 3.40 0067  02.08.2006

@<TRIPOS>MOLECULE
ASD10420005
  65   69    0    0    0
SMALL
NO_CHARGES


@<TRIPOS>ATOM
   1 N1            -0.1126     0.1948    -0.6312 N.pl3   
   2 C2            -0.5578    -1.0125    -1.1030 C.2     
   3 C3            -1.9637    -0.9741    -1.1416 C.2     
   4 C4            -2.3537     0.2838    -0.6823 C.2     
   5 C5            -1.2045     0.9899    -0.3676 C.2     
   6 C6             1.2270     0.4318    -0.4906 C.2     
   7 C7             2.1369    -0.5084    -0.8097 C.2     
   8 C8             1.7157    -1.7683    -1.3003 C.2     
   9 C9             0.3585    -2.0154    -1.4458 C.2     
  10 C10           -1.1587     2.3572     0.1516 C.2     
  11 N11           -1.1064     3.4002    -0.7004 N.am    
  12 C12           -1.1662     4.7837    -0.2047 C.3     
  13 C13            0.0057     5.5671    -0.8054 C.3     
  14 N14           -0.0160     5.4298    -2.2678 N.3     
  15 C15            0.1769     4.0316    -2.6747 C.3     
  16 C16           -0.9819     3.1853    -2.1500 C.3     
  17 O17           -1.1678     2.5527     1.3533 O.2     
  18 C18           -3.7694     0.7825    -0.5478 C.3     
  19 C19           -4.2604     0.5286     0.8541 C.ar    
  20 C20           -4.4126     1.5833     1.7344 C.ar    
  21 C21           -4.5638    -0.7582     1.2575 C.ar    
  22 C22           -5.0144    -0.9926     2.5435 C.ar    
  23 C23           -5.1623     0.0596     3.4268 C.ar    
  24 C24           -4.8636     1.3498     3.0222 C.ar    
  25 F25           -5.0075     2.3793     3.8852 F       
  26 C26           -4.0871     2.9869     1.2926 C.3     
  27 C27           -2.8611    -2.0646    -1.5869 C.ar    
  28 C28           -2.9194    -3.2602    -0.8705 C.ar    
  29 C29           -3.7576    -4.2725    -1.2905 C.ar    
  30 C30           -4.5388    -4.1038    -2.4199 C.ar    
  31 C31           -4.4855    -2.9204    -3.1346 C.ar    
  32 C32           -3.6560    -1.8983    -2.7212 C.ar    
  33 C33            2.7074    -2.8043    -1.6526 C.2     
  34 O34            2.3363    -3.8831    -2.0731 O.2     
  35 N35            4.0238    -2.5540    -1.5080 N.am    
  36 C36            5.0076    -3.5817    -1.8575 C.3     
  37 H37            1.5608     1.3889    -0.1177 H       
  38 H38            3.1902    -0.3010    -0.6916 H       
  39 H39            0.0127    -2.9684    -1.8181 H       
  40 H40           -2.1073     5.2415    -0.5095 H       
  41 H41           -1.0896     4.7867     0.8826 H       
  42 H42           -0.0851     6.6198    -0.5375 H       
  43 H43            0.9445     5.1722    -0.4169 H       
  44 H44           -0.8700     5.8041    -2.6535 H       
  45 H45            0.2103     3.9706    -3.7625 H       
  46 H46            1.1133     3.6580    -2.2602 H       
  47 H47           -0.7859     2.1319    -2.3501 H       
  48 H48           -1.9074     3.4878    -2.6399 H       
  49 H49           -3.7990     1.8522    -0.7551 H       
  50 H50           -4.4086     0.2571    -1.2574 H       
  51 H51           -4.4492    -1.5811     0.5675 H       
  52 H52           -5.2512    -1.9984     2.8575 H       
  53 H53           -5.5150    -0.1237     4.4311 H       
  54 H54           -4.9499     3.4170     0.7840 H       
  55 H55           -3.8390     3.5936     2.1635 H       
  56 H56           -3.2370     2.9652     0.6107 H       
  57 H57           -2.3095    -3.3933     0.0108 H       
  58 H58           -3.8036    -5.1986    -0.7368 H       
  59 H59           -5.1928    -4.8994    -2.7450 H       
  60 H60           -5.0975    -2.7949    -4.0155 H       
  61 H61           -3.6155    -0.9748    -3.2797 H       
  62 H62            4.3198    -1.6933    -1.1725 H       
  63 H63            6.0121    -3.1999    -1.6753 H       
  64 H64            4.8394    -4.4684    -1.2462 H       
  65 H65            4.9031    -3.8414    -2.9109 H       
@<TRIPOS>BOND
   1    1    2 1
   2    1    6 1
   3    1    5 1
   4    2    3 2
   5    2    9 1
   6    3    4 1
   7    3   27 1
   8    4    5 2
   9    4   18 1
  10    5   10 1
  11    6    7 2
  12    6   37 1
  13    7    8 1
  14    7   38 1
  15    8    9 2
  16    8   33 1
  17    9   39 1
  18   10   11 am
  19   10   17 2
  20   11   12 1
  21   11   16 1
  22   12   13 1
  23   12   40 1
  24   12   41 1
  25   13   14 1
  26   13   42 1
  27   13   43 1
  28   14   15 1
  29   14   44 1
  30   15   16 1
  31   15   45 1
  32   15   46 1
  33   16   47 1
  34   16   48 1
  35   18   19 1
  36   18   49 1
  37   18   50 1
  38   19   20 ar
  39   19   21 ar
  40   20   26 1
  41   20   24 ar
  42   21   22 ar
  43   21   51 1
  44   22   23 ar
  45   22   52 1
  46   23   24 ar
  47   23   53 1
  48   24   25 1
  49   26   54 1
  50   26   55 1
  51   26   56 1
  52   27   28 ar
  53   27   32 ar
  54   28   29 ar
  55   28   57 1
  56   29   30 ar
  57   29   58 1
  58   30   31 ar
  59   30   59 1
  60   31   32 ar
  61   31   60 1
  62   32   61 1
  63   33   34 2
  64   33   35 am
  65   35   36 1
  66   35   62 1
  67   36   63 1
  68   36   64 1
  69   36   65 1

#	End of record

