#	Name: ASD13490031
#	Creating user name:	WinNT
#	Creation time:	15. 06. 2019 21:30

#	Modifying user name:	WinNT
#	Modification time:	15. 06. 2019 21:30

#	Program:	/corina/corina34_cracker 3.40 0067  02.08.2006

@<TRIPOS>MOLECULE
ASD13490031
  49   52    0    0    0
SMALL
NO_CHARGES


@<TRIPOS>ATOM
   1 C1            -0.2065     2.3872    -0.4114 C.ar    
   2 C2            -0.2963     1.0116    -0.2128 C.ar    
   3 C3             0.8576     0.2556    -0.0676 C.ar    
   4 C4             2.0954     0.8657    -0.1192 C.ar    
   5 C5             2.1880     2.2378    -0.3167 C.ar    
   6 C6             1.0355     2.9979    -0.4634 C.ar    
   7 N7            -1.5550     0.3899    -0.1591 N.pl3   
   8 C8            -2.6088     0.7746     0.5958 C.2     
   9 N9            -3.6006    -0.0461     0.3785 N.2     
  10 C10           -3.2210    -0.9738    -0.5126 C.2     
  11 C11           -1.9469    -0.7163    -0.8665 C.2     
  12 C12           -4.0730    -2.1030    -1.0321 C.3     
  13 O13           -1.3362     3.1287    -0.5595 O.3     
  14 C14           -1.1686     4.5336    -0.7596 C.3     
  15 N15            3.4431     2.8538    -0.3678 N.pl3   
  16 C16            4.5186     2.1903    -0.9400 C.ar    
  17 C17            5.3168     0.3613    -2.0926 C.ar    
  18 N18            4.3135     1.0262    -1.5355 N.ar    
  19 N19            5.7209     2.7419    -0.8801 N.ar    
  20 C20            6.5911     0.9005    -2.0456 C.ar    
  21 C21            6.7754     2.1333    -1.4192 C.ar    
  22 O22            7.6297     0.2244    -2.6056 O.3     
  23 N23            8.0175     2.7407    -1.3487 N.3     
  24 C24            9.1131     1.7835    -1.5439 C.3     
  25 C25            8.8361     0.9686    -2.8137 C.3     
  26 C26            8.1753     3.4708    -0.0838 C.3     
  27 C27            9.5892     4.0497    -0.0022 C.3     
  28 F28            9.8441     4.8204    -1.1416 F       
  29 F29            9.6992     4.8528     1.1381 F       
  30 F30           10.5172     3.0054     0.0717 F       
  31 H31            0.7879    -0.8111     0.0864 H       
  32 H32            2.9927     0.2755    -0.0056 H       
  33 H33            1.1074     4.0644    -0.6177 H       
  34 H34           -2.6270     1.6204     1.2672 H       
  35 H35           -1.3485    -1.2757    -1.5703 H       
  36 H36           -4.6074    -1.7746    -1.9235 H       
  37 H37           -3.4373    -2.9525    -1.2820 H       
  38 H38           -4.7904    -2.3988    -0.2667 H       
  39 H39           -0.6467     4.9627     0.0957 H       
  40 H40           -0.5853     4.7047    -1.6644 H       
  41 H41           -2.1459     5.0051    -0.8628 H       
  42 H42            3.5612     3.7448    -0.0031 H       
  43 H43            5.1421    -0.5884    -2.5763 H       
  44 H44           10.0541     2.3227    -1.6537 H       
  45 H45            9.1710     1.1143    -0.6855 H       
  46 H46            9.6637     0.2844    -3.0006 H       
  47 H47            8.7130     1.6402    -3.6633 H       
  48 H48            7.4478     4.2812    -0.0388 H       
  49 H49            8.0128     2.7898     0.7516 H       
@<TRIPOS>BOND
   1    1    2 ar
   2    1    6 ar
   3    1   13 1
   4    2    3 ar
   5    2    7 1
   6    3    4 ar
   7    3   31 1
   8    4    5 ar
   9    4   32 1
  10    5    6 ar
  11    5   15 1
  12    6   33 1
  13    7    8 1
  14    7   11 1
  15    8    9 2
  16    8   34 1
  17    9   10 1
  18   10   11 2
  19   10   12 1
  20   11   35 1
  21   12   36 1
  22   12   37 1
  23   12   38 1
  24   13   14 1
  25   14   39 1
  26   14   40 1
  27   14   41 1
  28   15   16 1
  29   15   42 1
  30   16   19 ar
  31   16   18 ar
  32   17   18 ar
  33   17   20 ar
  34   17   43 1
  35   19   21 ar
  36   20   21 ar
  37   20   22 1
  38   21   23 1
  39   22   25 1
  40   23   24 1
  41   23   26 1
  42   24   25 1
  43   24   44 1
  44   24   45 1
  45   25   46 1
  46   25   47 1
  47   26   27 1
  48   26   48 1
  49   26   49 1
  50   27   28 1
  51   27   29 1
  52   27   30 1

#	End of record

