#	Name: ASD10010002
#	Creating user name:	WinNT
#	Creation time:	15. 06. 2019 21:24

#	Modifying user name:	WinNT
#	Modification time:	15. 06. 2019 21:24

#	Program:	/corina/corina34_cracker 3.40 0067  02.08.2006

@<TRIPOS>MOLECULE
ASD10010002
  54   58    0    0    0
SMALL
NO_CHARGES


@<TRIPOS>ATOM
   1 C1            -0.0084     1.3816     0.0122 C.ar    
   2 C2             0.0061     0.0002     0.0023 C.ar    
   3 C3             1.2100    -0.6796    -0.0123 C.ar    
   4 C4             2.4021     0.0208    -0.0172 C.ar    
   5 C5             2.3930     1.4022    -0.0068 C.ar    
   6 C6             1.1864     2.0867     0.0074 C.ar    
   7 C7             1.2228    -2.1865    -0.0226 C.3     
   8 C8             1.9288    -2.6727    -1.2653 C.2     
   9 C9             3.1967    -3.1191    -1.2022 C.2     
  10 O10            3.8776    -3.1335    -0.0410 O.3     
  11 C11            3.2107    -3.1309     1.1237 C.2     
  12 C12            1.9327    -2.6873     1.2041 C.2     
  13 C13            1.2234    -2.6420    -2.4836 C.2     
  14 C14            1.8651    -3.0927    -3.7676 C.3     
  15 C15            3.3787    -2.8748    -3.6688 C.3     
  16 C16            3.8975    -3.6259    -2.4410 C.3     
  17 N17            3.8361    -3.5876     2.2572 N.pl3   
  18 O18            0.0758    -2.2441    -2.4983 O.2     
  19 C19            4.0491    -3.4076    -4.9089 C.ar    
  20 C20            4.0212    -4.7404    -5.1826 C.ar    
  21 C21            4.7013    -2.5299    -5.7917 C.ar    
  22 C22            5.3261    -3.0495    -6.9528 C.ar    
  23 C23            5.2817    -4.4325    -7.1987 C.ar    
  24 C24            4.6359    -5.2515    -6.3243 C.ar    
  25 C25            4.7456    -1.1469    -5.5459 C.ar    
  26 C26            5.3861    -0.3272    -6.4233 C.ar    
  27 C27            6.0003    -0.8382    -7.5654 C.ar    
  28 C28            5.9776    -2.1717    -7.8360 C.ar    
  29 C29            1.2544    -2.6957     2.4652 C.1     
  30 N30            0.7164    -2.7023     3.4657 N.1     
  31 O31            1.1748     3.4456     0.0171 O.3     
  32 C32           -0.1039     4.0834     0.0316 C.3     
  33 H33           -0.9490     1.9122     0.0192 H       
  34 H34           -0.9237    -0.5491     0.0064 H       
  35 H35            3.3412    -0.5125    -0.0286 H       
  36 H36            3.3245     1.9488    -0.0099 H       
  37 H37            0.1976    -2.5567    -0.0211 H       
  38 H38            1.6582    -4.1509    -3.9274 H       
  39 H39            1.4661    -2.5113    -4.5988 H       
  40 H40            3.5895    -1.8106    -3.5633 H       
  41 H41            4.9707    -3.4630    -2.3427 H       
  42 H42            3.7021    -4.6918    -2.5584 H       
  43 H43            4.7506    -3.9076     2.2111 H       
  44 H44            3.3635    -3.5902     3.1043 H       
  45 H45            3.5154    -5.4121    -4.5049 H       
  46 H46            5.7531    -4.8426    -8.0796 H       
  47 H47            4.6036    -6.3139    -6.5155 H       
  48 H48            4.2736    -0.7367    -4.6653 H       
  49 H49            5.4187     0.7353    -6.2320 H       
  50 H50            6.5013    -0.1657    -8.2460 H       
  51 H51            6.4576    -2.5534    -8.7250 H       
  52 H52            0.0297     5.1651     0.0383 H       
  53 H53           -0.6653     3.7920    -0.8561 H       
  54 H54           -0.6514     3.7794     0.9238 H       
@<TRIPOS>BOND
   1    1    2 ar
   2    1    6 ar
   3    1   33 1
   4    2    3 ar
   5    2   34 1
   6    3    4 ar
   7    3    7 1
   8    4    5 ar
   9    4   35 1
  10    5    6 ar
  11    5   36 1
  12    6   31 1
  13    7    8 1
  14    7   12 1
  15    7   37 1
  16    8    9 2
  17    8   13 1
  18    9   10 1
  19    9   16 1
  20   10   11 1
  21   11   12 2
  22   11   17 1
  23   12   29 1
  24   13   14 1
  25   13   18 2
  26   14   15 1
  27   14   38 1
  28   14   39 1
  29   15   16 1
  30   15   19 1
  31   15   40 1
  32   16   41 1
  33   16   42 1
  34   17   43 1
  35   17   44 1
  36   19   20 ar
  37   19   21 ar
  38   20   24 ar
  39   20   45 1
  40   21   22 ar
  41   21   25 ar
  42   22   23 ar
  43   22   28 ar
  44   23   24 ar
  45   23   46 1
  46   24   47 1
  47   25   26 ar
  48   25   48 1
  49   26   27 ar
  50   26   49 1
  51   27   28 ar
  52   27   50 1
  53   28   51 1
  54   29   30 3
  55   31   32 1
  56   32   52 1
  57   32   53 1
  58   32   54 1

#	End of record

