#	Name: ASD10410132
#	Creating user name:	WinNT
#	Creation time:	15. 06. 2019 21:26

#	Modifying user name:	WinNT
#	Modification time:	15. 06. 2019 21:26

#	Program:	/corina/corina34_cracker 3.40 0067  02.08.2006

@<TRIPOS>MOLECULE
ASD10410132
  64   70    0    0    0
SMALL
NO_CHARGES


@<TRIPOS>ATOM
   1 C1             0.1797     0.9669     0.6532 C.ar    
   2 C2             0.3469    -0.4100     0.5833 C.ar    
   3 C3             1.6169    -0.9478     0.4208 C.ar    
   4 C4             2.7134    -0.1137     0.3288 C.ar    
   5 C5             2.5461     1.2632     0.3983 C.ar    
   6 C6             1.2761     1.8011     0.5608 C.ar    
   7 N7             3.6582     2.1092     0.3055 N.pl3   
   8 C8             3.5254     3.3754    -0.2635 C.2     
   9 N9             4.4659     4.2877    -0.3153 N.2     
  10 N10            2.4198     3.8507    -0.8488 N.2     
  11 C11            2.6362     5.0755    -1.2778 C.2     
  12 N12            3.9185     5.4052    -0.9662 N.pl3   
  13 C13            4.5598     6.6096    -1.2378 C.ar    
  14 N14            1.7246     5.8816    -1.9317 N.pl3   
  15 N15           -0.7645    -1.2556     0.6770 N.3     
  16 C16           -0.3630    -2.6659     0.5794 C.3     
  17 C17           -1.5928    -3.5577     0.7656 C.3     
  18 N18           -2.5944    -3.2263    -0.2574 N.3     
  19 C19           -2.9959    -1.8161    -0.1598 C.3     
  20 C20           -1.7661    -0.9242    -0.3460 C.3     
  21 N21            3.9201     7.5861    -1.8624 N.ar    
  22 C22            4.5155     8.7347    -2.1271 C.ar    
  23 N23            5.7625     8.9702    -1.7896 N.ar    
  24 C24            6.4914     8.0450    -1.1551 C.ar    
  25 C25            5.9059     6.8127    -0.8452 C.ar    
  26 C26           -3.7608    -4.1138    -0.1590 C.3     
  27 C27           -3.3416    -5.5932    -0.4176 C.3     
  28 C28           -4.7771    -3.7942    -1.2791 C.3     
  29 C29           -4.8762    -5.1106    -2.1089 C.3     
  30 C30           -4.6071    -6.4273    -0.0514 C.3     
  31 C31           -5.6234    -6.1077    -1.1714 C.3     
  32 C32           -3.4050    -5.6430    -1.9850 C.3     
  33 S33            8.1538     8.0678    -0.5854 S.3     
  34 C34            8.0315     6.4356     0.0436 C.2     
  35 C35            6.8308     5.9293    -0.1607 C.2     
  36 H36           -0.8084     1.3853     0.7755 H       
  37 H37            1.7470    -2.0186     0.3668 H       
  38 H38            3.7011    -0.5320     0.2032 H       
  39 H39            1.1459     2.8719     0.6144 H       
  40 H40            4.5208     1.8145     0.6370 H       
  41 H41            0.8294     5.5544    -2.1118 H       
  42 H42            1.9798     6.7749    -2.2107 H       
  43 H43            0.0762    -2.8520    -0.4007 H       
  44 H44            0.3695    -2.8899     1.3549 H       
  45 H45           -1.3022    -4.6034     0.6648 H       
  46 H46           -2.0160    -3.3914     1.7563 H       
  47 H47           -3.7284    -1.5920    -0.9353 H       
  48 H48           -3.4351    -1.6300     0.8203 H       
  49 H49           -2.0567     0.1215    -0.2452 H       
  50 H50           -1.3429    -1.0905    -1.3366 H       
  51 H51            3.9584     9.5058    -2.6384 H       
  52 H52           -4.2293    -4.0173     0.8204 H       
  53 H53           -2.4093    -5.9126     0.0481 H       
  54 H54           -5.7471    -3.5409    -0.8511 H       
  55 H55           -4.4113    -2.9785    -1.9027 H       
  56 H56           -5.2804    -5.0096    -3.1161 H       
  57 H57           -4.3718    -7.4916    -0.0442 H       
  58 H58           -4.9992    -6.1174     0.9173 H       
  59 H59           -6.5152    -5.6406    -0.7534 H       
  60 H60           -5.8877    -7.0148    -1.7149 H       
  61 H61           -2.6851    -4.9659    -2.4450 H       
  62 H62           -3.3046    -6.6592    -2.3662 H       
  63 H63            8.8363     5.9124     0.5387 H       
  64 H64            6.5580     4.9332     0.1552 H       
@<TRIPOS>BOND
   1    1    2 ar
   2    1    6 ar
   3    1   36 1
   4    2    3 ar
   5    2   15 1
   6    3    4 ar
   7    3   37 1
   8    4    5 ar
   9    4   38 1
  10    5    6 ar
  11    5    7 1
  12    6   39 1
  13    7    8 1
  14    7   40 1
  15    8    9 2
  16    8   10 1
  17    9   12 1
  18   10   11 2
  19   11   12 1
  20   11   14 1
  21   12   13 1
  22   13   21 ar
  23   13   25 ar
  24   14   41 1
  25   14   42 1
  26   15   16 1
  27   15   20 1
  28   16   17 1
  29   16   43 1
  30   16   44 1
  31   17   18 1
  32   17   45 1
  33   17   46 1
  34   18   19 1
  35   18   26 1
  36   19   20 1
  37   19   47 1
  38   19   48 1
  39   20   49 1
  40   20   50 1
  41   21   22 ar
  42   22   23 ar
  43   22   51 1
  44   23   24 ar
  45   24   25 ar
  46   24   33 1
  47   25   35 1
  48   26   27 1
  49   26   28 1
  50   26   52 1
  51   27   30 1
  52   27   32 1
  53   27   53 1
  54   28   29 1
  55   28   54 1
  56   28   55 1
  57   29   31 1
  58   29   32 1
  59   29   56 1
  60   30   31 1
  61   30   57 1
  62   30   58 1
  63   31   59 1
  64   31   60 1
  65   32   61 1
  66   32   62 1
  67   33   34 1
  68   34   35 2
  69   34   63 1
  70   35   64 1

#	End of record

