#	Name: ASD13490072
#	Creating user name:	WinNT
#	Creation time:	15. 06. 2019 21:30

#	Modifying user name:	WinNT
#	Modification time:	15. 06. 2019 21:30

#	Program:	/corina/corina34_cracker 3.40 0067  02.08.2006

@<TRIPOS>MOLECULE
ASD13490072
  55   59    0    0    0
SMALL
NO_CHARGES


@<TRIPOS>ATOM
   1 C1            -0.0168     1.3891     0.0097 C.ar    
   2 C2             0.0021    -0.0041     0.0020 C.ar    
   3 C3             1.2108    -0.6771    -0.0131 C.ar    
   4 C4             2.4061     0.0393    -0.0207 C.ar    
   5 C5             2.3851     1.4270    -0.0131 C.ar    
   6 C6             1.1815     2.1009     0.0021 C.ar    
   7 N7             3.6317    -0.6429    -0.0356 N.pl3   
   8 C8             4.6803    -0.4157    -0.8887 C.2     
   9 C9             5.6506    -1.2881    -0.5552 C.2     
  10 N10            5.2117    -2.0297     0.4724 N.2     
  11 C11            4.0057    -1.6490     0.7963 C.2     
  12 C12            6.9968    -1.4099    -1.2216 C.3     
  13 O13            1.2325    -2.0364    -0.0202 O.3     
  14 C14           -0.0302    -2.7054    -0.0113 C.3     
  15 C15           -1.3113     2.1142     0.0198 C.2     
  16 N16           -2.5042     1.5549     0.0228 N.2     
  17 N17           -3.4328     2.5995     0.0326 N.pl3   
  18 C18           -2.7272     3.7480     0.0361 C.2     
  19 N19           -1.4601     3.4478     0.0331 N.2     
  20 C20           -3.3512     5.1226     0.0489 C.3     
  21 C21           -4.8935     2.5112     0.0374 C.3     
  22 C22           -5.4713     3.8689    -0.3783 C.3     
  23 C23           -4.8231     4.9772     0.4566 C.3     
  24 C24           -2.6325     5.9980     1.0429 C.ar    
  25 C25           -2.0118     7.1588     0.6199 C.ar    
  26 C26           -1.3526     7.9616     1.5316 C.ar    
  27 C27           -1.3142     7.6042     2.8666 C.ar    
  28 C28           -1.9354     6.4443     3.2896 C.ar    
  29 C29           -2.5986     5.6434     2.3784 C.ar    
  30 C30           -2.0537     7.5483    -0.8353 C.3     
  31 F31           -1.3618     8.7507    -1.0162 F       
  32 F32           -1.4541     6.5450    -1.6041 F       
  33 F33           -3.3840     7.7109    -1.2364 F       
  34 H34           -0.9252    -0.5577     0.0083 H       
  35 H35            3.3126     1.9802    -0.0189 H       
  36 H36            1.1678     3.1808     0.0076 H       
  37 H37            4.7204     0.3211    -1.6774 H       
  38 H38            3.4050    -2.0663     1.5909 H       
  39 H39            7.7101    -0.7545    -0.7220 H       
  40 H40            7.3429    -2.4414    -1.1554 H       
  41 H41            6.9109    -1.1221    -2.2694 H       
  42 H42           -0.5831    -2.4260     0.8856 H       
  43 H43           -0.6005    -2.4170    -0.8943 H       
  44 H44            0.1298    -3.7836    -0.0183 H       
  45 H45           -3.2870     5.5648    -0.9453 H       
  46 H46           -5.2156     1.7454    -0.6682 H       
  47 H47           -5.2409     2.2575     1.0390 H       
  48 H48           -5.2664     4.0428    -1.4347 H       
  49 H49           -6.5485     3.8715    -0.2120 H       
  50 H50           -4.8841     4.7193     1.5139 H       
  51 H51           -5.3443     5.9180     0.2800 H       
  52 H52           -0.8672     8.8680     1.2010 H       
  53 H53           -0.7985     8.2312     3.5788 H       
  54 H54           -1.9051     6.1649     4.3324 H       
  55 H55           -3.0872     4.7390     2.7095 H       
@<TRIPOS>BOND
   1    1    2 ar
   2    1    6 ar
   3    1   15 1
   4    2    3 ar
   5    2   34 1
   6    3    4 ar
   7    3   13 1
   8    4    5 ar
   9    4    7 1
  10    5    6 ar
  11    5   35 1
  12    6   36 1
  13    7    8 1
  14    7   11 1
  15    8    9 2
  16    8   37 1
  17    9   10 1
  18    9   12 1
  19   10   11 2
  20   11   38 1
  21   12   39 1
  22   12   40 1
  23   12   41 1
  24   13   14 1
  25   14   42 1
  26   14   43 1
  27   14   44 1
  28   15   16 2
  29   15   19 1
  30   16   17 1
  31   17   21 1
  32   17   18 1
  33   18   19 2
  34   18   20 1
  35   20   23 1
  36   20   24 1
  37   20   45 1
  38   21   22 1
  39   21   46 1
  40   21   47 1
  41   22   23 1
  42   22   48 1
  43   22   49 1
  44   23   50 1
  45   23   51 1
  46   24   25 ar
  47   24   29 ar
  48   25   26 ar
  49   25   30 1
  50   26   27 ar
  51   26   52 1
  52   27   28 ar
  53   27   53 1
  54   28   29 ar
  55   28   54 1
  56   29   55 1
  57   30   31 1
  58   30   32 1
  59   30   33 1

#	End of record

