#	Name: ASD10160535
#	Creating user name:	WinNT
#	Creation time:	15. 06. 2019 21:26

#	Modifying user name:	WinNT
#	Modification time:	15. 06. 2019 21:26

#	Program:	/corina/corina34_cracker 3.40 0067  02.08.2006

@<TRIPOS>MOLECULE
ASD10160535
  35   37    0    0    0
SMALL
NO_CHARGES


@<TRIPOS>ATOM
   1 C1            -2.2252    -2.5985     4.8621 C.2     
   2 C2            -1.6249    -3.0020     3.5789 C.ar    
   3 C3            -0.2999    -3.4539     3.5342 C.ar    
   4 C4             0.2572    -3.8311     2.3291 C.ar    
   5 C5            -0.4943    -3.7628     1.1632 C.ar    
   6 C6            -1.8114    -3.3143     1.2038 C.ar    
   7 C7            -2.3780    -2.9407     2.4019 C.ar    
   8 O8            -1.5706    -2.6574     5.8843 O.2     
   9 O9            -3.4985    -2.1589     4.9017 O.3     
  10 F10            0.4315    -3.5199     4.6682 F       
  11 O11            0.0574    -4.1342    -0.0197 O.3     
  12 C12            2.4219    -3.8532    -0.1445 C.ar    
  13 C13            1.3072    -4.6675    -0.0012 C.ar    
  14 C14            1.4874    -6.0371     0.1620 C.ar    
  15 C15            2.7820    -6.5343     0.1748 C.ar    
  16 C16            3.8427    -5.6588     0.0259 C.ar    
  17 N17            3.6363    -4.3653    -0.1264 N.ar    
  18 C18            5.2528    -6.1903     0.0386 C.3     
  19 C19            6.0306    -5.9042    -1.2568 C.3     
  20 C20            7.2506    -5.6130    -0.3671 C.3     
  21 C21            6.2536    -5.2649     0.7507 C.3     
  22 Cl22           3.0679    -8.2347     0.3757 Cl      
  23 Cl23          -2.7438    -3.2320    -0.2583 Cl      
  24 H24            1.2788    -4.1794     2.2927 H       
  25 H25           -3.4014    -2.5968     2.4321 H       
  26 H26           -3.8487    -1.9054     5.7667 H       
  27 H27            2.2928    -2.7891    -0.2763 H       
  28 H28            0.6401    -6.6969     0.2764 H       
  29 H29            5.3106    -7.2295     0.3621 H       
  30 H30            6.1541    -6.7797    -1.8943 H       
  31 H31            5.6681    -5.0316    -1.8001 H       
  32 H32            7.8557    -6.4941    -0.1537 H       
  33 H33            7.8435    -4.7625    -0.7038 H       
  34 H34            5.9520    -4.2175     0.7563 H       
  35 H35            6.5571    -5.6243     1.7340 H       
@<TRIPOS>BOND
   1    1    2 1
   2    1    8 2
   3    1    9 1
   4    2    3 ar
   5    2    7 ar
   6    3    4 ar
   7    3   10 1
   8    4    5 ar
   9    4   24 1
  10    5    6 ar
  11    5   11 1
  12    6    7 ar
  13    6   23 1
  14    7   25 1
  15    9   26 1
  16   11   13 1
  17   12   13 ar
  18   12   17 ar
  19   12   27 1
  20   13   14 ar
  21   14   15 ar
  22   14   28 1
  23   15   16 ar
  24   15   22 1
  25   16   17 ar
  26   16   18 1
  27   18   19 1
  28   18   21 1
  29   18   29 1
  30   19   20 1
  31   19   30 1
  32   19   31 1
  33   20   21 1
  34   20   32 1
  35   20   33 1
  36   21   34 1
  37   21   35 1

#	End of record

