#	Name: ASD10100017
#	Creating user name:	WinNT
#	Creation time:	15. 06. 2019 21:24

#	Modifying user name:	WinNT
#	Modification time:	15. 06. 2019 21:24

#	Program:	/corina/corina34_cracker 3.40 0067  02.08.2006

@<TRIPOS>MOLECULE
ASD10100017
  22   22    0    0    0
SMALL
NO_CHARGES


@<TRIPOS>ATOM
   1 N1            -0.0178     1.4648     0.0101 N.3     
   2 C2             0.3414    -1.5116     1.9518 C.2     
   3 C3             0.0021    -0.0041     0.0020 C.3     
   4 C4            -1.4344    -0.5309     0.0129 C.3     
   5 C5            -1.3998    -2.0394     0.2592 C.3     
   6 C6            -0.9120    -2.2939     1.6870 C.3     
   7 C7             1.1702    -1.9008     3.0980 C.2     
   8 C8             0.7428    -0.4983     1.2103 C.2     
   9 O9            -2.0534    -0.2634    -1.2470 O.3     
  10 O10           -2.7109    -2.5831     0.0936 O.3     
  11 O11            2.1993    -1.2866     3.3455 O.co2   
  12 O12            0.8325    -2.8397     3.8066 O.co2   
  13 H13            0.9191     1.8392     0.0032 H       
  14 H14           -0.5563     1.8234    -0.7642 H       
  15 H15            0.5090    -0.3554    -0.8967 H       
  16 H16           -1.9965    -0.0453     0.8106 H       
  17 H17           -0.7136    -2.5098    -0.4450 H       
  18 H18           -0.7083    -3.3570     1.8152 H       
  19 H19           -1.6845    -1.9883     2.3926 H       
  20 H20            1.6568     0.0053     1.4884 H       
  21 H21           -2.0972     0.6760    -1.4721 H       
  22 H22           -2.7615    -3.5382     0.2357 H       
@<TRIPOS>BOND
   1    1    3 1
   2    1   13 1
   3    1   14 1
   4    2    6 1
   5    2    7 1
   6    2    8 2
   7    3    4 1
   8    3    8 1
   9    3   15 1
  10    4    5 1
  11    4    9 1
  12    4   16 1
  13    5    6 1
  14    5   10 1
  15    5   17 1
  16    6   18 1
  17    6   19 1
  18    7   11 ar
  19    7   12 ar
  20    8   20 1
  21    9   21 1
  22   10   22 1

#	End of record

