#	Name: ASD10160544
#	Creating user name:	WinNT
#	Creation time:	15. 06. 2019 21:26

#	Modifying user name:	WinNT
#	Modification time:	15. 06. 2019 21:26

#	Program:	/corina/corina34_cracker 3.40 0067  02.08.2006

@<TRIPOS>MOLECULE
ASD10160544
  22   23    0    0    0
SMALL
NO_CHARGES


@<TRIPOS>ATOM
   1 C1            -0.0167     1.3833     0.0096 C.ar    
   2 C2             0.0021    -0.0041     0.0020 C.ar    
   3 C3             1.2270    -0.6629    -0.0132 C.ar    
   4 C4             2.3845     0.0990    -0.0201 C.ar    
   5 C5             2.2850     1.4775    -0.0118 C.ar    
   6 N6             1.1076     2.0712     0.0026 N.ar    
   7 O7            -1.1598    -0.7092     0.0097 O.3     
   8 C8             3.7360    -0.5676    -0.0361 C.3     
   9 F9             3.5706    -1.9568    -0.0416 F       
  10 F10            4.4353    -0.1767    -1.1830 F       
  11 F11            4.4566    -0.1883     1.1014 F       
  12 C12            3.5390     2.3134    -0.0187 C.3     
  13 C13            3.7397     3.2762    -1.1908 C.3     
  14 C14            3.3845     3.8206     0.1943 C.3     
  15 H15           -0.9624     1.9049     0.0169 H       
  16 H16            1.2749    -1.7418    -0.0191 H       
  17 H17           -1.5048    -0.9085    -0.8714 H       
  18 H18            4.4256     1.8343     0.3966 H       
  19 H19            4.7585     3.4308    -1.5462 H       
  20 H20            2.9648     3.3050    -1.9568 H       
  21 H21            2.3759     4.2076     0.3395 H       
  22 H22            4.1695     4.3334     0.7500 H       
@<TRIPOS>BOND
   1    1    2 ar
   2    1    6 ar
   3    1   15 1
   4    2    3 ar
   5    2    7 1
   6    3    4 ar
   7    3   16 1
   8    4    5 ar
   9    4    8 1
  10    5    6 ar
  11    5   12 1
  12    7   17 1
  13    8    9 1
  14    8   10 1
  15    8   11 1
  16   12   13 1
  17   12   14 1
  18   12   18 1
  19   13   14 1
  20   13   19 1
  21   13   20 1
  22   14   21 1
  23   14   22 1

#	End of record

