#	Name: ASD10950016
#	Creating user name:	WinNT
#	Creation time:	15. 06. 2019 21:28

#	Modifying user name:	WinNT
#	Modification time:	15. 06. 2019 21:28

#	Program:	/corina/corina34_cracker 3.40 0067  02.08.2006

@<TRIPOS>MOLECULE
ASD10950016
  60   64    0    0    0
SMALL
NO_CHARGES


@<TRIPOS>ATOM
   1 C1             0.7236     1.3632    -2.2085 C.3     
   2 O2             0.6216    -0.0349    -1.8299 O.3     
   3 C3             1.1477    -0.3864    -0.6406 C.2     
   4 O4             1.6771     0.4521     0.0609 O.2     
   5 C5             1.0807    -1.7915    -0.1896 C.ar    
   6 C6             1.6250    -2.1593     1.0425 C.ar    
   7 C7             1.5590    -3.4731     1.4575 C.ar    
   8 C8             0.9552    -4.4257     0.6559 C.ar    
   9 C9             0.4138    -4.0681    -0.5663 C.ar    
  10 C10            0.4677    -2.7568    -0.9910 C.ar    
  11 C11            0.8873    -5.8592     1.1157 C.3     
  12 N12           -0.4714    -6.3835     0.9344 N.am    
  13 C13           -1.6871    -5.8647     1.5663 C.3     
  14 C14           -2.3071    -4.7888     0.6725 C.3     
  15 C15           -3.5576    -4.2551     1.3225 C.2     
  16 C16           -4.8147    -4.6663     1.0930 C.2     
  17 N17           -5.6878    -3.9514     1.8668 N.pl3   
  18 C18           -4.9963    -3.0397     2.6325 C.ar    
  19 C19           -3.6313    -3.1936     2.3293 C.ar    
  20 C20           -2.6818    -2.3908     2.9645 C.ar    
  21 C21           -3.0841    -1.4586     3.8787 C.ar    
  22 C22           -4.4300    -1.3031     4.1817 C.ar    
  23 C23           -5.3831    -2.0867     3.5694 C.ar    
  24 C24           -0.4031    -7.4248     0.0853 C.2     
  25 O25           -1.3521    -8.0892    -0.2810 O.2     
  26 C26            0.9972    -7.6412    -0.3361 C.2     
  27 C27            1.7889    -6.7214     0.2633 C.2     
  28 C28            3.2412    -6.5876     0.1142 C.2     
  29 O29            3.7155    -6.2662    -0.9592 O.2     
  30 C30            4.1291    -6.8431     1.2676 C.ar    
  31 C31            3.5926    -7.2641     2.4864 C.ar    
  32 C32            4.4269    -7.5012     3.5586 C.ar    
  33 C33            5.7935    -7.3230     3.4298 C.ar    
  34 C34            6.3332    -6.9061     2.2262 C.ar    
  35 C35            5.5108    -6.6700     1.1424 C.ar    
  36 Cl36           6.1893    -6.1469    -0.3675 Cl      
  37 O37            1.4203    -8.6057    -1.1850 O.3     
  38 H38            1.7738     1.6509    -2.2563 H       
  39 H39            0.2619     1.5098    -3.1850 H       
  40 H40            0.2116     1.9783    -1.4685 H       
  41 H41            2.0968    -1.4168     1.6690 H       
  42 H42            1.9799    -3.7590     2.4101 H       
  43 H43           -0.0557    -4.8167    -1.1873 H       
  44 H44            0.0448    -2.4790    -1.9451 H       
  45 H45            1.1799    -5.9306     2.1633 H       
  46 H46           -2.4000    -6.6775     1.7044 H       
  47 H47           -1.4368    -5.4323     2.5351 H       
  48 H48           -1.5941    -3.9760     0.5344 H       
  49 H49           -2.5573    -5.2212    -0.2963 H       
  50 H50           -5.0953    -5.4454     0.3998 H       
  51 H51           -6.6506    -4.0692     1.8745 H       
  52 H52           -1.6330    -2.5067     2.7343 H       
  53 H53           -2.3493    -0.8379     4.3697 H       
  54 H54           -4.7325    -0.5621     4.9068 H       
  55 H55           -6.4277    -1.9582     3.8119 H       
  56 H56            2.5265    -7.4034     2.5891 H       
  57 H57            4.0128    -7.8264     4.5015 H       
  58 H58            6.4416    -7.5099     4.2733 H       
  59 H59            7.4004    -6.7691     2.1328 H       
  60 H60            0.7129    -9.1751    -1.5174 H       
@<TRIPOS>BOND
   1    1    2 1
   2    1   38 1
   3    1   39 1
   4    1   40 1
   5    2    3 1
   6    3    4 2
   7    3    5 1
   8    5    6 ar
   9    5   10 ar
  10    6    7 ar
  11    6   41 1
  12    7    8 ar
  13    7   42 1
  14    8    9 ar
  15    8   11 1
  16    9   10 ar
  17    9   43 1
  18   10   44 1
  19   11   12 1
  20   11   27 1
  21   11   45 1
  22   12   13 1
  23   12   24 am
  24   13   14 1
  25   13   46 1
  26   13   47 1
  27   14   15 1
  28   14   48 1
  29   14   49 1
  30   15   16 2
  31   15   19 1
  32   16   17 1
  33   16   50 1
  34   17   18 1
  35   17   51 1
  36   18   19 ar
  37   18   23 ar
  38   19   20 ar
  39   20   21 ar
  40   20   52 1
  41   21   22 ar
  42   21   53 1
  43   22   23 ar
  44   22   54 1
  45   23   55 1
  46   24   25 2
  47   24   26 1
  48   26   27 2
  49   26   37 1
  50   27   28 1
  51   28   29 2
  52   28   30 1
  53   30   31 ar
  54   30   35 ar
  55   31   32 ar
  56   31   56 1
  57   32   33 ar
  58   32   57 1
  59   33   34 ar
  60   33   58 1
  61   34   35 ar
  62   34   59 1
  63   35   36 1
  64   37   60 1

#	End of record

