#	Name: ASD11030063
#	Creating user name:	WinNT
#	Creation time:	15. 06. 2019 21:29

#	Modifying user name:	WinNT
#	Modification time:	15. 06. 2019 21:29

#	Program:	/corina/corina34_cracker 3.40 0067  02.08.2006

@<TRIPOS>MOLECULE
ASD11030063
  81   85    0    0    0
SMALL
NO_CHARGES


@<TRIPOS>ATOM
   1 C1            -0.0324     1.3531     0.0446 C.ar    
   2 N2            -0.0184     0.0256     0.0422 N.ar    
   3 C3             1.2498     2.0883     0.0317 C.2     
   4 C4             1.3804     3.4389     0.0325 C.2     
   5 C5             2.7638     3.7399     0.0186 C.ar    
   6 C6             3.4493     2.5083     0.0095 C.ar    
   7 N7             2.4985     1.5106     0.0229 N.pl3   
   8 C8             3.4854     4.9423     0.0131 C.ar    
   9 C9             4.8462     4.9200    -0.0011 C.ar    
  10 C10            5.5369     3.6994    -0.0102 C.ar    
  11 C11            4.8365     2.4959    -0.0045 C.ar    
  12 C12            2.7723     0.0714     0.0200 C.3     
  13 C13            0.2539     4.4399     0.0451 C.3     
  14 C14            7.0131     3.6905    -0.0255 C.2     
  15 N15            7.6939     4.8536    -0.0307 N.am    
  16 O16            7.6146     2.6339    -0.0335 O.2     
  17 C17            9.1588     4.8448    -0.0459 C.3     
  18 C18            9.6697     6.2626    -0.0490 C.2     
  19 N19            8.9918     7.2218    -0.7099 N.am    
  20 O20           10.6909     6.5404     0.5434 O.2     
  21 C21            9.4015     8.5520    -0.6215 C.ar    
  22 C22            9.9404     9.0339     0.5690 C.ar    
  23 C23           10.3449    10.3342     0.6673 C.ar    
  24 C24           10.2197    11.1932    -0.4317 C.ar    
  25 C25            9.6760    10.7102    -1.6354 C.ar    
  26 C26            9.2754     9.3891    -1.7233 C.ar    
  27 C27            9.6774     4.1185     1.1968 C.3     
  28 C28            9.6515     4.1225    -1.3015 C.3     
  29 C29           10.6533    12.5904    -0.3277 C.2     
  30 C30           11.1756    13.0521     0.8319 C.2     
  31 C31            0.3522     5.3283     1.2976 C.3     
  32 C32            0.5236     6.7776     0.7975 C.3     
  33 C33           -0.0777     6.7605    -0.6298 C.3     
  34 C34            0.3689     5.3802    -1.1724 C.3     
  35 C35           -1.1468    -0.6618     0.0530 C.ar    
  36 C36           -2.3558     0.0210     0.0671 C.ar    
  37 C37           -2.3342     1.4094     0.0692 C.ar    
  38 N38           -1.1709     2.0359     0.0528 N.ar    
  39 Cl39          -3.8618    -0.8424     0.0810 Cl      
  40 O40            9.5502    11.5339    -2.7062 O.3     
  41 C41            8.9275    12.0436    -4.9850 C.3     
  42 C42            8.9893    10.9723    -3.8944 C.3     
  43 C43           11.5940    14.4007     0.9324 C.2     
  44 O44           11.4840    15.1447    -0.0241 O.2     
  45 O45           12.1150    14.8612     2.0890 O.3     
  46 H46            2.9610     5.8865     0.0197 H       
  47 H47            5.3978     5.8485    -0.0056 H       
  48 H48            5.3707     1.5573    -0.0113 H       
  49 H49            2.8546    -0.2849     1.0468 H       
  50 H50            1.9588    -0.4522    -0.4822 H       
  51 H51            3.7072    -0.1195    -0.5069 H       
  52 H52           -0.7053     3.9224     0.0288 H       
  53 H53            7.2141     5.6966    -0.0244 H       
  54 H54            8.2189     6.9869    -1.2470 H       
  55 H55           10.0386     8.3753     1.4193 H       
  56 H56           10.7616    10.7009     1.5938 H       
  57 H57            8.8573     9.0111    -2.6445 H       
  58 H58            9.3079     3.0930     1.1990 H       
  59 H59           10.7673     4.1119     1.1855 H       
  60 H60            9.3264     4.6330     2.0913 H       
  61 H61            9.2820     4.6400    -2.1869 H       
  62 H62           10.7414     4.1159    -1.3129 H       
  63 H63            9.2820     3.0971    -1.2994 H       
  64 H64           10.5556    13.2508    -1.1767 H       
  65 H65           11.2732    12.3918     1.6809 H       
  66 H66           -0.5596     5.2427     1.8887 H       
  67 H67            1.2147     5.0355     1.8963 H       
  68 H68           -0.0272     7.4689     1.4353 H       
  69 H69            1.5792     7.0471     0.7635 H       
  70 H70           -1.1650     6.8271    -0.5917 H       
  71 H71            0.3388     7.5663    -1.2342 H       
  72 H72            1.3996     5.4240    -1.5245 H       
  73 H73           -0.2948     5.0517    -1.9722 H       
  74 H74           -1.1290    -1.7416     0.0506 H       
  75 H75           -3.2570     1.9703     0.0796 H       
  76 H76            8.4996    11.6152    -5.8914 H       
  77 H77            8.3054    12.8719    -4.6459 H       
  78 H78            9.9336    12.4069    -5.1948 H       
  79 H79            9.6114    10.1440    -4.2336 H       
  80 H80            7.9832    10.6090    -3.6847 H       
  81 H81           12.3715    15.7932     2.0614 H       
@<TRIPOS>BOND
   1    1    2 ar
   2    1    3 1
   3    1   38 ar
   4    2   35 ar
   5    3    4 2
   6    3    7 1
   7    4    5 1
   8    4   13 1
   9    5    6 ar
  10    5    8 ar
  11    6    7 1
  12    6   11 ar
  13    7   12 1
  14    8    9 ar
  15    8   46 1
  16    9   10 ar
  17    9   47 1
  18   10   11 ar
  19   10   14 1
  20   11   48 1
  21   12   49 1
  22   12   50 1
  23   12   51 1
  24   13   31 1
  25   13   34 1
  26   13   52 1
  27   14   15 am
  28   14   16 2
  29   15   17 1
  30   15   53 1
  31   17   18 1
  32   17   27 1
  33   17   28 1
  34   18   19 am
  35   18   20 2
  36   19   21 1
  37   19   54 1
  38   21   22 ar
  39   21   26 ar
  40   22   23 ar
  41   22   55 1
  42   23   24 ar
  43   23   56 1
  44   24   25 ar
  45   24   29 1
  46   25   26 ar
  47   25   40 1
  48   26   57 1
  49   27   58 1
  50   27   59 1
  51   27   60 1
  52   28   61 1
  53   28   62 1
  54   28   63 1
  55   29   30 2
  56   29   64 1
  57   30   43 1
  58   30   65 1
  59   31   32 1
  60   31   66 1
  61   31   67 1
  62   32   33 1
  63   32   68 1
  64   32   69 1
  65   33   34 1
  66   33   70 1
  67   33   71 1
  68   34   72 1
  69   34   73 1
  70   35   36 ar
  71   35   74 1
  72   36   37 ar
  73   36   39 1
  74   37   38 ar
  75   37   75 1
  76   40   42 1
  77   41   42 1
  78   41   76 1
  79   41   77 1
  80   41   78 1
  81   42   79 1
  82   42   80 1
  83   43   44 2
  84   43   45 1
  85   45   81 1

#	End of record

