#	Name: ASD10610108
#	Creating user name:	WinNT
#	Creation time:	15. 06. 2019 21:28

#	Modifying user name:	WinNT
#	Modification time:	15. 06. 2019 21:28

#	Program:	/corina/corina34_cracker 3.40 0067  02.08.2006

@<TRIPOS>MOLECULE
ASD10610108
  37   39    0    0    0
SMALL
NO_CHARGES


@<TRIPOS>ATOM
   1 C1             0.0257     1.4834     0.0454 C.3     
   2 C2             0.2236    -0.0303    -0.0569 C.3     
   3 C3             1.4384     0.8960     0.0279 C.3     
   4 C4            -0.4414     2.2091    -1.1899 C.2     
   5 O5            -0.2360     1.7338    -2.2866 O.2     
   6 N6            -1.0875     3.3864    -1.0760 N.am    
   7 C7            -1.4443     4.1454    -2.2772 C.3     
   8 C8            -2.6533     5.0616    -1.9924 C.3     
   9 C9            -1.9758     6.3842    -1.5756 C.3     
  10 C10           -0.6242     6.3688    -2.2569 C.ar    
  11 C11            0.2679     7.3988    -2.5038 C.ar    
  12 C12            1.4616     7.1444    -3.1520 C.ar    
  13 C13            1.7669     5.8567    -3.5553 C.ar    
  14 C14            0.8782     4.8289    -3.3093 C.ar    
  15 C15           -0.3188     5.0824    -2.6601 C.ar    
  16 Br16           2.6759     8.5546    -3.4878 Br      
  17 N17           -0.4695     2.0164     1.3170 N.am    
  18 C18           -1.7081     1.6999     1.7436 C.2     
  19 O19           -2.3785     0.9031     1.1219 O.2     
  20 C20           -2.2601     2.3360     2.9933 C.3     
  21 F21           -3.5517     1.8537     3.2307 F       
  22 F22           -1.4373     2.0201     4.0799 F       
  23 F23           -2.3036     3.7247     2.8296 F       
  24 H24           -0.0147    -0.6296     0.8218 H       
  25 H25            0.0159    -0.5012    -1.0177 H       
  26 H26            2.0298     1.0345    -0.8771 H       
  27 H27            1.9993     0.9061     0.9624 H       
  28 H28           -1.3162     3.7312    -0.1987 H       
  29 H29           -1.6696     3.4666    -3.0997 H       
  30 H30           -3.2544     5.2005    -2.8910 H       
  31 H31           -3.2583     4.6628    -1.1781 H       
  32 H32           -2.5633     7.2352    -1.9202 H       
  33 H33           -1.8532     6.4217    -0.4931 H       
  34 H34            0.0299     8.4041    -2.1891 H       
  35 H35            2.6990     5.6557    -4.0624 H       
  36 H36            1.1170     3.8240    -3.6247 H       
  37 H37            0.0941     2.5971     1.8518 H       
@<TRIPOS>BOND
   1    1    2 1
   2    1    3 1
   3    1    4 1
   4    1   17 1
   5    2    3 1
   6    2   24 1
   7    2   25 1
   8    3   26 1
   9    3   27 1
  10    4    5 2
  11    4    6 am
  12    6    7 1
  13    6   28 1
  14    7    8 1
  15    7   15 1
  16    7   29 1
  17    8    9 1
  18    8   30 1
  19    8   31 1
  20    9   10 1
  21    9   32 1
  22    9   33 1
  23   10   11 ar
  24   10   15 ar
  25   11   12 ar
  26   11   34 1
  27   12   13 ar
  28   12   16 1
  29   13   14 ar
  30   13   35 1
  31   14   15 ar
  32   14   36 1
  33   17   18 am
  34   17   37 1
  35   18   19 2
  36   18   20 1
  37   20   21 1
  38   20   22 1
  39   20   23 1

#	End of record

