#	Name: ASD10950083
#	Creating user name:	WinNT
#	Creation time:	15. 06. 2019 21:28

#	Modifying user name:	WinNT
#	Modification time:	15. 06. 2019 21:28

#	Program:	/corina/corina34_cracker 3.40 0067  02.08.2006

@<TRIPOS>MOLECULE
ASD10950083
  59   62    0    0    0
SMALL
NO_CHARGES


@<TRIPOS>ATOM
   1 C1             0.0285     1.4765     0.3421 C.2     
   2 O2            -0.0241     0.3439     0.7803 O.2     
   3 C3             2.3527     1.0806    -0.3406 C.3     
   4 N4             1.1400     1.9040    -0.2889 N.am    
   5 C5             1.1860     3.2163    -0.9550 C.3     
   6 C6             2.2169     4.0764    -0.2258 C.3     
   7 C7             3.4959     3.3113    -0.0074 C.ar    
   8 C8             4.6476     4.0459     0.2510 C.ar    
   9 C9             5.8546     3.4091     0.4694 C.ar    
  10 C10            5.9170     2.0190     0.4315 C.ar    
  11 C11            4.7705     1.2916     0.1711 C.ar    
  12 C12            3.5608     1.9365    -0.0520 C.ar    
  13 C13            2.2567    -0.0332     0.7040 C.3     
  14 O14            2.1252     0.5436     2.0047 O.3     
  15 C15            2.0271    -0.3156     3.0541 C.ar    
  16 C16            1.8971     0.1771     4.3441 C.ar    
  17 C17            1.7975    -0.6958     5.4100 C.ar    
  18 C18            1.8271    -2.0649     5.1903 C.ar    
  19 C19            1.9561    -2.5576     3.9002 C.ar    
  20 C20            2.0513    -1.6848     2.8339 C.ar    
  21 O21            1.7300    -2.9242     6.2397 O.3     
  22 C22            1.7674    -4.3210     5.9402 C.3     
  23 O23            7.0980     1.3806     0.6487 O.3     
  24 C24            7.0834    -0.0472     0.5937 C.3     
  25 O25            6.9758     4.1369     0.7197 O.3     
  26 C26            6.8346     5.5587     0.7426 C.3     
  27 C27           -1.1292     2.3831     0.4962 C.ar    
  28 C28           -2.4220     1.8624     0.5715 C.ar    
  29 C29           -3.4986     2.7147     0.7153 C.ar    
  30 C30           -3.2971     4.0832     0.7842 C.ar    
  31 C31           -2.0181     4.6045     0.7096 C.ar    
  32 C32           -0.9333     3.7628     0.5726 C.ar    
  33 Cl33          -5.1076     2.0699     0.8092 Cl      
  34 H34            2.4496     0.6393    -1.3325 H       
  35 H35            1.4808     3.0910    -1.9969 H       
  36 H36            0.2062     3.6911    -0.9027 H       
  37 H37            2.4279     4.9648    -0.8209 H       
  38 H38            1.8117     4.3803     0.7394 H       
  39 H39            4.5987     5.1243     0.2810 H       
  40 H40            4.8159     0.2130     0.1406 H       
  41 H41            1.3870    -0.6554     0.4928 H       
  42 H42            3.1584    -0.6446     0.6671 H       
  43 H43            1.8741     1.2432     4.5152 H       
  44 H44            1.6970    -0.3121     6.4145 H       
  45 H45            1.9795    -3.6238     3.7292 H       
  46 H46            2.1481    -2.0685     1.8290 H       
  47 H47            0.9393    -4.5728     5.2778 H       
  48 H48            2.7108    -4.5623     5.4504 H       
  49 H49            1.6809    -4.8931     6.8639 H       
  50 H50            6.3988    -0.4329     1.3491 H       
  51 H51            6.7536    -0.3694    -0.3940 H       
  52 H52            8.0867    -0.4285     0.7840 H       
  53 H53            6.1230     5.8408     1.5186 H       
  54 H54            7.8013     6.0165     0.9523 H       
  55 H55            6.4718     5.9034    -0.2257 H       
  56 H56           -2.5798     0.7954     0.5171 H       
  57 H57           -4.1423     4.7461     0.8964 H       
  58 H58           -1.8678     5.6726     0.7633 H       
  59 H59            0.0650     4.1712     0.5197 H       
@<TRIPOS>BOND
   1    1    2 2
   2    1    4 am
   3    1   27 1
   4    3    4 1
   5    3   12 1
   6    3   13 1
   7    3   34 1
   8    4    5 1
   9    5    6 1
  10    5   35 1
  11    5   36 1
  12    6    7 1
  13    6   37 1
  14    6   38 1
  15    7    8 ar
  16    7   12 ar
  17    8    9 ar
  18    8   39 1
  19    9   10 ar
  20    9   25 1
  21   10   11 ar
  22   10   23 1
  23   11   12 ar
  24   11   40 1
  25   13   14 1
  26   13   41 1
  27   13   42 1
  28   14   15 1
  29   15   16 ar
  30   15   20 ar
  31   16   17 ar
  32   16   43 1
  33   17   18 ar
  34   17   44 1
  35   18   19 ar
  36   18   21 1
  37   19   20 ar
  38   19   45 1
  39   20   46 1
  40   21   22 1
  41   22   47 1
  42   22   48 1
  43   22   49 1
  44   23   24 1
  45   24   50 1
  46   24   51 1
  47   24   52 1
  48   25   26 1
  49   26   53 1
  50   26   54 1
  51   26   55 1
  52   27   28 ar
  53   27   32 ar
  54   28   29 ar
  55   28   56 1
  56   29   30 ar
  57   29   33 1
  58   30   31 ar
  59   30   57 1
  60   31   32 ar
  61   31   58 1
  62   32   59 1

#	End of record

