#	Name: ASD10410179
#	Creating user name:	WinNT
#	Creation time:	15. 06. 2019 21:27

#	Modifying user name:	WinNT
#	Modification time:	15. 06. 2019 21:27

#	Program:	/corina/corina34_cracker 3.40 0067  02.08.2006

@<TRIPOS>MOLECULE
ASD10410179
  64   70    0    0    0
SMALL
NO_CHARGES


@<TRIPOS>ATOM
   1 C1             1.3097    -0.7813     0.1692 C.ar    
   2 C2             0.1005    -0.1181     0.0126 C.ar    
   3 C3             0.0798     1.2641    -0.1330 C.ar    
   4 C4             1.2629     1.9771    -0.1218 C.ar    
   5 C5             2.4725     1.3126     0.0350 C.ar    
   6 C6             2.4925    -0.0681     0.1804 C.ar    
   7 Cl7           -1.4323     2.0939    -0.3295 Cl      
   8 N8             3.6719     2.0352     0.0464 N.pl3   
   9 C9             4.7535     1.5793     0.7994 C.2     
  10 N10            5.9537     2.1076     0.8030 N.2     
  11 N11            4.7303     0.5366     1.6379 N.2     
  12 C12            5.9168     0.3804     2.1848 C.2     
  13 N13            6.7334     1.3494     1.6914 N.pl3   
  14 C14            8.0757     1.5500     2.0049 C.ar    
  15 N15            6.2692    -0.5925     3.1001 N.pl3   
  16 N16           -1.0986    -0.8415     0.0008 N.3     
  17 C17           -1.9158    -0.5257     1.1807 C.3     
  18 C18           -3.2480    -1.2737     1.0904 C.3     
  19 N19           -2.9909    -2.7180     1.0025 N.3     
  20 C20           -2.1738    -3.0337    -0.1775 C.3     
  21 C21           -0.8416    -2.2857    -0.0871 C.3     
  22 N22            8.6934     0.7530     2.8673 N.ar    
  23 C23            9.9661     0.9385     3.1677 C.ar    
  24 N24           10.6812     1.9018     2.6430 N.ar    
  25 C25           10.1431     2.7663     1.7541 C.ar    
  26 C26            8.7985     2.5942     1.4098 C.ar    
  27 C27           -4.2487    -3.4768     0.9901 C.3     
  28 C28           -5.0334    -3.2501     2.3184 C.3     
  29 C29           -3.9617    -4.9954     0.9601 C.3     
  30 C30           -4.5999    -5.5432     2.2731 C.3     
  31 C31           -6.4240    -3.9092     2.0676 C.3     
  32 C32           -6.1370    -5.4279     2.0376 C.3     
  33 C33           -4.3626    -4.3295     3.2394 C.3     
  34 C34           10.7331     3.8513     1.0868 C.2     
  35 C35            9.9412     4.5215     0.2650 C.2     
  36 S36            8.3287     3.8272     0.2490 S.3     
  37 H37            1.3254    -1.8548     0.2868 H       
  38 H38            1.2473     3.0510    -0.2352 H       
  39 H39            3.4332    -0.5846     0.3019 H       
  40 H40            3.7505     2.8529    -0.4695 H       
  41 H41            5.6118    -1.2420     3.3948 H       
  42 H42            7.1740    -0.6261     3.4481 H       
  43 H43           -1.3864    -0.8334     2.0826 H       
  44 H44           -2.1030     0.5475     1.2168 H       
  45 H45           -3.8439    -1.0638     1.9786 H       
  46 H46           -3.7895    -0.9461     0.2029 H       
  47 H47           -1.9866    -4.1069    -0.2135 H       
  48 H48           -2.7031    -2.7261    -1.0793 H       
  49 H49           -0.2457    -2.4956    -0.9753 H       
  50 H50           -0.3001    -2.6134     0.8003 H       
  51 H51           10.4353     0.2697     3.8741 H       
  52 H52           -4.8583    -3.1865     0.1344 H       
  53 H53           -5.0518    -2.2263     2.6921 H       
  54 H54           -4.4309    -5.4537     0.0895 H       
  55 H55           -2.8873    -5.1790     0.9545 H       
  56 H56           -4.2408    -6.5166     2.6074 H       
  57 H57           -7.1106    -3.6683     2.8792 H       
  58 H58           -6.8334    -3.5810     1.1123 H       
  59 H59           -6.4052    -5.8462     1.0675 H       
  60 H60           -6.6824    -5.9335     2.8344 H       
  61 H61           -3.3019    -4.1320     3.3949 H       
  62 H62           -4.8941    -4.4486     4.1835 H       
  63 H63           11.7681     4.1222     1.2349 H       
  64 H64           10.2462     5.3777    -0.3185 H       
@<TRIPOS>BOND
   1    1    2 ar
   2    1    6 ar
   3    1   37 1
   4    2    3 ar
   5    2   16 1
   6    3    4 ar
   7    3    7 1
   8    4    5 ar
   9    4   38 1
  10    5    6 ar
  11    5    8 1
  12    6   39 1
  13    8    9 1
  14    8   40 1
  15    9   10 2
  16    9   11 1
  17   10   13 1
  18   11   12 2
  19   12   13 1
  20   12   15 1
  21   13   14 1
  22   14   22 ar
  23   14   26 ar
  24   15   41 1
  25   15   42 1
  26   16   17 1
  27   16   21 1
  28   17   18 1
  29   17   43 1
  30   17   44 1
  31   18   19 1
  32   18   45 1
  33   18   46 1
  34   19   20 1
  35   19   27 1
  36   20   21 1
  37   20   47 1
  38   20   48 1
  39   21   49 1
  40   21   50 1
  41   22   23 ar
  42   23   24 ar
  43   23   51 1
  44   24   25 ar
  45   25   26 ar
  46   25   34 1
  47   26   36 1
  48   27   28 1
  49   27   29 1
  50   27   52 1
  51   28   31 1
  52   28   33 1
  53   28   53 1
  54   29   30 1
  55   29   54 1
  56   29   55 1
  57   30   32 1
  58   30   33 1
  59   30   56 1
  60   31   32 1
  61   31   57 1
  62   31   58 1
  63   32   59 1
  64   32   60 1
  65   33   61 1
  66   33   62 1
  67   34   35 2
  68   34   63 1
  69   35   36 1
  70   35   64 1

#	End of record

