#	Name: ASD10228001
#	Creating user name:	WinNT
#	Creation time:	15. 06. 2019 21:26

#	Modifying user name:	WinNT
#	Modification time:	15. 06. 2019 21:26

#	Program:	/corina/corina34_cracker 3.40 0067  02.08.2006

@<TRIPOS>MOLECULE
ASD10228001
  88   91    0    0    0
SMALL
NO_CHARGES


@<TRIPOS>ATOM
   1 O1             0.0357     1.5455     0.2508 O.3     
   2 C2            -0.0629     0.2179    -0.2685 C.3     
   3 C3            -1.5063    -0.0561    -0.6989 C.3     
   4 C4            -2.4218     0.0330     0.5260 C.3     
   5 O5            -3.7604    -0.2934     0.1471 O.3     
   6 C6            -1.9337    -0.9575     1.5876 C.3     
   7 O7            -2.7365    -0.8317     2.7631 O.3     
   8 C8            -0.4738    -0.6487     1.9297 C.3     
   9 O9             0.3174    -0.7185     0.7417 O.3     
  10 C10            0.0395    -1.6712     2.9455 C.3     
  11 N11            1.3941    -1.2981     3.3741 N.3     
  12 N12           -1.9196     0.9420    -1.6943 N.3     
  13 C13            1.3282     2.1353     0.0971 C.3     
  14 C14            1.2003     3.4499    -0.6752 C.3     
  15 C15            2.5842     4.0813    -0.8398 C.3     
  16 C16            3.1865     4.3566     0.5394 C.3     
  17 C17            3.3144     3.0420     1.3117 C.3     
  18 C18            1.9305     2.4105     1.4763 C.3     
  19 O19            2.4648     5.3091    -1.5611 O.3     
  20 O20            0.6378     3.1928    -1.9634 O.3     
  21 C21           -0.1330     4.2758    -2.4877 C.3     
  22 C22           -0.5948     3.9597    -3.9276 C.3     
  23 O23            0.2666     4.5881    -4.8790 O.3     
  24 C24           -2.0167     4.5591    -4.0059 C.3     
  25 O25           -2.0770     5.5760    -5.0081 O.3     
  26 C26           -2.2458     5.1664    -2.6041 C.3     
  27 O27           -1.3551     4.4340    -1.7346 O.3     
  28 C28           -3.6988     4.9671    -2.1683 C.3     
  29 O29           -3.9190     5.6355    -0.9246 O.3     
  30 C30           -2.4623     5.0981    -6.2985 C.3     
  31 C31           -2.2543     6.2047    -7.3358 C.3     
  32 C32           -2.7256     5.7054    -8.7051 C.3     
  33 O33           -1.9265     4.5918    -9.1089 O.3     
  34 C34           -4.1916     5.2735    -8.6019 C.3     
  35 O35           -4.9992     6.4023    -8.2614 O.3     
  36 C36           -4.3248     4.2029    -7.5157 C.3     
  37 O37           -3.8407     4.7218    -6.2753 O.3     
  38 C38           -5.7956     3.8093    -7.3648 C.3     
  39 N39           -5.9232     2.7820    -6.3226 N.3     
  40 N40           -3.0317     7.3904    -6.9513 N.3     
  41 N41            2.0533     1.1483     2.2178 N.3     
  42 N42            4.5152     4.9629     0.3814 N.3     
  43 H43            0.5988     0.1139    -1.1285 H       
  44 H44           -1.5740    -1.0539    -1.1324 H       
  45 H45           -2.3935     1.0452     0.9294 H       
  46 H46           -4.3953    -0.2570     0.8756 H       
  47 H47           -2.0111    -1.9736     1.2007 H       
  48 H48           -3.6760    -1.0090     2.6185 H       
  49 H49           -0.4040     0.3526     2.3546 H       
  50 H50           -0.6235    -1.6884     3.8105 H       
  51 H51            0.0631    -2.6594     2.4861 H       
  52 H52            1.7591    -1.9633     4.0392 H       
  53 H53            2.0111    -1.2037     2.5813 H       
  54 H54           -1.3269     0.9061    -2.5101 H       
  55 H55           -2.8892     0.8215    -1.9462 H       
  56 H56            1.9761     1.4525    -0.4526 H       
  57 H57            0.5525     4.1326    -0.1255 H       
  58 H58            3.2321     3.3985    -1.3895 H       
  59 H59            2.5387     5.0394     1.0891 H       
  60 H60            3.9623     2.3592     0.7620 H       
  61 H61            3.7435     3.2381     2.2943 H       
  62 H62            1.2827     3.0933     2.0260 H       
  63 H63            3.3055     5.7654    -1.7028 H       
  64 H64            0.4464     5.1989    -2.4691 H       
  65 H65           -0.6225     2.8825    -4.0919 H       
  66 H66            1.1861     4.2923    -4.8326 H       
  67 H67           -2.7495     3.7785    -4.2106 H       
  68 H68           -1.9905     6.2261    -2.6033 H       
  69 H69           -4.3652     5.3800    -2.9256 H       
  70 H70           -3.8996     3.9024    -2.0491 H       
  71 H71           -4.8214     5.5514    -0.5872 H       
  72 H72           -1.8538     4.2332    -6.5627 H       
  73 H73           -1.1964     6.4623    -7.3864 H       
  74 H74           -2.6310     6.5069    -9.4378 H       
  75 H75           -2.1703     4.2241    -9.9694 H       
  76 H76           -4.5196     4.8663    -9.5582 H       
  77 H77           -4.9591     7.1229    -8.9049 H       
  78 H78           -3.7407     3.3263    -7.7958 H       
  79 H79           -6.3794     4.6860    -7.0843 H       
  80 H80           -6.1650     3.4145    -8.3113 H       
  81 H81           -5.5284     3.1008    -5.4504 H       
  82 H82           -6.8861     2.5050    -6.2038 H       
  83 H83           -2.7422     7.7353    -6.0484 H       
  84 H84           -2.9619     8.1117    -7.6533 H       
  85 H85            2.3984     1.3099     3.1521 H       
  86 H86            1.1741     0.6536     2.2376 H       
  87 H87            4.9344     5.1544     1.2790 H       
  88 H88            5.1152     4.3776    -0.1804 H       
@<TRIPOS>BOND
   1    1    2 1
   2    1   13 1
   3    2    3 1
   4    2    9 1
   5    2   43 1
   6    3    4 1
   7    3   12 1
   8    3   44 1
   9    4    5 1
  10    4    6 1
  11    4   45 1
  12    5   46 1
  13    6    7 1
  14    6    8 1
  15    6   47 1
  16    7   48 1
  17    8    9 1
  18    8   10 1
  19    8   49 1
  20   10   11 1
  21   10   50 1
  22   10   51 1
  23   11   52 1
  24   11   53 1
  25   12   54 1
  26   12   55 1
  27   13   14 1
  28   13   18 1
  29   13   56 1
  30   14   15 1
  31   14   20 1
  32   14   57 1
  33   15   16 1
  34   15   19 1
  35   15   58 1
  36   16   17 1
  37   16   42 1
  38   16   59 1
  39   17   18 1
  40   17   60 1
  41   17   61 1
  42   18   41 1
  43   18   62 1
  44   19   63 1
  45   20   21 1
  46   21   22 1
  47   21   27 1
  48   21   64 1
  49   22   23 1
  50   22   24 1
  51   22   65 1
  52   23   66 1
  53   24   25 1
  54   24   26 1
  55   24   67 1
  56   25   30 1
  57   26   27 1
  58   26   28 1
  59   26   68 1
  60   28   29 1
  61   28   69 1
  62   28   70 1
  63   29   71 1
  64   30   31 1
  65   30   37 1
  66   30   72 1
  67   31   32 1
  68   31   40 1
  69   31   73 1
  70   32   33 1
  71   32   34 1
  72   32   74 1
  73   33   75 1
  74   34   35 1
  75   34   36 1
  76   34   76 1
  77   35   77 1
  78   36   37 1
  79   36   38 1
  80   36   78 1
  81   38   39 1
  82   38   79 1
  83   38   80 1
  84   39   81 1
  85   39   82 1
  86   40   83 1
  87   40   84 1
  88   41   85 1
  89   41   86 1
  90   42   87 1
  91   42   88 1

#	End of record

