#	Name: ASD10410111
#	Creating user name:	WinNT
#	Creation time:	15. 06. 2019 21:26

#	Modifying user name:	WinNT
#	Modification time:	15. 06. 2019 21:26

#	Program:	/corina/corina34_cracker 3.40 0067  02.08.2006

@<TRIPOS>MOLECULE
ASD10410111
  67   71    0    0    0
SMALL
NO_CHARGES


@<TRIPOS>ATOM
   1 C1             0.0463     1.2970     0.5874 C.ar    
   2 C2            -0.0048     0.0052     0.0844 C.ar    
   3 C3             1.1365    -0.5799    -0.4439 C.ar    
   4 C4             2.3247     0.1232    -0.4696 C.ar    
   5 C5             2.3767     1.4167     0.0333 C.ar    
   6 C6             1.2335     2.0017     0.5621 C.ar    
   7 N7             3.5809     2.1301     0.0080 N.pl3   
   8 C8             3.5659     3.5093    -0.1043 C.2     
   9 N9             4.6573     4.3268    -0.0380 N.pl3   
  10 N10            2.5010     4.2511    -0.2982 N.2     
  11 C11            2.8605     5.5471    -0.3566 C.2     
  12 C12            4.1982     5.6241    -0.1974 C.2     
  13 N13            1.9930     6.6320    -0.5531 N.pl3   
  14 O14           -1.1744    -0.6881     0.1098 O.3     
  15 C15           -1.1548    -2.0132    -0.4248 C.3     
  16 C16           -2.5503    -2.6300    -0.3104 C.3     
  17 C17           -3.5270    -1.8515    -1.1948 C.3     
  18 C18           -2.5037    -4.0893    -0.7717 C.3     
  19 C19           -3.9146    -4.6809    -0.7111 C.3     
  20 C20           -4.8518    -3.8429    -1.5839 C.3     
  21 N21           -4.8621    -2.4559    -1.1017 N.3     
  22 C22           -5.8551    -1.6534    -1.8282 C.3     
  23 C23            5.9756     3.9333     0.1533 C.ar    
  24 C24            7.0040     4.4096    -0.6900 C.ar    
  25 C25            8.3297     3.9713    -0.4429 C.ar    
  26 N26            8.5493     3.1273     0.5759 N.ar    
  27 C27            7.5537     2.7183     1.3261 C.ar    
  28 N28            6.3026     3.1053     1.1351 N.ar    
  29 C29            6.7481     5.2911    -1.7487 C.ar    
  30 C30            7.7810     5.7194    -2.5326 C.ar    
  31 C31            9.0928     5.2865    -2.2898 C.ar    
  32 C32            9.3693     4.4272    -1.2635 C.ar    
  33 O33            7.5349     6.5748    -3.5605 O.3     
  34 C34            6.1785     6.9791    -3.7574 C.3     
  35 O35           10.1021     5.7274    -3.0850 O.3     
  36 C36           11.4166     5.2518    -2.7886 C.3     
  37 H37           -0.8438     1.7533     0.9948 H       
  38 H38            1.0959    -1.5858    -0.8349 H       
  39 H39            3.2134    -0.3328    -0.8804 H       
  40 H40            1.2730     3.0077     0.9530 H       
  41 H41            4.4259     1.6576     0.0693 H       
  42 H42            4.7958     6.5237    -0.1945 H       
  43 H43            1.0413     6.4786    -0.6606 H       
  44 H44            2.3450     7.5355    -0.5813 H       
  45 H45           -0.8580    -1.9778    -1.4730 H       
  46 H46           -0.4425    -2.6200     0.1343 H       
  47 H47           -2.8838    -2.5859     0.7264 H       
  48 H48           -3.5734    -0.8152    -0.8599 H       
  49 H49           -3.1851    -1.8837    -2.2293 H       
  50 H50           -2.1328    -4.1359    -1.7956 H       
  51 H51           -1.8422    -4.6571    -0.1175 H       
  52 H52           -3.8952    -5.7068    -1.0789 H       
  53 H53           -4.2700    -4.6697     0.3193 H       
  54 H54           -4.5036    -3.8659    -2.6165 H       
  55 H55           -5.8603    -4.2531    -1.5316 H       
  56 H56           -6.8538    -2.0398    -1.6245 H       
  57 H57           -5.7933    -0.6156    -1.5008 H       
  58 H58           -5.6551    -1.7094    -2.8982 H       
  59 H59            7.7652     2.0383     2.1381 H       
  60 H60            5.7411     5.6292    -1.9435 H       
  61 H61           10.3836     4.1011    -1.0866 H       
  62 H62            5.8166     7.4850    -2.8623 H       
  63 H63            6.1219     7.6594    -4.6072 H       
  64 H64            5.5625     6.1014    -3.9529 H       
  65 H65           12.1261     5.6796    -3.4970 H       
  66 H66           11.6906     5.5484    -1.7761 H       
  67 H67           11.4359     4.1648    -2.8666 H       
@<TRIPOS>BOND
   1    1    2 ar
   2    1    6 ar
   3    1   37 1
   4    2    3 ar
   5    2   14 1
   6    3    4 ar
   7    3   38 1
   8    4    5 ar
   9    4   39 1
  10    5    6 ar
  11    5    7 1
  12    6   40 1
  13    7    8 1
  14    7   41 1
  15    8    9 1
  16    8   10 2
  17    9   23 1
  18    9   12 1
  19   10   11 1
  20   11   12 2
  21   11   13 1
  22   12   42 1
  23   13   43 1
  24   13   44 1
  25   14   15 1
  26   15   16 1
  27   15   45 1
  28   15   46 1
  29   16   17 1
  30   16   18 1
  31   16   47 1
  32   17   21 1
  33   17   48 1
  34   17   49 1
  35   18   19 1
  36   18   50 1
  37   18   51 1
  38   19   20 1
  39   19   52 1
  40   19   53 1
  41   20   21 1
  42   20   54 1
  43   20   55 1
  44   21   22 1
  45   22   56 1
  46   22   57 1
  47   22   58 1
  48   23   24 ar
  49   23   28 ar
  50   24   25 ar
  51   24   29 ar
  52   25   26 ar
  53   25   32 ar
  54   26   27 ar
  55   27   28 ar
  56   27   59 1
  57   29   30 ar
  58   29   60 1
  59   30   31 ar
  60   30   33 1
  61   31   32 ar
  62   31   35 1
  63   32   61 1
  64   33   34 1
  65   34   62 1
  66   34   63 1
  67   34   64 1
  68   35   36 1
  69   36   65 1
  70   36   66 1
  71   36   67 1

#	End of record

