#	Name: ASD11710026
#	Creating user name:	WinNT
#	Creation time:	15. 06. 2019 21:29

#	Modifying user name:	WinNT
#	Modification time:	15. 06. 2019 21:29

#	Program:	/corina/corina34_cracker 3.40 0067  02.08.2006

@<TRIPOS>MOLECULE
ASD11710026
  51   53    0    0    0
SMALL
NO_CHARGES


@<TRIPOS>ATOM
   1 C1             0.0081     1.2138     0.2007 C.3     
   2 N2             0.3531    -0.2082     0.2733 N.am    
   3 C3            -0.1643    -0.9781     1.2511 C.2     
   4 C4             0.0956    -2.4335     1.2615 C.ar    
   5 O5            -0.8445    -0.4759     2.1243 O.2     
   6 C6             0.4870    -3.0672     2.4419 C.ar    
   7 C7            -0.0551    -3.1808     0.0923 C.ar    
   8 C8             0.1885    -4.5386     0.1090 C.ar    
   9 C9             0.5809    -5.1598     1.2814 C.ar    
  10 C10            0.7275    -4.4256     2.4449 C.ar    
  11 S11            0.8889    -6.8946     1.2942 S.o2    
  12 N12            2.5171    -7.1050     1.0773 N.am    
  13 C13            3.1276    -6.6643    -0.0991 C.ar    
  14 C14            4.3256    -5.9636    -0.0414 C.ar    
  15 C15            2.5410    -6.9306    -1.3298 C.ar    
  16 C16            3.1473    -6.4934    -2.4911 C.ar    
  17 C17            4.3373    -5.7915    -2.4297 C.ar    
  18 C18            4.9266    -5.5292    -1.2065 C.ar    
  19 O19            0.5981    -7.3440     2.6105 O.2     
  20 O20            0.2582    -7.4227     0.1355 O.2     
  21 C21            0.9985     2.0129     1.0079 C.ar    
  22 C22            2.1463     2.4982     0.4095 C.ar    
  23 C23            3.0548     3.2312     1.1499 C.ar    
  24 C24            2.8154     3.4792     2.4886 C.ar    
  25 C25            1.6672     2.9946     3.0868 C.ar    
  26 C26            0.7566     2.2654     2.3453 C.ar    
  27 C27            1.2606    -0.7932    -0.7169 C.3     
  28 C28            2.6831    -0.8163    -0.1541 C.3     
  29 O29            2.7356    -1.6944     0.9721 O.3     
  30 H30            0.0371     1.5421    -0.8382 H       
  31 H31           -0.9940     1.3654     0.6019 H       
  32 H32            0.6018    -2.4952     3.3508 H       
  33 H33           -0.3620    -2.6972    -0.8233 H       
  34 H34            0.0723    -5.1180    -0.7950 H       
  35 H35            1.0341    -4.9165     3.3567 H       
  36 H36            3.0468    -7.5344     1.7672 H       
  37 H37            4.7864    -5.7584     0.9136 H       
  38 H38            1.6121    -7.4794    -1.3785 H       
  39 H39            2.6918    -6.7001    -3.4482 H       
  40 H40            4.8097    -5.4513    -3.3393 H       
  41 H41            5.8559    -4.9808    -1.1620 H       
  42 H42            2.3333     2.3044    -0.6364 H       
  43 H43            3.9518     3.6097     0.6826 H       
  44 H44            3.5256     4.0512     3.0672 H       
  45 H45            1.4804     3.1881     4.1327 H       
  46 H46           -0.1405     1.8868     2.8126 H       
  47 H47            0.9431    -1.8109    -0.9441 H       
  48 H48            1.2398    -0.1943    -1.6273 H       
  49 H49            3.3719    -1.1686    -0.9219 H       
  50 H50            2.9677     0.1892     0.1557 H       
  51 H51            3.6098    -1.7583     1.3806 H       
@<TRIPOS>BOND
   1    1    2 1
   2    1   21 1
   3    1   30 1
   4    1   31 1
   5    2    3 am
   6    2   27 1
   7    3    4 1
   8    3    5 2
   9    4    6 ar
  10    4    7 ar
  11    6   10 ar
  12    6   32 1
  13    7    8 ar
  14    7   33 1
  15    8    9 ar
  16    8   34 1
  17    9   10 ar
  18    9   11 1
  19   10   35 1
  20   11   12 am
  21   11   19 2
  22   11   20 2
  23   12   13 1
  24   12   36 1
  25   13   14 ar
  26   13   15 ar
  27   14   18 ar
  28   14   37 1
  29   15   16 ar
  30   15   38 1
  31   16   17 ar
  32   16   39 1
  33   17   18 ar
  34   17   40 1
  35   18   41 1
  36   21   22 ar
  37   21   26 ar
  38   22   23 ar
  39   22   42 1
  40   23   24 ar
  41   23   43 1
  42   24   25 ar
  43   24   44 1
  44   25   26 ar
  45   25   45 1
  46   26   46 1
  47   27   28 1
  48   27   47 1
  49   27   48 1
  50   28   29 1
  51   28   49 1
  52   28   50 1
  53   29   51 1

#	End of record

