#	Name: ASD10420154
#	Creating user name:	WinNT
#	Creation time:	15. 06. 2019 21:27

#	Modifying user name:	WinNT
#	Modification time:	15. 06. 2019 21:27

#	Program:	/corina/corina34_cracker 3.40 0067  02.08.2006

@<TRIPOS>MOLECULE
ASD10420154
  37   39    0    0    0
SMALL
NO_CHARGES


@<TRIPOS>ATOM
   1 C1            -0.0183     1.4983     0.0103 C.3     
   2 C2             0.0021    -0.0041     0.0020 C.2     
   3 C3             1.2117    -0.4402     0.3343 C.2     
   4 C4             2.1825     0.7303     0.4323 C.3     
   5 C5             1.4363     1.9386    -0.0012 C.2     
   6 C6             2.7487     0.7195     1.8161 C.2     
   7 C7             1.6699    -1.7358     0.7104 C.2     
   8 C8             2.5477    -1.7303     1.7557 C.2     
   9 C9             2.9239    -0.4749     2.4040 C.2     
  10 C10            1.8370     3.1031    -0.4254 C.2     
  11 C11           -0.7093     2.1021    -1.1726 C.2     
  12 C12           -0.3194     3.2635    -1.6315 C.2     
  13 C13            0.8164     4.0386    -1.0270 C.3     
  14 N14           -1.0743    -0.8095    -0.3039 N.pl3   
  15 O15           -0.9343    -2.2183    -0.2782 O.3     
  16 C16           -2.1282    -2.9273    -0.6158 C.3     
  17 C17           -1.8616    -4.4327    -0.5558 C.3     
  18 C18           -3.1206    -5.1804    -0.9119 C.2     
  19 O19           -4.1278    -4.5717    -1.1856 O.2     
  20 O20           -3.1232    -6.5226    -0.9251 O.3     
  21 H21           -0.4995     1.8521     0.9221 H       
  22 H22            2.9997     0.5578    -0.2681 H       
  23 H23            3.0073     1.6373     2.3232 H       
  24 H24            1.3515    -2.6402     0.2134 H       
  25 H25            2.9679    -2.6612     2.1069 H       
  26 H26            3.3585    -0.5095     3.3921 H       
  27 H27            2.8746     3.3926    -0.3482 H       
  28 H28           -1.5275     1.5800    -1.6463 H       
  29 H29           -0.8365     3.6831    -2.4817 H       
  30 H30            0.4288     4.6961    -0.2488 H       
  31 H31            1.2928     4.6406    -1.8008 H       
  32 H32           -1.9275    -0.4111    -0.5369 H       
  33 H33           -2.9163    -2.6694     0.0916 H       
  34 H34           -2.4406    -2.6535    -1.6236 H       
  35 H35           -1.0735    -4.6906    -1.2633 H       
  36 H36           -1.5491    -4.7065     0.4519 H       
  37 H37           -3.9542    -6.9578    -1.1596 H       
@<TRIPOS>BOND
   1    1    2 1
   2    1    5 1
   3    1   11 1
   4    1   21 1
   5    2    3 2
   6    2   14 1
   7    3    4 1
   8    3    7 1
   9    4    5 1
  10    4    6 1
  11    4   22 1
  12    5   10 2
  13    6    9 2
  14    6   23 1
  15    7    8 2
  16    7   24 1
  17    8    9 1
  18    8   25 1
  19    9   26 1
  20   10   13 1
  21   10   27 1
  22   11   12 2
  23   11   28 1
  24   12   13 1
  25   12   29 1
  26   13   30 1
  27   13   31 1
  28   14   15 1
  29   14   32 1
  30   15   16 1
  31   16   17 1
  32   16   33 1
  33   16   34 1
  34   17   18 1
  35   17   35 1
  36   17   36 1
  37   18   19 2
  38   18   20 1
  39   20   37 1

#	End of record

