#	Name: ASD17240001
#	Creating user name:	WinNT
#	Creation time:	15. 06. 2019 21:31

#	Modifying user name:	WinNT
#	Modification time:	15. 06. 2019 21:31

#	Program:	/corina/corina34_cracker 3.40 0067  02.08.2006

@<TRIPOS>MOLECULE
ASD17240001
  54   56    0    0    0
SMALL
NO_CHARGES


@<TRIPOS>ATOM
   1 C1            -0.0180     1.4773     0.0102 C.ar    
   2 C2             1.1784     2.1926     0.0026 C.ar    
   3 C3             0.0009     4.1554     0.0243 C.ar    
   4 C4            -1.1918     3.4462     0.0374 C.ar    
   5 C5             0.0021    -0.0041     0.0020 C.2     
   6 C6            -1.1360    -2.1586     0.0013 C.3     
   7 C7            -0.9896    -2.6746     1.4342 C.3     
   8 O8            -3.2722    -1.8964    -0.9670 O.2     
   9 C9            -2.4224    -2.6752    -0.5897 C.2     
  10 N10           -2.6286    -4.0026    -0.6989 N.am    
  11 C11           -3.8792    -4.5048    -1.2734 C.3     
  12 C12           -3.5698    -5.6269    -2.2664 C.3     
  13 C13           -4.8563    -6.1435    -2.8574 C.ar    
  14 C14           -5.5319    -7.1808    -2.2424 C.ar    
  15 C15           -6.7147    -7.6512    -2.7816 C.ar    
  16 C16           -7.2220    -7.0840    -3.9356 C.ar    
  17 C17           -6.5468    -6.0461    -4.5502 C.ar    
  18 C18           -5.3636    -5.5763    -4.0115 C.ar    
  19 B19           -4.7966    -5.0592    -0.1263 Du      
  20 O20           -4.3424    -6.1266     0.6928 O.3     
  21 O21           -6.0805    -4.4934     0.0921 O.3     
  22 C22            0.3516    -2.2607     1.9827 C.ar    
  23 C23            1.4505    -3.0825     1.8148 C.ar    
  24 C24            2.6808    -2.7028     2.3178 C.ar    
  25 C25            2.8124    -1.5012     2.9884 C.ar    
  26 C26            1.7137    -0.6791     3.1558 C.ar    
  27 C27            0.4844    -1.0566     2.6486 C.ar    
  28 N28           -1.1558    -0.6938     0.0094 N.am    
  29 O29            1.0625    -0.5973    -0.0113 O.2     
  30 N30           -1.1778     2.1285     0.0303 N.ar    
  31 N31            1.1555     3.5135     0.0099 N.ar    
  32 H32            2.1224     1.6680    -0.0089 H       
  33 H33           -0.0146     5.2353     0.0302 H       
  34 H34           -2.1333     3.9751     0.0495 H       
  35 H35           -0.2950    -2.5073    -0.5981 H       
  36 H36           -1.7812    -2.2540     2.0544 H       
  37 H37           -1.0639    -3.7620     1.4382 H       
  38 H38           -1.9490    -4.6254    -0.3972 H       
  39 H39           -4.3931    -3.6941    -1.7899 H       
  40 H40           -2.9329    -5.2420    -3.0628 H       
  41 H41           -3.0559    -6.4376    -1.7500 H       
  42 H42           -5.1356    -7.6240    -1.3407 H       
  43 H43           -7.2422    -8.4622    -2.3015 H       
  44 H44           -8.1456    -7.4520    -4.3573 H       
  45 H45           -6.9431    -5.6029    -5.4518 H       
  46 H46           -4.8380    -4.7629    -4.4895 H       
  47 H47           -4.9758    -6.3991     1.3707 H       
  48 H48           -6.5710    -4.9001     0.8195 H       
  49 H49            1.3476    -4.0213     1.2909 H       
  50 H50            3.5391    -3.3452     2.1873 H       
  51 H51            3.7735    -1.2047     3.3817 H       
  52 H52            1.8164     0.2595     3.6800 H       
  53 H53           -0.3732    -0.4125     2.7759 H       
  54 H54           -2.0023    -0.2203     0.0200 H       
@<TRIPOS>BOND
   1    1    5 1
   2    1    2 ar
   3    1   30 ar
   4    2   32 1
   5    2   31 ar
   6    3   31 ar
   7    3    4 ar
   8    3   33 1
   9    4   30 ar
  10    4   34 1
  11    5   29 2
  12    5   28 am
  13    6    9 1
  14    6   35 1
  15    6    7 1
  16    6   28 1
  17    7   22 1
  18    7   36 1
  19    7   37 1
  20    8    9 2
  21    9   10 am
  22   10   11 1
  23   10   38 1
  24   11   12 1
  25   11   19 1
  26   11   39 1
  27   12   40 1
  28   12   41 1
  29   12   13 1
  30   13   18 ar
  31   13   14 ar
  32   14   42 1
  33   14   15 ar
  34   15   16 ar
  35   15   43 1
  36   16   17 ar
  37   16   44 1
  38   17   18 ar
  39   17   45 1
  40   18   46 1
  41   19   21 1
  42   19   20 1
  43   20   47 1
  44   21   48 1
  45   22   27 ar
  46   22   23 ar
  47   23   24 ar
  48   23   49 1
  49   24   25 ar
  50   24   50 1
  51   25   51 1
  52   25   26 ar
  53   26   52 1
  54   26   27 ar
  55   27   53 1
  56   28   54 1

#	End of record

