#	Name: ASD12970017
#	Creating user name:	WinNT
#	Creation time:	15. 06. 2019 21:30

#	Modifying user name:	WinNT
#	Modification time:	15. 06. 2019 21:30

#	Program:	/corina/corina34_cracker 3.40 0067  02.08.2006

@<TRIPOS>MOLECULE
ASD12970017
  47   49    0    0    0
SMALL
NO_CHARGES


@<TRIPOS>ATOM
   1 C1             2.0928     1.6861    -0.9568 C.ar    
   2 N2             2.0916     0.3768    -1.0999 N.ar    
   3 C3             1.1214    -0.3757    -0.6178 C.ar    
   4 C4             0.0552     0.1835     0.0637 C.ar    
   5 C5             0.0091     1.5549     0.2413 C.ar    
   6 C6             1.0535     2.3270    -0.2813 C.ar    
   7 C7             1.0553     3.7966    -0.1202 C.2     
   8 N8             1.7323     5.8122    -0.0474 N.2     
   9 N9             2.0878     4.5953    -0.2580 N.2     
  10 N10           -0.0263     4.5857     0.1965 N.pl3   
  11 C11            0.4497     5.8652     0.2350 C.2     
  12 C12           -1.4020     4.1454     0.4410 C.3     
  13 C13           -1.5896     3.8631     1.9330 C.3     
  14 S14           -0.4818     7.3165     0.5965 S.3     
  15 C15            0.8181     8.5679     0.4539 C.3     
  16 C16            0.2362     9.9303     0.7300 C.2     
  17 O17           -0.9415    10.0441     0.9969 O.2     
  18 N18            1.0244    11.0224     0.6804 N.am    
  19 C19            0.4652    12.2963     0.8307 C.ar    
  20 C20            0.9752    13.3693     0.1116 C.ar    
  21 C21           -0.6045    12.4891     1.6950 C.ar    
  22 C22           -1.1542    13.7476     1.8411 C.ar    
  23 C23           -0.6407    14.8151     1.1276 C.ar    
  24 C24            0.4210    14.6254     0.2622 C.ar    
  25 C25           -1.2432    16.1869     1.2891 C.3     
  26 C26           -0.5276    16.9283     2.4201 C.3     
  27 H27            2.9074     2.2682    -1.3617 H       
  28 H28            1.1598    -1.4459    -0.7578 H       
  29 H29           -0.7331    -0.4438     0.4529 H       
  30 H30           -0.8115     2.0178     0.7691 H       
  31 H31           -2.0946     4.9272     0.1293 H       
  32 H32           -1.5993     3.2370    -0.1282 H       
  33 H33           -1.3923     4.7714     2.5023 H       
  34 H34           -2.6131     3.5354     2.1149 H       
  35 H35           -0.8970     3.0813     2.2448 H       
  36 H36            1.6067     8.3565     1.1760 H       
  37 H37            1.2331     8.5475    -0.5538 H       
  38 H38            1.9793    10.9254     0.5405 H       
  39 H39            1.8044    13.2218    -0.5645 H       
  40 H40           -1.0064    11.6557     2.2520 H       
  41 H41           -1.9861    13.8982     2.5132 H       
  42 H42            0.8174    15.4604    -0.2965 H       
  43 H43           -1.1299    16.7452     0.3599 H       
  44 H44           -2.3022    16.0926     1.5295 H       
  45 H45           -0.6409    16.3700     3.3494 H       
  46 H46            0.5314    17.0226     2.1797 H       
  47 H47           -0.9634    17.9206     2.5369 H       
@<TRIPOS>BOND
   1    1    2 ar
   2    1    6 ar
   3    1   27 1
   4    2    3 ar
   5    3    4 ar
   6    3   28 1
   7    4    5 ar
   8    4   29 1
   9    5    6 ar
  10    5   30 1
  11    6    7 1
  12    7   10 1
  13    7    9 2
  14    8    9 1
  15    8   11 2
  16   10   11 1
  17   10   12 1
  18   11   14 1
  19   12   13 1
  20   12   31 1
  21   12   32 1
  22   13   33 1
  23   13   34 1
  24   13   35 1
  25   14   15 1
  26   15   16 1
  27   15   36 1
  28   15   37 1
  29   16   17 2
  30   16   18 am
  31   18   19 1
  32   18   38 1
  33   19   21 ar
  34   19   20 ar
  35   20   24 ar
  36   20   39 1
  37   21   22 ar
  38   21   40 1
  39   22   23 ar
  40   22   41 1
  41   23   24 ar
  42   23   25 1
  43   24   42 1
  44   25   26 1
  45   25   43 1
  46   25   44 1
  47   26   45 1
  48   26   46 1
  49   26   47 1

#	End of record

