#	Name: ASD11710020
#	Creating user name:	WinNT
#	Creation time:	15. 06. 2019 21:29

#	Modifying user name:	WinNT
#	Modification time:	15. 06. 2019 21:29

#	Program:	/corina/corina34_cracker 3.40 0067  02.08.2006

@<TRIPOS>MOLECULE
ASD11710020
  50   52    0    0    0
SMALL
NO_CHARGES


@<TRIPOS>ATOM
   1 C1             8.3933    -0.6732     1.2925 C.ar    
   2 C2             8.9057    -1.0603     2.5166 C.ar    
   3 C3             8.1302    -0.9522     3.6558 C.ar    
   4 C4             6.8425    -0.4567     3.5710 C.ar    
   5 C5             6.3304    -0.0687     2.3470 C.ar    
   6 C6             7.1054    -0.1781     1.2075 C.ar    
   7 C7             4.9265     0.4710     2.2544 C.3     
   8 N8             4.7726     1.5934     3.1833 N.am    
   9 C9             4.5623     2.8371     2.7084 C.2     
  10 C10            4.3189     3.9547     3.6452 C.ar    
  11 O11            4.5729     3.0400     1.5100 O.2     
  12 C12            5.0055     4.0141     4.8590 C.ar    
  13 C13            3.4058     4.9581     3.3171 C.ar    
  14 C14            3.1836     5.9984     4.1956 C.ar    
  15 C15            3.8640     6.0487     5.3993 C.ar    
  16 C16            4.7740     5.0599     5.7284 C.ar    
  17 S17            3.5752     7.3816     6.5149 S.o2    
  18 N18            2.2533     6.9792     7.4277 N.am    
  19 C19            1.0182     6.7650     6.8116 C.ar    
  20 C20            0.2568     5.6526     7.1466 C.ar    
  21 C21            0.5460     7.6671     5.8667 C.ar    
  22 C22           -0.6757     7.4523     5.2594 C.ar    
  23 C23           -1.4288     6.3411     5.5914 C.ar    
  24 C24           -0.9640     5.4439     6.5355 C.ar    
  25 O25            4.6835     7.4082     7.4038 O.2     
  26 O26            3.1899     8.4943     5.7196 O.2     
  27 C27            3.9309    -0.6323     2.6183 C.3     
  28 C28            4.8472     1.3639     4.6283 C.3     
  29 H29            9.0007    -0.7534     0.4031 H       
  30 H30            9.9117    -1.4474     2.5829 H       
  31 H31            8.5302    -1.2553     4.6121 H       
  32 H32            6.2364    -0.3729     4.4610 H       
  33 H33            6.7055     0.1253     0.2513 H       
  34 H34            4.7348     0.8123     1.2371 H       
  35 H35            5.7161     3.2428     5.1171 H       
  36 H36            2.8746     4.9203     2.3776 H       
  37 H37            2.4774     6.7754     3.9429 H       
  38 H38            5.3018     5.1050     6.6696 H       
  39 H39            2.3368     6.8922     8.3901 H       
  40 H40            0.6192     4.9515     7.8839 H       
  41 H41            1.1333     8.5356     5.6074 H       
  42 H42           -1.0434     8.1533     4.5247 H       
  43 H43           -2.3841     6.1758     5.1155 H       
  44 H44           -1.5546     4.5770     6.7925 H       
  45 H45            2.9154    -0.2419     2.5513 H       
  46 H46            4.0454    -1.4674     1.9272 H       
  47 H47            4.1226    -0.9736     3.6356 H       
  48 H48            5.8629     1.5547     4.9745 H       
  49 H49            4.1571     2.0355     5.1389 H       
  50 H50            4.5770     0.3307     4.8465 H       
@<TRIPOS>BOND
   1    1    2 ar
   2    1    6 ar
   3    1   29 1
   4    2    3 ar
   5    2   30 1
   6    3    4 ar
   7    3   31 1
   8    4    5 ar
   9    4   32 1
  10    5    6 ar
  11    5    7 1
  12    6   33 1
  13    7    8 1
  14    7   27 1
  15    7   34 1
  16    8    9 am
  17    8   28 1
  18    9   10 1
  19    9   11 2
  20   10   12 ar
  21   10   13 ar
  22   12   16 ar
  23   12   35 1
  24   13   14 ar
  25   13   36 1
  26   14   15 ar
  27   14   37 1
  28   15   16 ar
  29   15   17 1
  30   16   38 1
  31   17   18 am
  32   17   25 2
  33   17   26 2
  34   18   19 1
  35   18   39 1
  36   19   20 ar
  37   19   21 ar
  38   20   24 ar
  39   20   40 1
  40   21   22 ar
  41   21   41 1
  42   22   23 ar
  43   22   42 1
  44   23   24 ar
  45   23   43 1
  46   24   44 1
  47   27   45 1
  48   27   46 1
  49   27   47 1
  50   28   48 1
  51   28   49 1
  52   28   50 1

#	End of record

