#	Name: ASD15680001
#	Creating user name:	WinNT
#	Creation time:	15. 06. 2019 21:31

#	Modifying user name:	WinNT
#	Modification time:	15. 06. 2019 21:31

#	Program:	/corina/corina34_cracker 3.40 0067  02.08.2006

@<TRIPOS>MOLECULE
ASD15680001
  40   42    0    0    0
SMALL
NO_CHARGES


@<TRIPOS>ATOM
   1 N1            -0.0704     1.0747    -0.9434 N.pl3   
   2 C2            -0.5694    -2.0263     0.8773 C.ar    
   3 N3            -0.9287    -0.9070     0.2886 N.ar    
   4 C4            -0.0190    -0.1132    -0.2767 C.ar    
   5 C5             1.3338    -0.4978    -0.2303 C.ar    
   6 C6             1.6676    -1.7028     0.4102 C.ar    
   7 N7             0.6883    -2.4258     0.9442 N.ar    
   8 N8             1.2224     1.4524    -1.3214 N.2     
   9 C9             2.0861     0.5501    -0.9197 C.2     
  10 N10            2.9807    -2.1259     0.4828 N.pl3   
  11 C11            3.5537     0.5861    -1.1263 C.ar    
  12 C12            4.2299    -0.5593    -1.5437 C.ar    
  13 C13            5.5961    -0.5198    -1.7343 C.ar    
  14 C14            6.2946     0.6533    -1.5116 C.ar    
  15 C15            5.6290     1.7929    -1.0970 C.ar    
  16 C16            4.2620     1.7671    -0.9095 C.ar    
  17 C17            7.7865     0.6898    -1.7211 C.3     
  18 C18           -1.2907     1.8346    -1.2256 C.3     
  19 C19           -1.9760     2.2063     0.0909 C.3     
  20 C20           -0.9318     3.1096    -1.9914 C.3     
  21 C21           -2.2386     0.9816    -2.0710 C.3     
  22 H22           -1.3337    -2.6445     1.3246 H       
  23 H23            3.7019    -1.5016     0.3065 H       
  24 H24            3.1815    -3.0472     0.7102 H       
  25 H25            3.6856    -1.4758    -1.7171 H       
  26 H26            6.1210    -1.4065    -2.0577 H       
  27 H27            6.1796     2.7057    -0.9240 H       
  28 H28            3.7428     2.6586    -0.5903 H       
  29 H29            8.0019     0.9706    -2.7521 H       
  30 H30            8.2306     1.4205    -1.0452 H       
  31 H31            8.2062    -0.2954    -1.5177 H       
  32 H32           -1.3007     2.8140     0.6932 H       
  33 H33           -2.8839     2.7717    -0.1191 H       
  34 H34           -2.2317     1.2980     0.6365 H       
  35 H35           -0.4436     2.8448    -2.9293 H       
  36 H36           -1.8397     3.6750    -2.2014 H       
  37 H37           -0.2565     3.7173    -1.3892 H       
  38 H38           -2.4943     0.0733    -1.5254 H       
  39 H39           -3.1466     1.5470    -2.2810 H       
  40 H40           -1.7504     0.7169    -3.0089 H       
@<TRIPOS>BOND
   1    1    4 1
   2    1    8 1
   3    1   18 1
   4    2    3 ar
   5    2    7 ar
   6    2   22 1
   7    3    4 ar
   8    4    5 ar
   9    5    6 ar
  10    5    9 1
  11    6    7 ar
  12    6   10 1
  13    8    9 2
  14    9   11 1
  15   10   23 1
  16   10   24 1
  17   11   12 ar
  18   11   16 ar
  19   12   13 ar
  20   12   25 1
  21   13   14 ar
  22   13   26 1
  23   14   15 ar
  24   14   17 1
  25   15   16 ar
  26   15   27 1
  27   16   28 1
  28   17   29 1
  29   17   30 1
  30   17   31 1
  31   18   19 1
  32   18   20 1
  33   18   21 1
  34   19   32 1
  35   19   33 1
  36   19   34 1
  37   20   35 1
  38   20   36 1
  39   20   37 1
  40   21   38 1
  41   21   39 1
  42   21   40 1

#	End of record

