#	Name: ASD10610042
#	Creating user name:	WinNT
#	Creation time:	15. 06. 2019 21:27

#	Modifying user name:	WinNT
#	Modification time:	15. 06. 2019 21:27

#	Program:	/corina/corina34_cracker 3.40 0067  02.08.2006

@<TRIPOS>MOLECULE
ASD10610042
  58   63    0    0    0
SMALL
NO_CHARGES


@<TRIPOS>ATOM
   1 O1            -0.8113     1.7106    -1.3216 O.3     
   2 N2            -1.3976     0.8405    -1.9221 N.2     
   3 C3            -1.9068     1.2765    -3.0374 C.2     
   4 C4            -1.5705     2.6456    -3.1263 C.2     
   5 C5            -0.8558     2.8821    -1.9838 C.2     
   6 C6            -0.2560     4.1621    -1.5621 C.2     
   7 O7            -0.3747     5.1490    -2.2624 O.2     
   8 N8             0.4236     4.2377    -0.4007 N.am    
   9 C9             1.1120     5.4779    -0.0342 C.3     
  10 C10            0.2493     6.7144     0.2259 C.3     
  11 C11            0.9255     5.9938     1.3940 C.3     
  12 C12            2.4561     5.6908    -0.6815 C.2     
  13 N13            3.2719     4.6409    -0.9018 N.am    
  14 O14            2.8037     6.8070    -1.0042 O.2     
  15 C15            4.6209     4.8595    -1.4296 C.3     
  16 C16            5.5490     3.6941    -1.0266 C.3     
  17 C17            5.4245     2.7390    -2.2325 C.3     
  18 C18            5.0635     3.6260    -3.4050 C.ar    
  19 C19            5.1340     3.3834    -4.7645 C.ar    
  20 C20            4.7401     4.3647    -5.6708 C.ar    
  21 C21            4.2752     5.5920    -5.2002 C.ar    
  22 C22            4.2089     5.8248    -3.8431 C.ar    
  23 C23            4.6013     4.8456    -2.9435 C.ar    
  24 C24            4.8153     4.1058    -7.1285 C.ar    
  25 C25            3.7051     4.3632    -7.9490 C.ar    
  26 C26            3.7881     4.1155    -9.3187 C.ar    
  27 C27            4.9596     3.6192    -9.8609 C.ar    
  28 C28            6.0532     3.3661    -9.0501 C.ar    
  29 C29            5.9880     3.6120    -7.6915 C.ar    
  30 O30            1.1124     5.5886    -5.9495 O.3     
  31 N31            2.2407     5.1699    -6.1008 N.2     
  32 C32            2.4523     4.8945    -7.3624 C.2     
  33 N33            1.3129     5.1863    -8.0309 N.2     
  34 C34            0.4754     5.6239    -7.1242 C.2     
  35 C35           -0.9409     6.0811    -7.3606 C.3     
  36 F36            2.7248     4.3598   -10.1154 F       
  37 Cl37           7.5168     2.7426    -9.7451 Cl      
  38 H38           -2.4750     0.7035    -3.7552 H       
  39 H39           -1.8191     3.3428    -3.9128 H       
  40 H40            0.4568     3.4710     0.1925 H       
  41 H41            0.6541     7.6820    -0.0707 H       
  42 H42           -0.8305     6.6052     0.1244 H       
  43 H43            0.2906     5.4106     2.0610 H       
  44 H44            1.7751     6.4874     1.8658 H       
  45 H45            2.9659     3.7405    -0.7108 H       
  46 H46            5.0217     5.8055    -1.0652 H       
  47 H47            6.5763     4.0394    -0.9103 H       
  48 H48            5.1947     3.2144    -0.1143 H       
  49 H49            6.3741     2.2366    -2.4167 H       
  50 H50            4.6366     2.0069    -2.0554 H       
  51 H51            5.4949     2.4311    -5.1241 H       
  52 H52            3.9683     6.3581    -5.8968 H       
  53 H53            3.8492     6.7756    -3.4785 H       
  54 H54            5.0216     3.4278   -10.9220 H       
  55 H55            6.8463     3.4164    -7.0658 H       
  56 H56           -1.3864     6.3880    -6.4144 H       
  57 H57           -0.9401     6.9237    -8.0521 H       
  58 H58           -1.5207     5.2621    -7.7865 H       
@<TRIPOS>BOND
   1    1    2 1
   2    1    5 1
   3    2    3 2
   4    3    4 1
   5    3   38 1
   6    4    5 2
   7    4   39 1
   8    5    6 1
   9    6    7 2
  10    6    8 am
  11    8    9 1
  12    8   40 1
  13    9   10 1
  14    9   11 1
  15    9   12 1
  16   10   11 1
  17   10   41 1
  18   10   42 1
  19   11   43 1
  20   11   44 1
  21   12   13 am
  22   12   14 2
  23   13   15 1
  24   13   45 1
  25   15   16 1
  26   15   23 1
  27   15   46 1
  28   16   17 1
  29   16   47 1
  30   16   48 1
  31   17   18 1
  32   17   49 1
  33   17   50 1
  34   18   19 ar
  35   18   23 ar
  36   19   20 ar
  37   19   51 1
  38   20   21 ar
  39   20   24 1
  40   21   22 ar
  41   21   52 1
  42   22   23 ar
  43   22   53 1
  44   24   25 ar
  45   24   29 ar
  46   25   26 ar
  47   25   32 1
  48   26   27 ar
  49   26   36 1
  50   27   28 ar
  51   27   54 1
  52   28   29 ar
  53   28   37 1
  54   29   55 1
  55   30   31 1
  56   30   34 1
  57   31   32 2
  58   32   33 1
  59   33   34 2
  60   34   35 1
  61   35   56 1
  62   35   57 1
  63   35   58 1

#	End of record

