#	Name: ASD14240002
#	Creating user name:	WinNT
#	Creation time:	15. 06. 2019 21:31

#	Modifying user name:	WinNT
#	Modification time:	15. 06. 2019 21:31

#	Program:	/corina/corina34_cracker 3.40 0067  02.08.2006

@<TRIPOS>MOLECULE
ASD14240002
 349  352    0    0    0
SMALL
NO_CHARGES


@<TRIPOS>ATOM
   1 S1            -1.8822     1.2938    -4.4665 S.3     
   2 S2            11.5289    -1.5143     3.1212 S.3     
   3 S3            10.1817    -2.7968     3.9784 S.3     
   4 S4            -1.8782    -4.7190     8.3124 S.3     
   5 S5            -2.2804    -6.6213     7.6656 S.3     
   6 S6             0.0156     0.5238    13.0040 S.3     
   7 S7            -0.4292     2.2934    12.0716 S.3     
   8 O8             1.3850    -3.0779    -3.9585 O.2     
   9 O9             4.4691    -0.6645    -1.2507 O.2     
  10 O10           -2.2668    -2.5074    -1.0807 O.2     
  11 O11            8.5483    -2.7344    -2.4026 O.2     
  12 O12            9.1742     0.1494    -3.4333 O.3     
  13 O13           -2.0606    -0.1210     2.8734 O.2     
  14 O14           12.6709    -1.9780    -0.9808 O.2     
  15 O15           11.8954     1.5158     2.3610 O.2     
  16 O16           -2.2690    -2.5596     6.0341 O.2     
  17 O17           10.1072     5.6728     1.5271 O.2     
  18 O18           -1.6521    -6.8003    -2.5101 O.3     
  19 O19           -6.6409     0.9665     4.0205 O.3     
  20 O20           -4.5798     0.7905     3.2431 O.2     
  21 O21           -1.0680    -1.9907     8.5468 O.2     
  22 O22           11.3534    -6.5425     4.5025 O.2     
  23 O23           10.1339    -9.5968     8.1861 O.2     
  24 O24           10.9555     8.6545     4.1731 O.2     
  25 O25            9.9249     8.9756     8.5400 O.2     
  26 O26            0.0265   -11.4937     8.0828 O.2     
  27 O27            3.7766     7.9335     9.4033 O.2     
  28 O28            0.0366    -3.0280    12.5026 O.2     
  29 O29            8.2477    -4.9171     7.4540 O.2     
  30 O30            1.6497    -4.8999     9.2306 O.3     
  31 O31            5.9963    -9.0737     7.6685 O.3     
  32 O32            7.0656    10.9111    11.1008 O.2     
  33 O33            7.1290   -12.9486     7.3257 O.2     
  34 O34            2.2868     5.6186    13.2428 O.2     
  35 O35            9.5067    -5.0001    11.6732 O.3     
  36 O36            3.6986   -11.8792     4.1974 O.2     
  37 O37            3.3091    -2.5791     9.0255 O.2     
  38 O38           -1.3156    -9.0491     5.2896 O.2     
  39 O39            6.6018    -4.7774     9.3241 O.2     
  40 N40            3.5736    -1.9927    -2.7897 N.am    
  41 N41           -0.0270    -2.1469    -2.5497 N.am    
  42 N42            6.9417    -1.6193    -1.3616 N.am    
  43 N43           -1.4518    -1.4352     0.6866 N.am    
  44 N44           10.6067    -1.4364    -1.4827 N.am    
  45 N45            7.9745    -6.7085    -0.8221 N.pl3   
  46 N46           -3.3893    -1.6296     3.8157 N.am    
  47 N47           11.4814     0.8930     0.2661 N.am    
  48 N48           11.6091     4.1358     2.0306 N.am    
  49 N49           -3.6011    -1.4813     7.4450 N.am    
  50 N50           10.2308    -7.2406     6.2954 N.am    
  51 N51            9.1723    -8.7156    -0.3667 N.pl3   
  52 N52           11.4076     6.4827     4.2747 N.am    
  53 N53            7.0157    -8.4090     0.4310 N.2     
  54 N54           -2.0321    -1.9417    10.5452 N.am    
  55 N55           10.4318    -4.5847     7.2177 N.am    
  56 N56           12.2809     7.3799    -3.6362 N.3     
  57 N57            8.5220   -10.0234     6.7174 N.am    
  58 N58            8.0632    10.6970     9.1430 N.am    
  59 N59            2.5289   -11.1991     5.9323 N.am    
  60 N60            2.7649     6.2889    11.1805 N.am    
  61 N61            9.3973     8.5828     6.4219 N.am    
  62 N62            1.2446    -2.4432    10.7211 N.am    
  63 N63            0.4293    -9.4788     7.2431 N.am    
  64 N64            5.2669     8.9562    10.6826 N.am    
  65 N65           14.0510   -12.0925     5.8412 N.pl3   
  66 N66            5.7439   -11.4292     6.5043 N.am    
  67 N67            8.2223    -3.2771     9.6984 N.am    
  68 N68            4.7648    -3.1206    10.5969 N.am    
  69 N69            6.4200    15.6348     5.1240 N.3     
  70 N70            1.5131     3.9744    10.2540 N.3     
  71 N71            4.2743    -8.0725    12.4074 N.3     
  72 N72            8.3377     2.9333    10.4817 N.3     
  73 N73           -3.1365    -8.9936     6.5558 N.am    
  74 N74           16.3005   -11.8128     6.5707 N.pl3   
  75 N75           15.5710   -13.8400     5.7109 N.2     
  76 C76            2.3003    -1.2650    -2.7785 C.3     
  77 C77            2.3598    -0.1474    -3.8237 C.3     
  78 C78            1.4136     0.9835    -3.4155 C.3     
  79 C79            5.8841    -2.3904    -2.0154 C.3     
  80 C80            1.1825    -2.2135    -3.1231 C.2     
  81 C81            5.6912    -3.7182    -1.2812 C.3     
  82 C82           -0.3811    -1.1647    -1.5292 C.3     
  83 C83            4.5894    -1.6175    -1.9904 C.2     
  84 C84            1.7272     1.4187    -1.9826 C.3     
  85 C85            1.6005     2.1713    -4.3617 C.3     
  86 C86            6.9562    -4.5673    -1.4218 C.3     
  87 C87           -0.9440     0.0937    -2.1947 C.3     
  88 C88           -1.4376    -1.7505    -0.6233 C.2     
  89 C89            6.7632    -5.8955    -0.6874 C.3     
  90 C90           -2.4313    -2.0584     1.5798 C.3     
  91 C91            8.2316    -1.8046    -1.6951 C.2     
  92 C92            9.3011    -0.8415    -1.2298 C.3     
  93 C93           -1.3375    -0.2254    -3.6384 C.3     
  94 C94           -1.9215    -3.4392     2.0014 C.3     
  95 C95           -2.6124    -1.1971     2.8040 C.2     
  96 C96            9.1568     0.4539    -2.0373 C.3     
  97 C97           11.7185    -0.5185     0.5757 C.3     
  98 C98           11.1850     3.2578     0.9395 C.3     
  99 C99           11.8826     3.7047    -0.3484 C.3     
 100 C100          11.6683    -1.3458    -0.6763 C.2     
 101 C101          -1.8496    -4.3382     0.7941 C.ar    
 102 C102          -3.5304    -0.8454     5.0454 C.3     
 103 C103          11.3987     5.1047    -0.7312 C.3     
 104 C104          11.5500     1.8269     1.2400 C.2     
 105 C105          10.6915    -1.0278     1.5828 C.3     
 106 C106          12.0957     5.5512    -2.0180 C.3     
 107 C107          -4.9975    -0.4439     5.2061 C.3     
 108 C108           8.0355    -7.9527    -0.2403 C.2     
 109 C109          -0.6897    -4.3942     0.0435 C.ar    
 110 C110          -2.9415    -5.1099     0.4422 C.ar    
 111 C111          -3.0912    -1.6839     6.2216 C.2     
 112 C112          -2.1544     0.7516    -6.1760 C.3     
 113 C113          11.1335     5.3880     2.1154 C.2     
 114 C114          11.6117     6.9512    -2.4008 C.3     
 115 C115          -3.3877    -2.4281     8.5465 C.3     
 116 C116          11.8450     6.4705     2.8767 C.3     
 117 C117          10.5022    -8.6580     6.0614 C.3     
 118 C118          -0.6211    -5.2179    -1.0634 C.ar    
 119 C119          -2.8779    -5.9352    -0.6638 C.ar    
 120 C120          11.9925    -8.9392     6.2709 C.3     
 121 C121          10.3209    -4.8418     5.7766 C.3     
 122 C122          -1.7171    -5.9893    -1.4217 C.ar    
 123 C123          -5.3904     0.4829     4.0846 C.2     
 124 C124          11.2224    -3.8878     4.9932 C.3     
 125 C125          12.2963   -10.3896     5.8905 C.3     
 126 C126          -3.4491    -3.8592     8.0424 C.3     
 127 C127           8.0799    10.2103     7.7615 C.3     
 128 C128          -2.0729    -2.1170     9.2090 C.2     
 129 C129           8.3196    11.3917     6.8161 C.3     
 130 C130          10.6801    -6.2736     5.4763 C.2     
 131 C131           2.2461   -11.1602     7.3669 C.3     
 132 C132          13.3573     6.2538     2.8098 C.3     
 133 C133           3.8628     7.1483    11.6288 C.3     
 134 C134           3.1748   -10.1637     8.0608 C.3     
 135 C135           5.0483     6.2772    12.0546 C.3     
 136 C136           9.7032    -9.4626     7.0583 C.2     
 137 C137          -0.8819    -1.3017    11.1781 C.3     
 138 C138           7.1351    12.3569     6.8954 C.3     
 139 C139           2.9027   -10.1763     9.5664 C.3     
 140 C140           5.4655     5.3785    10.8888 C.3     
 141 C141          13.7602   -10.7037     6.2055 C.3     
 142 C142           7.7615   -10.7222     7.7573 C.3     
 143 C143           7.3746    13.5368     5.9512 C.3     
 144 C144          10.9801     7.6349     4.8315 C.2     
 145 C145           9.1962     9.2112     7.5987 C.2     
 146 C146           3.7469    -9.0964    10.2462 C.3     
 147 C147           6.7180     4.5895    11.2758 C.3     
 148 C148          10.5354     7.6732     6.2682 C.3     
 149 C149           0.8165   -10.7213     7.5847 C.2     
 150 C150           2.3222    -3.3932    10.9970 C.3     
 151 C151          -1.3178    -0.5775    12.4522 C.3     
 152 C152           0.1666    -2.3313    11.5202 C.2     
 153 C153           4.2933     8.0439    10.4945 C.2     
 154 C154           9.3407    -4.1741     9.4097 C.3     
 155 C155           9.2978    -4.5875     7.9620 C.2     
 156 C156          -0.8998    -8.9821     7.6116 C.3     
 157 C157           5.8353     9.6615     9.5286 C.3     
 158 C158           7.0308    10.4642     9.9695 C.2     
 159 C159           1.8725    -4.8118    10.6394 C.3     
 160 C160          -0.7891    -7.5442     8.1272 C.3     
 161 C161           6.8622   -11.7727     7.1719 C.2     
 162 C162           6.1901    14.5019     6.0305 C.3     
 163 C163           6.9291    -9.7085     8.5454 C.3     
 164 C164           1.0786     4.5148    11.5485 C.3     
 165 C165           3.3818    -9.0226    11.7302 C.3     
 166 C166           7.1352     3.6908    10.1100 C.3     
 167 C167           2.0868     5.5169    12.0494 C.2     
 168 C168           3.6020   -11.8139     5.4112 C.2     
 169 C169           4.6939   -12.4147     6.2482 C.3     
 170 C170           3.5033    -3.0099    10.1430 C.2     
 171 C171           9.3052    -5.4032    10.3172 C.3     
 172 C172           0.9512     3.3674    12.5545 C.3     
 173 C173          -1.7977    -9.0107     6.4019 C.2     
 174 C174           5.8672    -2.5884     9.7969 C.3     
 175 C175           0.5753    -5.1380    11.3822 C.3     
 176 C176           6.9312    -3.6419     9.5891 C.2     
 177 C177          15.3122   -12.6044     6.0350 C.2     
 178 H178           2.1380    -0.8334    -1.7934 H       
 179 H179           3.3780     0.2361    -3.8880 H       
 180 H180           2.0579    -0.5412    -4.7943 H       
 181 H181           0.3830     0.6330    -3.4715 H       
 182 H182           6.1622    -2.5899    -3.0505 H       
 183 H183           3.6799    -2.7533    -3.3840 H       
 184 H184           5.4986    -3.5253    -0.2258 H       
 185 H185           4.8451    -4.2527    -1.7131 H       
 186 H186           0.4941    -0.9029    -0.9370 H       
 187 H187           2.7710     1.7256    -1.9163 H       
 188 H188           1.0844     2.2550    -1.7080 H       
 189 H189           1.5497     0.5854    -1.3028 H       
 190 H190           1.2941     1.8859    -5.3680 H       
 191 H191           0.9907     3.0076    -4.0197 H       
 192 H192           2.6496     2.4666    -4.3713 H       
 193 H193          -0.7079    -2.7924    -2.8292 H       
 194 H194           7.1488    -4.7603    -2.4772 H       
 195 H195           7.8023    -4.0329    -0.9899 H       
 196 H196          -1.8221     0.4334    -1.6454 H       
 197 H197          -0.1865     0.8774    -2.1893 H       
 198 H198           6.7104    -0.9678    -0.6764 H       
 199 H199           5.9171    -6.4299    -1.1193 H       
 200 H200           6.5707    -5.7025     0.3680 H       
 201 H201          -3.3839    -2.1610     1.0634 H       
 202 H202           9.1649    -0.6349    -0.1730 H       
 203 H203          -0.8124    -0.7945     1.0370 H       
 204 H204          -2.1499    -0.9521    -3.6414 H       
 205 H205          -0.4781    -0.6388    -4.1662 H       
 206 H206          -0.9290    -3.3413     2.4412 H       
 207 H207          -2.6031    -3.8698     2.7349 H       
 208 H208          10.7228    -1.9487    -2.3147 H       
 209 H209           9.9840     1.1233    -1.8011 H       
 210 H210           8.2138     0.9376    -1.7826 H       
 211 H211          12.7194    -0.6159     1.0140 H       
 212 H212          10.1059     3.3340     0.8161 H       
 213 H213           8.7334    -6.3689    -1.3216 H       
 214 H214          12.9609     3.7237    -0.1898 H       
 215 H215          11.6457     3.0063    -1.1511 H       
 216 H216          -2.9109     0.0480     4.9868 H       
 217 H217          -3.8734    -2.4689     3.7325 H       
 218 H218          10.3205     5.0857    -0.8898 H       
 219 H219          11.6356     5.8031     0.0714 H       
 220 H220          11.2931     1.1503    -0.6525 H       
 221 H221          10.1778    -1.8975     1.1705 H       
 222 H222           9.9652    -0.2445     1.7953 H       
 223 H223          13.1739     5.5702    -1.8594 H       
 224 H224          11.8588     4.8528    -2.8206 H       
 225 H225          12.2230     3.7982     2.6994 H       
 226 H226          -5.6235    -1.3357     5.1768 H       
 227 H227          -5.1327     0.0637     6.1612 H       
 228 H228           0.1631    -3.7933     0.3225 H       
 229 H229          -3.8448    -5.0678     1.0327 H       
 230 H230          -1.2053     0.4444    -6.6153 H       
 231 H231          -2.8478    -0.0894    -6.1844 H       
 232 H232          -2.5738     1.5740    -6.7557 H       
 233 H233           9.0869     0.9237    -4.0059 H       
 234 H234          11.8486     7.6496    -1.5981 H       
 235 H235          10.5335     6.9322    -2.5594 H       
 236 H236          -4.1832    -2.2809     9.2816 H       
 237 H237          11.6061     7.4365     2.4200 H       
 238 H238          -4.1102    -0.6702     7.6357 H       
 239 H239          10.2102    -8.9295     5.0505 H       
 240 H240           0.2850    -5.2611    -1.6496 H       
 241 H241          -3.7310    -6.5381    -0.9380 H       
 242 H242          12.5804    -8.2684     5.6444 H       
 243 H243          12.2492    -8.7767     7.3177 H       
 244 H244           9.2812    -4.6719     5.4771 H       
 245 H245          11.8832    -4.4603     4.3420 H       
 246 H246          11.8133    -3.2877     5.6839 H       
 247 H247          11.6506   -11.0576     6.4605 H       
 248 H248          12.1155   -10.5313     4.8249 H       
 249 H249          -3.6945    -3.8751     6.9801 H       
 250 H250          -4.2397    -4.3948     8.5787 H       
 251 H251           9.6986    -6.9939     7.0721 H       
 252 H252           7.1321     9.7372     7.5171 H       
 253 H253           9.9312    -8.3761    -0.8663 H       
 254 H254           9.2153    -9.5935     0.0437 H       
 255 H255           9.2321    11.9115     7.1083 H       
 256 H256           8.4217    11.0249     5.7948 H       
 257 H257           2.3846   -12.1527     7.7953 H       
 258 H258          13.6087     5.3005     3.2746 H       
 259 H259          13.6775     6.2456     1.7679 H       
 260 H260          13.8638     7.0609     3.3391 H       
 261 H261          11.4268     5.6673     4.7989 H       
 262 H262           3.5339     7.7541    12.4700 H       
 263 H263           4.2117   -10.4445     7.8766 H       
 264 H264           2.9937    -9.1635     7.6672 H       
 265 H265           5.8848     6.9157    12.3386 H       
 266 H266           4.7583     5.6590    12.9042 H       
 267 H267          -0.4426    -0.5722    10.4872 H       
 268 H268           6.2227    11.8371     6.6031 H       
 269 H269           7.0331    12.7237     7.9167 H       
 270 H270           1.8461    -9.9784     9.7464 H       
 271 H271           3.1642   -11.1525     9.9747 H       
 272 H272           7.0587    -9.2868     0.8414 H       
 273 H273           4.6568     4.6854    10.6568 H       
 274 H274           5.6792     5.9933    10.0144 H       
 275 H275          -2.7767    -2.2485    11.0878 H       
 276 H276          11.2964    -4.4208     7.6300 H       
 277 H277          12.1296     6.7141    -4.3792 H       
 278 H278          11.9779     8.3025    -3.9102 H       
 279 H279          13.9410   -10.5621     7.2711 H       
 280 H280          14.4059   -10.0357     5.6355 H       
 281 H281           8.4651   -11.2067     8.4413 H       
 282 H282           8.1867    -9.9696     5.8096 H       
 283 H283           8.2870    14.0566     6.2434 H       
 284 H284           7.4766    13.1699     4.9299 H       
 285 H285           4.8036    -9.3433    10.1439 H       
 286 H286           3.5517    -8.1328     9.7756 H       
 287 H287           7.5267     5.2826    11.5078 H       
 288 H288           6.5043     3.9747    12.1502 H       
 289 H289           8.8240    11.2094     9.4736 H       
 290 H290          11.3614     8.0196     6.8911 H       
 291 H291          10.2440     6.6716     6.5846 H       
 292 H292           2.5954    -3.3583    12.0501 H       
 293 H293          -1.5319    -1.3066    13.2340 H       
 294 H294          -2.2156     0.0057    12.2500 H       
 295 H295           1.9047   -10.7570     5.3224 H       
 296 H296           2.5203     6.2886    10.2399 H       
 297 H297          10.2797    -3.6333     9.5924 H       
 298 H298          -1.3210    -9.6138     8.3922 H       
 299 H299           8.7882     8.7259     5.6789 H       
 300 H300           1.3060    -1.8684     9.9359 H       
 301 H301           1.0294    -8.9033     6.7397 H       
 302 H302           6.1393     8.9255     8.7841 H       
 303 H303           5.0834    10.3267     9.1061 H       
 304 H304           2.6462    -5.5224    10.9301 H       
 305 H305           0.0854    -7.0693     7.6816 H       
 306 H306          -0.6862    -7.5530     9.2109 H       
 307 H307           6.0880    14.8688     7.0518 H       
 308 H308           5.2777    13.9821     5.7383 H       
 309 H309           5.5882     9.1502    11.5755 H       
 310 H310           7.5881    -8.9571     8.9804 H       
 311 H311           6.3887   -10.2219     9.3407 H       
 312 H312          -1.3360    -7.6935    -2.3168 H       
 313 H313           0.1106     5.0023    11.4300 H       
 314 H314           3.4918   -10.0089    12.1809 H       
 315 H315           2.3494    -8.6887    11.8341 H       
 316 H316           7.3488     4.3056     9.2357 H       
 317 H317           6.3265     2.9978     9.8781 H       
 318 H318          -6.8458     1.5573     3.2829 H       
 319 H319           5.1300   -13.2610     5.7128 H       
 320 H320           4.2842   -12.7590     7.1957 H       
 321 H321          13.3538   -12.6510     5.4633 H       
 322 H322           5.6369   -10.5226     6.1765 H       
 323 H323          10.0942    -6.0951    10.0227 H       
 324 H324           8.3370    -5.8954    10.2245 H       
 325 H325           8.4184    -2.3621     9.9882 H       
 326 H326           0.7651     3.7737    13.5485 H       
 327 H327           1.8746     2.7893    12.5624 H       
 328 H328           5.4884    -2.2744     8.8240 H       
 329 H329           6.3062    -1.7359    10.3151 H       
 330 H330          -0.1984    -4.4274    11.0915 H       
 331 H331           0.2550    -6.1483    11.1275 H       
 332 H332           0.7452    -5.0708    12.4568 H       
 333 H333           4.9427    -3.5583    11.4434 H       
 334 H334           5.6510    16.2871     5.1581 H       
 335 H335           7.2935    16.0943     5.3338 H       
 336 H336           1.6031     4.7085     9.5676 H       
 337 H337           2.3758     3.4598    10.3482 H       
 338 H338           4.1760    -7.1456    12.0209 H       
 339 H339           4.1098    -8.0684    13.4029 H       
 340 H340           8.6335     2.3317     9.7276 H       
 341 H341           9.0826     3.5529    10.7635 H       
 342 H342           2.4315    -4.7051     8.6958 H       
 343 H343           5.3914    -8.4637     8.1125 H       
 344 H344           9.4963    -5.7308    12.3065 H       
 345 H345          -3.7145    -9.0119     5.7771 H       
 346 H346          -3.5221    -8.9628     7.4454 H       
 347 H347          16.1079   -10.8932     6.8119 H       
 348 H348          17.1903   -12.1739     6.7074 H       
 349 H349          16.4608   -14.2012     5.8476 H       
@<TRIPOS>BOND
   1    1   93 1
   2    1  112 1
   3    2    3 1
   4    2  105 1
   5    3  124 1
   6    4    5 1
   7    4  126 1
   8    5  160 1
   9    6    7 1
  10    6  151 1
  11    7  172 1
  12    8   80 2
  13    9   83 2
  14   10   88 2
  15   11   91 2
  16   12   96 1
  17   12  233 1
  18   13   95 2
  19   14  100 2
  20   15  104 2
  21   16  111 2
  22   17  113 2
  23   18  122 1
  24   18  312 1
  25   19  123 1
  26   19  318 1
  27   20  123 2
  28   21  128 2
  29   22  130 2
  30   23  136 2
  31   24  144 2
  32   25  145 2
  33   26  149 2
  34   27  153 2
  35   28  152 2
  36   29  155 2
  37   30  342 1
  38   30  159 1
  39   31  163 1
  40   31  343 1
  41   32  158 2
  42   33  161 2
  43   34  167 2
  44   35  171 1
  45   35  344 1
  46   36  168 2
  47   37  170 2
  48   38  173 2
  49   39  176 2
  50   40   76 1
  51   40   83 am
  52   40  183 1
  53   41   80 am
  54   41   82 1
  55   41  193 1
  56   42   79 1
  57   42   91 am
  58   42  198 1
  59   43   88 am
  60   43   90 1
  61   43  203 1
  62   44   92 1
  63   44  100 am
  64   44  208 1
  65   45   89 1
  66   45  108 1
  67   45  213 1
  68   46   95 am
  69   46  102 1
  70   46  217 1
  71   47   97 1
  72   47  104 am
  73   47  220 1
  74   48   98 1
  75   48  113 am
  76   48  225 1
  77   49  111 am
  78   49  115 1
  79   49  238 1
  80   50  117 1
  81   50  130 am
  82   50  251 1
  83   51  108 1
  84   51  253 1
  85   51  254 1
  86   52  116 1
  87   52  144 am
  88   52  261 1
  89   53  108 2
  90   53  272 1
  91   54  128 am
  92   54  137 1
  93   54  275 1
  94   55  121 1
  95   55  155 am
  96   55  276 1
  97   56  114 1
  98   56  277 1
  99   56  278 1
 100   57  136 am
 101   57  142 1
 102   57  282 1
 103   58  127 1
 104   58  158 am
 105   58  289 1
 106   59  131 1
 107   59  168 am
 108   59  295 1
 109   60  133 1
 110   60  167 am
 111   60  296 1
 112   61  145 am
 113   61  148 1
 114   61  299 1
 115   62  150 1
 116   62  152 am
 117   62  300 1
 118   63  149 am
 119   63  156 1
 120   63  301 1
 121   64  153 am
 122   64  157 1
 123   64  309 1
 124   65  141 1
 125   65  177 1
 126   65  321 1
 127   66  161 am
 128   66  169 1
 129   66  322 1
 130   67  154 1
 131   67  176 am
 132   67  325 1
 133   68  170 am
 134   68  174 1
 135   68  333 1
 136   69  162 1
 137   69  334 1
 138   69  335 1
 139   70  336 1
 140   70  337 1
 141   70  164 1
 142   71  165 1
 143   71  338 1
 144   71  339 1
 145   72  166 1
 146   72  340 1
 147   72  341 1
 148   73  173 am
 149   73  345 1
 150   73  346 1
 151   74  177 1
 152   74  347 1
 153   74  348 1
 154   75  177 2
 155   75  349 1
 156   76   77 1
 157   76   80 1
 158   76  178 1
 159   77   78 1
 160   77  179 1
 161   77  180 1
 162   78   84 1
 163   78   85 1
 164   78  181 1
 165   79   81 1
 166   79   83 1
 167   79  182 1
 168   81   86 1
 169   81  184 1
 170   81  185 1
 171   82   87 1
 172   82   88 1
 173   82  186 1
 174   84  187 1
 175   84  188 1
 176   84  189 1
 177   85  190 1
 178   85  191 1
 179   85  192 1
 180   86   89 1
 181   86  194 1
 182   86  195 1
 183   87   93 1
 184   87  196 1
 185   87  197 1
 186   89  199 1
 187   89  200 1
 188   90   94 1
 189   90   95 1
 190   90  201 1
 191   91   92 1
 192   92   96 1
 193   92  202 1
 194   93  204 1
 195   93  205 1
 196   94  101 1
 197   94  206 1
 198   94  207 1
 199   96  209 1
 200   96  210 1
 201   97  100 1
 202   97  105 1
 203   97  211 1
 204   98   99 1
 205   98  104 1
 206   98  212 1
 207   99  103 1
 208   99  214 1
 209   99  215 1
 210  101  109 ar
 211  101  110 ar
 212  102  107 1
 213  102  111 1
 214  102  216 1
 215  103  106 1
 216  103  218 1
 217  103  219 1
 218  105  221 1
 219  105  222 1
 220  106  114 1
 221  106  223 1
 222  106  224 1
 223  107  123 1
 224  107  226 1
 225  107  227 1
 226  109  118 ar
 227  109  228 1
 228  110  119 ar
 229  110  229 1
 230  112  230 1
 231  112  231 1
 232  112  232 1
 233  113  116 1
 234  114  234 1
 235  114  235 1
 236  115  126 1
 237  115  128 1
 238  115  236 1
 239  116  132 1
 240  116  237 1
 241  117  120 1
 242  117  136 1
 243  117  239 1
 244  118  122 ar
 245  118  240 1
 246  119  122 ar
 247  119  241 1
 248  120  125 1
 249  120  242 1
 250  120  243 1
 251  121  124 1
 252  121  130 1
 253  121  244 1
 254  124  245 1
 255  124  246 1
 256  125  141 1
 257  125  247 1
 258  125  248 1
 259  126  249 1
 260  126  250 1
 261  127  129 1
 262  127  145 1
 263  127  252 1
 264  129  138 1
 265  129  255 1
 266  129  256 1
 267  131  134 1
 268  131  149 1
 269  131  257 1
 270  132  258 1
 271  132  259 1
 272  132  260 1
 273  133  135 1
 274  133  153 1
 275  133  262 1
 276  134  139 1
 277  134  263 1
 278  134  264 1
 279  135  140 1
 280  135  265 1
 281  135  266 1
 282  137  151 1
 283  137  152 1
 284  137  267 1
 285  138  143 1
 286  138  268 1
 287  138  269 1
 288  139  146 1
 289  139  270 1
 290  139  271 1
 291  140  147 1
 292  140  273 1
 293  140  274 1
 294  141  279 1
 295  141  280 1
 296  142  161 1
 297  142  163 1
 298  142  281 1
 299  143  162 1
 300  143  283 1
 301  143  284 1
 302  144  148 1
 303  146  165 1
 304  146  285 1
 305  146  286 1
 306  147  166 1
 307  147  287 1
 308  147  288 1
 309  148  290 1
 310  148  291 1
 311  150  159 1
 312  150  170 1
 313  150  292 1
 314  151  293 1
 315  151  294 1
 316  154  155 1
 317  154  171 1
 318  154  297 1
 319  156  160 1
 320  156  173 1
 321  156  298 1
 322  157  158 1
 323  157  302 1
 324  157  303 1
 325  159  175 1
 326  159  304 1
 327  160  305 1
 328  160  306 1
 329  162  307 1
 330  162  308 1
 331  163  310 1
 332  163  311 1
 333  164  167 1
 334  164  172 1
 335  164  313 1
 336  165  314 1
 337  165  315 1
 338  166  316 1
 339  166  317 1
 340  168  169 1
 341  169  319 1
 342  169  320 1
 343  171  323 1
 344  171  324 1
 345  172  326 1
 346  172  327 1
 347  174  176 1
 348  174  328 1
 349  174  329 1
 350  175  330 1
 351  175  331 1
 352  175  332 1

#	End of record

