#	Name: ASD11920014
#	Creating user name:	WinNT
#	Creation time:	15. 06. 2019 21:29

#	Modifying user name:	WinNT
#	Modification time:	15. 06. 2019 21:29

#	Program:	/corina/corina34_cracker 3.40 0067  02.08.2006

@<TRIPOS>MOLECULE
ASD11920014
  24   25    0    0    0
SMALL
NO_CHARGES


@<TRIPOS>ATOM
   1 C1            -0.0144     1.2123     0.0087 C.2     
   2 N2             3.4129     2.4725    -0.0177 N.pl3   
   3 O3             0.0021    -0.0041     0.0020 O.2     
   4 C4             1.2431     1.9613     0.0007 C.2     
   5 N5             2.6596     3.6527    -0.0045 N.2     
   6 O6            -1.1917     1.8709     0.0179 O.3     
   7 C7             2.5439     1.4192    -0.0146 C.2     
   8 C8             3.0282     0.1051    -0.0255 C.2     
   9 C9             4.3760    -0.1089    -0.0392 C.2     
  10 C10            5.2469     0.9891    -0.0421 C.2     
  11 C11            4.7566     2.2490    -0.0264 C.2     
  12 C12            1.3857     3.3605     0.0064 C.2     
  13 C13           -2.3986     1.0636     0.0192 C.3     
  14 C14           -3.6245     1.9790     0.0300 C.3     
  15 H15            2.3428    -0.7295    -0.0228 H       
  16 H16            4.7679    -1.1152    -0.0474 H       
  17 H17            6.3147     0.8280    -0.0529 H       
  18 H18            5.4376     3.0872    -0.0237 H       
  19 H19            0.5762     4.0754     0.0178 H       
  20 H20           -2.4192     0.4393    -0.8741 H       
  21 H21           -2.4107     0.4296     0.9058 H       
  22 H22           -3.6039     2.6032     0.9233 H       
  23 H23           -3.6124     2.6129    -0.8566 H       
  24 H24           -4.5305     1.3730     0.0310 H       
@<TRIPOS>BOND
   1    1    3 2
   2    1    4 1
   3    1    6 1
   4    2    5 1
   5    2    7 1
   6    2   11 1
   7    4    7 2
   8    4   12 1
   9    5   12 2
  10    6   13 1
  11    7    8 1
  12    8    9 2
  13    8   15 1
  14    9   10 1
  15    9   16 1
  16   10   11 2
  17   10   17 1
  18   11   18 1
  19   12   19 1
  20   13   14 1
  21   13   20 1
  22   13   21 1
  23   14   22 1
  24   14   23 1
  25   14   24 1

#	End of record

