#	Name: ASD16660001
#	Creating user name:	WinNT
#	Creation time:	15. 06. 2019 21:31

#	Modifying user name:	WinNT
#	Modification time:	15. 06. 2019 21:31

#	Program:	/corina/corina34_cracker 3.40 0067  02.08.2006

@<TRIPOS>MOLECULE
ASD16660001
  55   59    0    0    0
SMALL
NO_CHARGES


@<TRIPOS>ATOM
   1 C1             0.2488     1.1844     0.2291 C.ar    
   2 C2            -4.1910     1.0046     1.4689 C.ar    
   3 C3             1.4430     1.8805     0.2404 C.ar    
   4 C4             1.4415     3.2587     0.1299 C.ar    
   5 C5             1.5808    -0.9975     0.6837 C.3     
   6 C6             0.2460     3.9411     0.0085 C.ar    
   7 C7            -0.9498     3.2449    -0.0028 C.ar    
   8 C8             0.2513    -0.3177     0.3501 C.3     
   9 C9             0.9962    -1.1122    -0.7256 C.3     
  10 C10           -0.9479     1.8664     0.1126 C.ar    
  11 C11           -2.7965     1.0555    -1.3277 C.3     
  12 C12           -4.3241    -0.3288     1.0696 C.ar    
  13 C13           -5.3127    -1.1164     1.5729 C.ar    
  14 C14           -6.2192    -0.5904     2.5094 C.ar    
  15 C15           -6.0847     0.7621     2.9148 C.ar    
  16 C16           -5.0500     1.5486     2.3812 C.ar    
  17 C17           -2.2497     1.1073     0.1004 C.3     
  18 C18           -6.9899     1.2897     3.8507 C.ar    
  19 C19           -7.9868     0.4491     4.3406 C.ar    
  20 C20           -8.0524    -0.8830     3.8870 C.ar    
  21 C21           -8.9616     0.9477     5.3226 C.2     
  22 C22           -9.8562     0.1012     5.8752 C.2     
  23 C23          -10.8251     0.5966     6.8512 C.2     
  24 C24           -6.8852     2.7209     4.3110 C.3     
  25 C25           -6.6293     2.9675     5.7991 C.3     
  26 C26           -5.5148     3.2137     4.7801 C.3     
  27 N27           -7.2014    -1.3490     3.0108 N.ar    
  28 O28           -3.1931     1.7658     0.9480 O.3     
  29 O29          -11.7192    -0.2494     7.4034 O.3     
  30 O30          -10.8251     1.7716     7.1655 O.2     
  31 Cl31          -2.4524     4.1020    -0.1485 Cl      
  32 H32            2.3775     1.3476     0.3359 H       
  33 H33            2.3748     3.8020     0.1387 H       
  34 H34            2.4536    -0.3582     0.8160 H       
  35 H35            1.5476    -1.8847     1.3160 H       
  36 H36            0.2449     5.0177    -0.0771 H       
  37 H37           -0.6568    -0.7576     0.7624 H       
  38 H38            1.4842    -0.5482    -1.5204 H       
  39 H39            0.5782    -2.0747    -1.0203 H       
  40 H40           -2.9639     2.0699    -1.6897 H       
  41 H41           -2.0769     0.5532    -1.9742 H       
  42 H42           -3.7380     0.5065    -1.3366 H       
  43 H43           -3.6315    -0.7398     0.3501 H       
  44 H44           -5.4010    -2.1441     1.2530 H       
  45 H45           -4.9397     2.5794     2.6839 H       
  46 H46           -2.0823     0.0929     0.4623 H       
  47 H47           -8.8263    -1.5327     4.2683 H       
  48 H48           -8.9616     1.9910     5.6017 H       
  49 H49           -9.8562    -0.9422     5.5961 H       
  50 H50           -7.5231     3.4315     3.7855 H       
  51 H51           -7.0985     3.8406     6.2526 H       
  52 H52           -6.5370     2.0946     6.4453 H       
  53 H53           -4.6890     2.5027     4.7559 H       
  54 H54           -5.2509     4.2487     4.5632 H       
  55 H55          -12.3179     0.1696     8.0368 H       
@<TRIPOS>BOND
   1    1    8 1
   2    1    3 ar
   3    1   10 ar
   4    2   28 1
   5    2   12 ar
   6    2   16 ar
   7    3   32 1
   8    3    4 ar
   9    4   33 1
  10    4    6 ar
  11    5   34 1
  12    5   35 1
  13    5    8 1
  14    5    9 1
  15    6   36 1
  16    6    7 ar
  17    7   10 ar
  18    7   31 1
  19    8    9 1
  20    8   37 1
  21    9   38 1
  22    9   39 1
  23   10   17 1
  24   11   40 1
  25   11   41 1
  26   11   42 1
  27   11   17 1
  28   12   43 1
  29   12   13 ar
  30   13   44 1
  31   13   14 ar
  32   14   15 ar
  33   14   27 ar
  34   15   16 ar
  35   15   18 ar
  36   16   45 1
  37   17   46 1
  38   17   28 1
  39   18   24 1
  40   18   19 ar
  41   19   20 ar
  42   19   21 1
  43   20   27 ar
  44   20   47 1
  45   21   48 1
  46   21   22 2
  47   22   49 1
  48   22   23 1
  49   23   29 1
  50   23   30 2
  51   24   25 1
  52   24   50 1
  53   24   26 1
  54   25   51 1
  55   25   52 1
  56   25   26 1
  57   26   53 1
  58   26   54 1
  59   29   55 1

#	End of record

