#	Name: ASD10800042
#	Creating user name:	WinNT
#	Creation time:	15. 06. 2019 21:28

#	Modifying user name:	WinNT
#	Modification time:	15. 06. 2019 21:28

#	Program:	/corina/corina34_cracker 3.40 0067  02.08.2006

@<TRIPOS>MOLECULE
ASD10800042
  50   53    0    0    0
SMALL
NO_CHARGES


@<TRIPOS>ATOM
   1 C1             0.0234     1.2266     0.2039 C.ar    
   2 C2             0.1066    -0.1314     0.4273 C.ar    
   3 C3             1.3431    -0.7475     0.5010 C.ar    
   4 C4             2.4958     0.0008     0.3494 C.ar    
   5 C5             2.4181     1.3602     0.1278 C.ar    
   6 C6             1.1764     1.9888     0.0558 C.ar    
   7 C7             3.6797     2.1681    -0.0359 C.3     
   8 C8             4.0845     2.7611     1.3152 C.3     
   9 N9             4.7531     1.3025    -0.5306 N.pl3   
  10 C10            5.2741     3.6674     1.1298 C.ar    
  11 C11            5.0848     5.0096     0.8584 C.ar    
  12 C12            6.5546     3.1578     1.2368 C.ar    
  13 C13            7.6458     3.9893     1.0667 C.ar    
  14 C14            7.4565     5.3302     0.7892 C.ar    
  15 C15            6.1760     5.8410     0.6883 C.ar    
  16 C16            9.0418     3.4339     1.1843 C.3     
  17 C17            5.9695     7.3028     0.3859 C.3     
  18 C18            4.9006     1.0939    -1.8824 C.2     
  19 N19            5.8560     0.4291    -2.4255 N.2     
  20 S20            3.7991     1.6946    -3.1274 S.3     
  21 C21            4.7159     0.9884    -4.5348 C.3     
  22 C22            5.9020     0.2791    -3.8629 C.3     
  23 N23            0.8617     3.3385    -0.1449 N.3     
  24 C24           -0.5516     3.4157    -0.5747 C.3     
  25 C25           -1.1693     2.1516     0.0657 C.3     
  26 H26           -0.7945    -0.7148     0.5453 H       
  27 H27            1.4079    -1.8111     0.6769 H       
  28 H28            3.4609    -0.4807     0.4051 H       
  29 H29            3.5051     2.9740    -0.7487 H       
  30 H30            3.2521     3.3332     1.7249 H       
  31 H31            4.3448     1.9558     2.0021 H       
  32 H32            5.3598     0.8765     0.0949 H       
  33 H33            4.0843     5.4086     0.7789 H       
  34 H34            6.7025     2.1102     1.4535 H       
  35 H35            8.3090     5.9798     0.6568 H       
  36 H36            9.3803     3.0917     0.2063 H       
  37 H37            9.7127     4.2116     1.5493 H       
  38 H38            9.0422     2.5967     1.8823 H       
  39 H39            5.9158     7.4466    -0.6933 H       
  40 H40            5.0402     7.6410     0.8441 H       
  41 H41            6.8033     7.8783     0.7880 H       
  42 H42            4.0982     0.2708    -5.0749 H       
  43 H43            5.0635     1.7771    -5.2020 H       
  44 H44            6.8323     0.7074    -4.2360 H       
  45 H45            5.8730    -0.7812    -4.1139 H       
  46 H46            1.0135     3.8742     0.6965 H       
  47 H47           -1.0252     4.3172    -0.1860 H       
  48 H48           -0.6280     3.3752    -1.6612 H       
  49 H49           -1.9223     1.7152    -0.5905 H       
  50 H50           -1.5941     2.3822     1.0427 H       
@<TRIPOS>BOND
   1    1    2 ar
   2    1    6 ar
   3    1   25 1
   4    2    3 ar
   5    2   26 1
   6    3    4 ar
   7    3   27 1
   8    4    5 ar
   9    4   28 1
  10    5    6 ar
  11    5    7 1
  12    6   23 1
  13    7    8 1
  14    7    9 1
  15    7   29 1
  16    8   10 1
  17    8   30 1
  18    8   31 1
  19    9   18 1
  20    9   32 1
  21   10   11 ar
  22   10   12 ar
  23   11   15 ar
  24   11   33 1
  25   12   13 ar
  26   12   34 1
  27   13   14 ar
  28   13   16 1
  29   14   15 ar
  30   14   35 1
  31   15   17 1
  32   16   36 1
  33   16   37 1
  34   16   38 1
  35   17   39 1
  36   17   40 1
  37   17   41 1
  38   18   19 2
  39   18   20 1
  40   19   22 1
  41   20   21 1
  42   21   22 1
  43   21   42 1
  44   21   43 1
  45   22   44 1
  46   22   45 1
  47   23   24 1
  48   23   46 1
  49   24   25 1
  50   24   47 1
  51   24   48 1
  52   25   49 1
  53   25   50 1

#	End of record

