#	Name: ASD10160334
#	Creating user name:	WinNT
#	Creation time:	15. 06. 2019 21:25

#	Modifying user name:	WinNT
#	Modification time:	15. 06. 2019 21:25

#	Program:	/corina/corina34_cracker 3.40 0067  02.08.2006

@<TRIPOS>MOLECULE
ASD10160334
  23   23    0    0    0
SMALL
NO_CHARGES


@<TRIPOS>ATOM
   1 C1            -0.0167     1.3793     0.0096 C.ar    
   2 C2             0.0021    -0.0041     0.0020 C.ar    
   3 C3             1.2229    -0.6630    -0.0132 C.ar    
   4 C4             2.3826     0.0969    -0.0203 C.ar    
   5 C5             2.2849     1.4753    -0.0119 C.ar    
   6 N6             1.1072     2.0686     0.0026 N.ar    
   7 C7            -1.3366     2.1064     0.0198 C.3     
   8 C8            -1.0873     3.6159     0.0268 C.3     
   9 C9            -0.4089     4.0269    -1.2815 C.3     
  10 C10           -2.4214     4.3526     0.1629 C.3     
  11 F11           -2.0687     1.7600    -1.1209 F       
  12 F12           -2.0579     1.7476     1.1636 F       
  13 Cl13          -1.4826    -0.9037     0.0120 Cl      
  14 H14            1.2688    -1.7420    -0.0191 H       
  15 H15            3.3503    -0.3825    -0.0318 H       
  16 H16            3.1838     2.0739    -0.0170 H       
  17 H17           -0.4425     3.8738     0.8670 H       
  18 H18           -0.2312     5.1023    -1.2765 H       
  19 H19            0.5415     3.5021    -1.3784 H       
  20 H20           -1.0536     3.7690    -2.1217 H       
  21 H21           -2.9047     4.0598     1.0950 H       
  22 H22           -2.2437     5.4280     0.1679 H       
  23 H23           -3.0661     4.0947    -0.6773 H       
@<TRIPOS>BOND
   1    1    2 ar
   2    1    6 ar
   3    1    7 1
   4    2    3 ar
   5    2   13 1
   6    3    4 ar
   7    3   14 1
   8    4    5 ar
   9    4   15 1
  10    5    6 ar
  11    5   16 1
  12    7    8 1
  13    7   11 1
  14    7   12 1
  15    8    9 1
  16    8   10 1
  17    8   17 1
  18    9   18 1
  19    9   19 1
  20    9   20 1
  21   10   21 1
  22   10   22 1
  23   10   23 1

#	End of record

