#	Name: ASD13240001
#	Creating user name:	WinNT
#	Creation time:	15. 06. 2019 21:30

#	Modifying user name:	WinNT
#	Modification time:	15. 06. 2019 21:30

#	Program:	/corina/corina34_cracker 3.40 0067  02.08.2006

@<TRIPOS>MOLECULE
ASD13240001
  26   26    0    0    0
SMALL
NO_CHARGES


@<TRIPOS>ATOM
   1 C1            -0.0183     1.4949     0.0103 C.3     
   2 C2             0.0021    -0.0041     0.0020 C.2     
   3 C3             1.0428    -0.6960     0.3537 C.2     
   4 C4             2.3258    -0.0635     0.8023 C.3     
   5 C5             2.4129     1.3637     0.3517 C.2     
   6 C6             1.3720     2.0557    -0.0000 C.2     
   7 O7             2.3970    -0.1095     2.2288 O.3     
   8 C8            -0.7692     1.9931    -1.2262 C.3     
   9 C9            -0.7345     1.9724     1.2472 C.2     
  10 O10           -0.2682     1.6429     2.4620 O.3     
  11 O11           -1.7284     2.6519     1.1455 O.2     
  12 C12           -0.7942     3.4999    -1.2255 C.2     
  13 C13           -1.4710     4.2346    -2.3319 C.2     
  14 O14           -0.2658     4.1122    -0.3284 O.2     
  15 O15           -2.0015     3.6198    -3.2325 O.2     
  16 O16           -1.4933     5.5803    -2.3312 O.3     
  17 H17           -0.8876    -0.5311    -0.3096 H       
  18 H18            0.9815    -1.7738     0.3220 H       
  19 H19            3.1642    -0.6216     0.3855 H       
  20 H20            3.3833     1.8367     0.3186 H       
  21 H21            1.5138     3.0796    -0.3131 H       
  22 H22            3.2016     0.2822     2.5952 H       
  23 H23           -0.2647     1.6385    -2.1250 H       
  24 H24           -1.7905     1.6128    -1.2087 H       
  25 H25           -0.7613     1.9725     3.2258 H       
  26 H26           -1.9440     6.0123    -3.0697 H       
@<TRIPOS>BOND
   1    1    2 1
   2    1    6 1
   3    1    8 1
   4    1    9 1
   5    2    3 2
   6    2   17 1
   7    3    4 1
   8    3   18 1
   9    4    5 1
  10    4    7 1
  11    4   19 1
  12    5    6 2
  13    5   20 1
  14    6   21 1
  15    7   22 1
  16    8   12 1
  17    8   23 1
  18    8   24 1
  19    9   10 1
  20    9   11 2
  21   10   25 1
  22   12   13 1
  23   12   14 2
  24   13   15 2
  25   13   16 1
  26   16   26 1

#	End of record

