#	Name: ASD16500001
#	Creating user name:	WinNT
#	Creation time:	15. 06. 2019 21:31

#	Modifying user name:	WinNT
#	Modification time:	15. 06. 2019 21:31

#	Program:	/corina/corina34_cracker 3.40 0067  02.08.2006

@<TRIPOS>MOLECULE
ASD16500001
  44   47    0    0    0
SMALL
NO_CHARGES


@<TRIPOS>ATOM
   1 C1            -0.0180     1.4727     0.0101 C.ar    
   2 C2             1.2191     3.5456     0.0335 C.ar    
   3 C3             0.0361     4.2539     0.0663 C.ar    
   4 C4            -2.5899     4.0385     0.0854 C.ar    
   5 C5            -5.3515     4.2576     0.1132 C.ar    
   6 C6            -4.7685     3.0040     0.0777 C.ar    
   7 C7             5.0145     2.2650     4.1759 C.3     
   8 C8             3.8086     1.4656     3.7540 C.2     
   9 C9             2.4304     0.4063     2.1237 C.3     
  10 C10            2.3778     0.1816     0.6112 C.3     
  11 C11            3.6225    -0.5929     0.1735 C.3     
  12 C12            1.1496    -0.6211     0.2717 C.2     
  13 C13            0.0021    -0.0041     0.0020 C.2     
  14 C14            1.2003     2.1593     0.0022 C.ar    
  15 C15            2.5351     4.2798     0.0312 C.3     
  16 C16           -1.1867     3.5839     0.0619 C.ar    
  17 C17           -3.1880     5.2963     0.1213 C.ar    
  18 C18           -4.5612     5.4023     0.1363 C.ar    
  19 C19           -3.3830     2.8817     0.0636 C.ar    
  20 C20           -1.2242     2.1825     0.0316 C.ar    
  21 N21           -2.5458     1.7806     0.0303 N.pl3   
  22 O22            3.0179     1.0819     4.5831 O.2     
  23 O23            3.6130     1.1800     2.4571 O.3     
  24 O24            2.3552     1.4453    -0.0514 O.3     
  25 O25           -6.7058     4.3720     0.1265 O.3     
  26 H26            0.0570     5.3333     0.0960 H       
  27 H27           -5.3888     2.1201     0.0612 H       
  28 H28            5.0034     2.3955     5.2580 H       
  29 H29            5.9215     1.7362     3.8830 H       
  30 H30            4.9907     3.2413     3.6919 H       
  31 H31            1.5399     0.9484     2.4417 H       
  32 H32            2.4708    -0.5567     2.6328 H       
  33 H33            3.5839    -0.7648    -0.9022 H       
  34 H34            4.5142    -0.0154     0.4173 H       
  35 H35            3.6562    -1.5503     0.6934 H       
  36 H36            1.2004    -1.6996     0.2467 H       
  37 H37           -0.8921    -0.5688    -0.2169 H       
  38 H38            2.8375     4.4803    -0.9967 H       
  39 H39            2.4264     5.2221     0.5682 H       
  40 H40            3.2933     3.6682     0.5203 H       
  41 H41           -2.5763     6.1862     0.1392 H       
  42 H42           -5.0257     6.3769     0.1643 H       
  43 H43           -2.8444     0.8579     0.0090 H       
  44 H44           -7.0909     4.3832     1.0134 H       
@<TRIPOS>BOND
   1    1   13 1
   2    1   14 ar
   3    1   20 ar
   4    2   14 ar
   5    2    3 ar
   6    2   15 1
   7    3   16 ar
   8    3   26 1
   9    4   16 1
  10    4   19 ar
  11    4   17 ar
  12    5   25 1
  13    5    6 ar
  14    5   18 ar
  15    6   27 1
  16    6   19 ar
  17    7   28 1
  18    7   29 1
  19    7   30 1
  20    7    8 1
  21    8   22 2
  22    8   23 1
  23    9   23 1
  24    9   31 1
  25    9   32 1
  26    9   10 1
  27   10   12 1
  28   10   11 1
  29   10   24 1
  30   11   33 1
  31   11   34 1
  32   11   35 1
  33   12   13 2
  34   12   36 1
  35   13   37 1
  36   14   24 1
  37   15   38 1
  38   15   39 1
  39   15   40 1
  40   16   20 ar
  41   17   18 ar
  42   17   41 1
  43   18   42 1
  44   19   21 1
  45   20   21 1
  46   21   43 1
  47   25   44 1

#	End of record

