#	Name: ASD10610092
#	Creating user name:	WinNT
#	Creation time:	15. 06. 2019 21:27

#	Modifying user name:	WinNT
#	Modification time:	15. 06. 2019 21:27

#	Program:	/corina/corina34_cracker 3.40 0067  02.08.2006

@<TRIPOS>MOLECULE
ASD10610092
  63   66    0    0    0
SMALL
NO_CHARGES


@<TRIPOS>ATOM
   1 C1             0.7533     2.7709    -2.4693 C.ar    
   2 N2             1.6022     2.6894    -3.4830 N.ar    
   3 C3             2.7526     2.0546    -3.3549 C.ar    
   4 C4             3.0684     1.4634    -2.1252 C.ar    
   5 C5             2.1426     1.5733    -1.0800 C.ar    
   6 N6             1.0143     2.2256    -1.2906 N.ar    
   7 C7             4.3430     0.7430    -1.9358 C.2     
   8 O8             5.1349     0.6570    -2.8543 O.2     
   9 N9             4.6288     0.1807    -0.7448 N.am    
  10 O10            7.0739     0.4850     0.6544 O.3     
  11 C11            7.1519     0.1599    -0.7395 C.3     
  12 C12            5.8426    -0.6242    -0.5871 C.3     
  13 C13            6.3506    -0.7361     0.8556 C.3     
  14 C14            5.8020    -1.9284    -1.3411 C.2     
  15 N15            4.6444    -2.6107    -1.4454 N.am    
  16 O16            6.8110    -2.3640    -1.8540 O.2     
  17 C17            4.6263    -3.9294    -2.0834 C.3     
  18 C18            4.4935    -3.7611    -3.5983 C.3     
  19 C19            1.3067    -6.1836    -0.6029 C.ar    
  20 C20            2.4261    -6.8411    -1.1093 C.ar    
  21 C21            3.4968    -6.1087    -1.5864 C.ar    
  22 C22            3.4568    -4.7238    -1.5618 C.ar    
  23 C23            2.3476    -4.0683    -1.0599 C.ar    
  24 C24            1.2733    -4.7906    -0.5807 C.ar    
  25 C25            0.1518    -6.9638    -0.0950 C.ar    
  26 C26            0.3395    -7.9295     0.8980 C.ar    
  27 C27           -0.7451    -8.6545     1.3673 C.ar    
  28 C28           -2.0080    -8.4224     0.8534 C.ar    
  29 C29           -2.1966    -7.4665    -0.1302 C.ar    
  30 C30           -1.1250    -6.7332    -0.6016 C.ar    
  31 F31            4.5832    -6.7437    -2.0779 F       
  32 O32            1.5810    -8.1573     1.4015 O.3     
  33 C33            1.9948    -7.3431     2.5005 C.3     
  34 C34            3.4439    -7.6740     2.8631 C.3     
  35 F35            3.5387    -9.0232     3.2207 F       
  36 F36            4.2690    -7.4244     1.7613 F       
  37 Cl37          -3.7861    -7.1838    -0.7684 Cl      
  38 Cl38          -0.5176    -9.8550     2.6004 Cl      
  39 O39           -0.4125     3.4355    -2.6412 O.3     
  40 C40           -1.2959     3.4968    -1.5197 C.3     
  41 H41            3.4396     1.9919    -4.1859 H       
  42 H42            2.3485     1.1310    -0.1164 H       
  43 H43            4.0307     0.3090     0.0081 H       
  44 H44            7.0627     1.0284    -1.3921 H       
  45 H45            8.0062    -0.4689    -0.9901 H       
  46 H46            6.9957    -1.5989     1.0216 H       
  47 H47            5.5594    -0.6527     1.6007 H       
  48 H48            3.8233    -2.2287    -1.0980 H       
  49 H49            5.5534    -4.4557    -1.8562 H       
  50 H50            5.3395    -3.1865    -3.9756 H       
  51 H51            4.4801    -4.7422    -4.0731 H       
  52 H52            3.5665    -3.2348    -3.8256 H       
  53 H53            2.4572    -7.9205    -1.1285 H       
  54 H54            2.3217    -2.9888    -1.0428 H       
  55 H55            0.4080    -4.2768    -0.1888 H       
  56 H56           -2.8506    -8.9894     1.2207 H       
  57 H57           -1.2763    -5.9851    -1.3658 H       
  58 H58            1.9209    -6.2918     2.2219 H       
  59 H59            1.3519    -7.5375     3.3590 H       
  60 H60            3.7595    -7.0529     3.7015 H       
  61 H61           -0.7948     3.9943    -0.6893 H       
  62 H62           -2.1906     4.0566    -1.7921 H       
  63 H63           -1.5760     2.4863    -1.2222 H       
@<TRIPOS>BOND
   1    1    2 ar
   2    1    6 ar
   3    1   39 1
   4    2    3 ar
   5    3    4 ar
   6    3   41 1
   7    4    5 ar
   8    4    7 1
   9    5    6 ar
  10    5   42 1
  11    7    8 2
  12    7    9 am
  13    9   12 1
  14    9   43 1
  15   10   11 1
  16   10   13 1
  17   11   12 1
  18   11   44 1
  19   11   45 1
  20   12   13 1
  21   12   14 1
  22   13   46 1
  23   13   47 1
  24   14   15 am
  25   14   16 2
  26   15   17 1
  27   15   48 1
  28   17   18 1
  29   17   22 1
  30   17   49 1
  31   18   50 1
  32   18   51 1
  33   18   52 1
  34   19   20 ar
  35   19   24 ar
  36   19   25 1
  37   20   21 ar
  38   20   53 1
  39   21   22 ar
  40   21   31 1
  41   22   23 ar
  42   23   24 ar
  43   23   54 1
  44   24   55 1
  45   25   26 ar
  46   25   30 ar
  47   26   27 ar
  48   26   32 1
  49   27   28 ar
  50   27   38 1
  51   28   29 ar
  52   28   56 1
  53   29   30 ar
  54   29   37 1
  55   30   57 1
  56   32   33 1
  57   33   34 1
  58   33   58 1
  59   33   59 1
  60   34   35 1
  61   34   36 1
  62   34   60 1
  63   39   40 1
  64   40   61 1
  65   40   62 1
  66   40   63 1

#	End of record

