#	Name: ASD14720001
#	Creating user name:	WinNT
#	Creation time:	15. 06. 2019 21:31

#	Modifying user name:	WinNT
#	Modification time:	15. 06. 2019 21:31

#	Program:	/corina/corina34_cracker 3.40 0067  02.08.2006

@<TRIPOS>MOLECULE
ASD14720001
  51   54    0    0    0
SMALL
NO_CHARGES


@<TRIPOS>ATOM
   1 N1            -0.1992     1.8326     0.5425 N.3     
   2 C2            -0.4117     0.3798     0.6412 C.3     
   3 C3             0.3548    -0.3011    -0.4931 C.3     
   4 C4             1.7791     0.1911    -0.5196 C.ar    
   5 C5             1.1764     2.1710     0.9213 C.3     
   6 C6             2.7202    -0.5443    -1.2244 C.ar    
   7 C7             4.0348    -0.1269    -1.2770 C.ar    
   8 C8             4.4154     1.0308    -0.6239 C.ar    
   9 C9             3.4799     1.7628     0.0788 C.ar    
  10 C10            2.1586     1.3436     0.1342 C.ar    
  11 C11           -1.1680     2.5638     1.3700 C.3     
  12 C12           -0.8438     4.0352     1.3412 C.2     
  13 C13           -2.5573     2.3449     0.8285 C.ar    
  14 N14           -0.7368     4.7923     0.2766 N.2     
  15 N15           -0.6136     4.8284     2.4040 N.pl3   
  16 N16           -0.3748     6.0122     1.9499 N.2     
  17 N17           -0.4501     5.9869     0.6650 N.2     
  18 C18           -4.8489     1.7466     1.1792 C.ar    
  19 C19           -5.1060     1.9437    -0.1646 C.ar    
  20 C20           -4.0873     2.3352    -1.0131 C.ar    
  21 C21           -2.8130     2.5360    -0.5164 C.ar    
  22 C22           -3.5746     1.9474     1.6758 C.ar    
  23 C23           -0.6312     4.4236     3.8119 C.3     
  24 C24            0.4602     3.3794     4.0560 C.3     
  25 C25           -0.3755     5.6451     4.6970 C.3     
  26 C26           -1.9966     3.8235     4.1529 C.3     
  27 H27           -0.0415     0.0198     1.6011 H       
  28 H28           -1.4750     0.1582     0.5492 H       
  29 H29            0.3476    -1.3800    -0.3381 H       
  30 H30           -0.1255    -0.0703    -1.4440 H       
  31 H31            1.3552     3.2278     0.7229 H       
  32 H32            1.3148     1.9789     1.9853 H       
  33 H33            2.4229    -1.4486    -1.7346 H       
  34 H34            4.7643    -0.7033    -1.8265 H       
  35 H35            5.4428     1.3614    -0.6632 H       
  36 H36            3.7783     2.6669     0.5887 H       
  37 H37           -1.1166     2.2004     2.3963 H       
  38 H38           -5.6449     1.4408     1.8421 H       
  39 H39           -6.1017     1.7869    -0.5526 H       
  40 H40           -4.2881     2.4892    -2.0630 H       
  41 H41           -2.0172     2.8426    -1.1792 H       
  42 H42           -3.3737     1.7934     2.7258 H       
  43 H43            1.4360     3.8184     3.8483 H       
  44 H44            0.4231     3.0512     5.0947 H       
  45 H45            0.2989     2.5248     3.3989 H       
  46 H46           -1.1530     6.3890     4.5230 H       
  47 H47           -0.3886     5.3439     5.7444 H       
  48 H48            0.5973     6.0726     4.4540 H       
  49 H49           -2.1332     2.8939     3.6003 H       
  50 H50           -2.0475     3.6210     5.2227 H       
  51 H51           -2.7819     4.5279     3.8787 H       
@<TRIPOS>BOND
   1    1    2 1
   2    1    5 1
   3    1   11 1
   4    2    3 1
   5    2   27 1
   6    2   28 1
   7    3    4 1
   8    3   29 1
   9    3   30 1
  10    4    6 ar
  11    4   10 ar
  12    5   10 1
  13    5   31 1
  14    5   32 1
  15    6    7 ar
  16    6   33 1
  17    7    8 ar
  18    7   34 1
  19    8    9 ar
  20    8   35 1
  21    9   10 ar
  22    9   36 1
  23   11   12 1
  24   11   13 1
  25   11   37 1
  26   12   15 1
  27   12   14 2
  28   13   22 ar
  29   13   21 ar
  30   14   17 1
  31   15   16 1
  32   15   23 1
  33   16   17 2
  34   18   19 ar
  35   18   22 ar
  36   18   38 1
  37   19   20 ar
  38   19   39 1
  39   20   21 ar
  40   20   40 1
  41   21   41 1
  42   22   42 1
  43   23   24 1
  44   23   25 1
  45   23   26 1
  46   24   43 1
  47   24   44 1
  48   24   45 1
  49   25   46 1
  50   25   47 1
  51   25   48 1
  52   26   49 1
  53   26   50 1
  54   26   51 1

#	End of record

