#	Name: ASD13490008
#	Creating user name:	WinNT
#	Creation time:	15. 06. 2019 21:30

#	Modifying user name:	WinNT
#	Modification time:	15. 06. 2019 21:30

#	Program:	/corina/corina34_cracker 3.40 0067  02.08.2006

@<TRIPOS>MOLECULE
ASD13490008
  51   53    0    0    0
SMALL
NO_CHARGES


@<TRIPOS>ATOM
   1 C1             0.3050     1.3994    -0.0106 C.ar    
   2 C2             0.5372     0.0362    -0.0428 C.ar    
   3 C3             1.8334    -0.4448    -0.1463 C.ar    
   4 C4             2.9028     0.4526    -0.2185 C.ar    
   5 C5             2.6572     1.8233    -0.1857 C.ar    
   6 C6             1.3620     2.2891    -0.0819 C.ar    
   7 C7             4.2930    -0.0526    -0.3290 C.ar    
   8 C8             5.1424     0.4469    -1.3145 C.ar    
   9 C9             6.4351    -0.0265    -1.4124 C.ar    
  10 C10            6.8881    -0.9948    -0.5346 C.ar    
  11 C11            6.0493    -1.4945     0.4453 C.ar    
  12 C12            4.7565    -1.0243     0.5560 C.ar    
  13 O13            2.0635    -1.7835    -0.1771 O.3     
  14 C14            2.0765    -2.4101    -1.4614 C.3     
  15 C15            2.3486    -3.9066    -1.2959 C.3     
  16 C16            1.0982     3.7725    -0.0465 C.3     
  17 C17            0.2062     4.1602    -1.2275 C.3     
  18 C18            0.9678     3.9392    -2.5360 C.3     
  19 C19            0.1183     4.1898    -3.7931 C.3     
  20 C20            1.8178     5.1467    -2.9655 C.3     
  21 C21            1.3621     4.8557    -4.4051 C.3     
  22 C22            0.4063     4.1290     1.2439 C.2     
  23 O23            0.1870     5.4164     1.5544 O.3     
  24 O24            0.0489     3.2561     1.9990 O.2     
  25 C25            8.3008    -1.5077    -0.6465 C.3     
  26 F26            9.1455    -0.7246     0.1475 F       
  27 F27            8.3504    -2.8362    -0.2107 F       
  28 F28            8.7177    -1.4385    -1.9801 F       
  29 Cl29          -0.7952    -1.0730     0.0472 Cl      
  30 F30            1.3441    -4.4789    -0.5080 F       
  31 F31            2.3614    -4.5201    -2.5531 F       
  32 F32            3.5890    -4.0893    -0.6752 F       
  33 H33           -0.7062     1.7708     0.0659 H       
  34 H34            3.4797     2.5211    -0.2408 H       
  35 H35            4.7897     1.2027    -2.0006 H       
  36 H36            7.0941     0.3596    -2.1760 H       
  37 H37            6.4081    -2.2507     1.1277 H       
  38 H38            4.1038    -1.4118     1.3243 H       
  39 H39            1.1101    -2.2678    -1.9449 H       
  40 H40            2.8591    -1.9643    -2.0752 H       
  41 H41            2.0434     4.3112    -0.1128 H       
  42 H42           -0.6926     3.5436    -1.2218 H       
  43 H43           -0.0730     5.2104    -1.1426 H       
  44 H44            1.5090     2.9933    -2.5562 H       
  45 H45           -0.1842     3.2762    -4.3049 H       
  46 H46           -0.7102     4.8790    -3.6300 H       
  47 H47            1.4539     6.0974    -2.5760 H       
  48 H48            2.8873     5.0055    -2.8091 H       
  49 H49            2.0122     4.1610    -4.9369 H       
  50 H50            1.1378     5.7530    -4.9818 H       
  51 H51           -0.2603     5.5957     2.3928 H       
@<TRIPOS>BOND
   1    1    2 ar
   2    1    6 ar
   3    1   33 1
   4    2    3 ar
   5    2   29 1
   6    3    4 ar
   7    3   13 1
   8    4    5 ar
   9    4    7 1
  10    5    6 ar
  11    5   34 1
  12    6   16 1
  13    7    8 ar
  14    7   12 ar
  15    8    9 ar
  16    8   35 1
  17    9   10 ar
  18    9   36 1
  19   10   11 ar
  20   10   25 1
  21   11   12 ar
  22   11   37 1
  23   12   38 1
  24   13   14 1
  25   14   15 1
  26   14   39 1
  27   14   40 1
  28   15   30 1
  29   15   31 1
  30   15   32 1
  31   16   17 1
  32   16   22 1
  33   16   41 1
  34   17   18 1
  35   17   42 1
  36   17   43 1
  37   18   19 1
  38   18   20 1
  39   18   44 1
  40   19   21 1
  41   19   45 1
  42   19   46 1
  43   20   21 1
  44   20   47 1
  45   20   48 1
  46   21   49 1
  47   21   50 1
  48   22   23 1
  49   22   24 2
  50   23   51 1
  51   25   26 1
  52   25   27 1
  53   25   28 1

#	End of record

