#	Name: ASD10410100
#	Creating user name:	WinNT
#	Creation time:	15. 06. 2019 21:26

#	Modifying user name:	WinNT
#	Modification time:	15. 06. 2019 21:26

#	Program:	/corina/corina34_cracker 3.40 0067  02.08.2006

@<TRIPOS>MOLECULE
ASD10410100
  67   73    0    0    0
SMALL
NO_CHARGES


@<TRIPOS>ATOM
   1 C1             0.1344     1.0844     0.4459 C.ar    
   2 C2             0.2009    -0.2936     0.2874 C.ar    
   3 C3             1.4288    -0.9115     0.0903 C.ar    
   4 C4             2.5838    -0.1558     0.0520 C.ar    
   5 C5             2.5174     1.2223     0.2105 C.ar    
   6 C6             1.2893     1.8402     0.4077 C.ar    
   7 N7             3.6886     1.9889     0.1717 N.pl3   
   8 C8             3.6538     3.2906    -0.3272 C.2     
   9 N9             4.6584     4.1335    -0.3226 N.2     
  10 N10            2.5917     3.8766    -0.8922 N.2     
  11 C11            2.9009     5.1039    -1.2519 C.2     
  12 N12            4.2001     5.3216    -0.9146 N.pl3   
  13 C13            4.9307     6.4904    -1.1156 C.ar    
  14 N14            2.0570     6.0088    -1.8663 N.pl3   
  15 N15           -0.9698    -1.0598     0.3266 N.3     
  16 C16           -0.6721    -2.4865     0.1383 C.3     
  17 C17           -1.9646    -3.2960     0.2669 C.3     
  18 N18           -2.9347    -2.8271    -0.7324 N.3     
  19 C19           -3.2325    -1.4004    -0.5441 C.3     
  20 C20           -1.9399    -0.5909    -0.6727 C.3     
  21 N21            4.3690     7.5461    -1.6906 N.ar    
  22 C22            5.0576     8.6579    -1.8833 C.ar    
  23 N23            6.3124     8.7810    -1.5250 N.ar    
  24 C24            6.9723     7.7611    -0.9317 C.ar    
  25 C25            6.2702     6.5727    -0.7083 C.ar    
  26 C26           -5.1677    -3.1357    -1.7566 C.3     
  27 C27           -5.3771    -4.3592    -2.7002 C.3     
  28 C28           -4.0260    -4.4972    -3.4662 C.3     
  29 C29           -3.0216    -4.9927    -2.4007 C.3     
  30 C30           -4.1634    -3.6312    -0.6911 C.3     
  31 C31           -3.8605    -5.1075    -1.0914 C.3     
  32 C32           -5.2514    -5.5410    -1.6751 C.3     
  33 C33            8.2993     7.6937    -0.4789 C.2     
  34 C34            8.6636     6.5444     0.0674 C.2     
  35 S35            7.3287     5.4040     0.0678 S.3     
  36 C36            9.2495     8.8563    -0.6072 C.3     
  37 Cl37           4.2698    10.0068    -2.6406 Cl      
  38 H38           -0.8210     1.5654     0.5947 H       
  39 H39            1.4805    -1.9833    -0.0326 H       
  40 H40            3.5388    -0.6363    -0.1009 H       
  41 H41            1.2376     2.9120     0.5306 H       
  42 H42            4.5242     1.6143     0.4919 H       
  43 H43            1.1423     5.7581    -2.0698 H       
  44 H44            2.3792     6.8949    -2.0942 H       
  45 H45           -0.2433    -2.6409    -0.8518 H       
  46 H46            0.0386    -2.8130     0.8976 H       
  47 H47           -1.7509    -4.3516     0.0989 H       
  48 H48           -2.3790    -3.1631     1.2663 H       
  49 H49           -3.9431    -1.0739    -1.3034 H       
  50 H50           -3.6613    -1.2460     0.4461 H       
  51 H51           -2.1537     0.4647    -0.5047 H       
  52 H52           -1.5256    -0.7238    -1.6721 H       
  53 H53           -4.7499    -2.2954    -2.3110 H       
  54 H54           -6.1099    -2.8518    -1.2877 H       
  55 H55           -6.2749    -4.3364    -3.3180 H       
  56 H56           -4.1179    -5.2272    -4.2704 H       
  57 H57           -3.7136    -3.5311    -3.8626 H       
  58 H58           -2.6197    -5.9664    -2.6811 H       
  59 H59           -2.2154    -4.2703    -2.2734 H       
  60 H60           -4.6110    -3.5890     0.3018 H       
  61 H61           -3.4374    -5.7363    -0.3080 H       
  62 H62           -6.0379    -5.5133    -0.9209 H       
  63 H63           -5.2022    -6.5098    -2.1721 H       
  64 H64            9.6476     6.3372     0.4615 H       
  65 H65            9.1816     9.4810     0.2834 H       
  66 H66           10.2682     8.4831    -0.7125 H       
  67 H67            8.9859     9.4457    -1.4854 H       
@<TRIPOS>BOND
   1    1    2 ar
   2    1    6 ar
   3    1   38 1
   4    2    3 ar
   5    2   15 1
   6    3    4 ar
   7    3   39 1
   8    4    5 ar
   9    4   40 1
  10    5    6 ar
  11    5    7 1
  12    6   41 1
  13    7    8 1
  14    7   42 1
  15    8    9 2
  16    8   10 1
  17    9   12 1
  18   10   11 2
  19   11   12 1
  20   11   14 1
  21   12   13 1
  22   13   21 ar
  23   13   25 ar
  24   14   43 1
  25   14   44 1
  26   15   16 1
  27   15   20 1
  28   16   17 1
  29   16   45 1
  30   16   46 1
  31   17   18 1
  32   17   47 1
  33   17   48 1
  34   18   19 1
  35   18   30 1
  36   19   20 1
  37   19   49 1
  38   19   50 1
  39   20   51 1
  40   20   52 1
  41   21   22 ar
  42   22   23 ar
  43   22   37 1
  44   23   24 ar
  45   24   25 ar
  46   24   33 1
  47   25   35 1
  48   26   27 1
  49   26   30 1
  50   26   53 1
  51   26   54 1
  52   27   28 1
  53   27   32 1
  54   27   55 1
  55   28   29 1
  56   28   56 1
  57   28   57 1
  58   29   31 1
  59   29   58 1
  60   29   59 1
  61   30   31 1
  62   30   60 1
  63   31   32 1
  64   31   61 1
  65   32   62 1
  66   32   63 1
  67   33   34 2
  68   33   36 1
  69   34   35 1
  70   34   64 1
  71   36   65 1
  72   36   66 1
  73   36   67 1

#	End of record

