#	Name: ASD11400006
#	Creating user name:	WinNT
#	Creation time:	15. 06. 2019 21:29

#	Modifying user name:	WinNT
#	Modification time:	15. 06. 2019 21:29

#	Program:	/corina/corina34_cracker 3.40 0067  02.08.2006

@<TRIPOS>MOLECULE
ASD11400006
  46   49    0    0    0
SMALL
NO_CHARGES


@<TRIPOS>ATOM
   1 Cl1            0.1186     0.8877    -2.5215 Cl      
   2 C2             0.0268     2.1670    -1.3517 C.ar    
   3 C3             1.1582     2.5450    -0.6502 C.ar    
   4 C4             1.0887     3.5637     0.2824 C.ar    
   5 C5            -0.1105     4.2069     0.5171 C.ar    
   6 C6            -1.2486     3.8302    -0.1851 C.ar    
   7 C7            -1.1753     2.8112    -1.1256 C.ar    
   8 N8            -2.4640     4.4798     0.0506 N.pl3   
   9 C9            -3.6546     3.7781    -0.0464 C.ar    
  10 N10           -3.6178     2.4698    -0.2537 N.ar    
  11 C11           -4.7333     1.7639    -0.3518 C.ar    
  12 C12           -5.9531     2.4062    -0.2354 C.ar    
  13 C13           -5.9605     3.7866    -0.0171 C.ar    
  14 N14           -4.7997     4.4310     0.0758 N.ar    
  15 C15           -7.2422     4.5213     0.1141 C.ar    
  16 C16           -8.4493     3.8243     0.1245 C.ar    
  17 C17           -9.6417     4.5097     0.2466 C.ar    
  18 C18           -9.6437     5.8869     0.3584 C.ar    
  19 C19           -8.4449     6.5905     0.3486 C.ar    
  20 C20           -7.2425     5.9091     0.2330 C.ar    
  21 N21           -8.4509     7.9829     0.4609 N.3     
  22 C22           -9.8230     8.4958     0.5782 C.3     
  23 C23           -9.7824    10.0126     0.7785 C.3     
  24 N24           -9.0855    10.6355    -0.3555 N.3     
  25 C25           -7.7134    10.1225    -0.4728 C.3     
  26 C26           -7.7540     8.6057    -0.6732 C.3     
  27 H27            2.0972     2.0432    -0.8313 H       
  28 H28            1.9735     3.8564     0.8282 H       
  29 H29           -0.1637     5.0018     1.2462 H       
  30 H30           -2.0581     2.5164    -1.6733 H       
  31 H31           -2.4737     5.4217     0.2820 H       
  32 H32           -4.6916     0.6981    -0.5211 H       
  33 H33           -6.8780     1.8539    -0.3119 H       
  34 H34           -8.4519     2.7479     0.0366 H       
  35 H35          -10.5758     3.9676     0.2545 H       
  36 H36          -10.5792     6.4182     0.4534 H       
  37 H37           -6.3099     6.4536     0.2251 H       
  38 H38          -10.3770     8.2639    -0.3315 H       
  39 H39          -10.3140     8.0292     1.4322 H       
  40 H40          -10.7999    10.3991     0.8368 H       
  41 H41           -9.2520    10.2433     1.7024 H       
  42 H42           -9.5975    10.4982    -1.2141 H       
  43 H43           -7.2225    10.5891    -1.3268 H       
  44 H44           -7.1595    10.3545     0.4369 H       
  45 H45           -6.7365     8.2192    -0.7314 H       
  46 H46           -8.2844     8.3751    -1.5970 H       
@<TRIPOS>BOND
   1    1    2 1
   2    2    3 ar
   3    2    7 ar
   4    3    4 ar
   5    3   27 1
   6    4    5 ar
   7    4   28 1
   8    5    6 ar
   9    5   29 1
  10    6    7 ar
  11    6    8 1
  12    7   30 1
  13    8    9 1
  14    8   31 1
  15    9   10 ar
  16    9   14 ar
  17   10   11 ar
  18   11   12 ar
  19   11   32 1
  20   12   13 ar
  21   12   33 1
  22   13   14 ar
  23   13   15 1
  24   15   16 ar
  25   15   20 ar
  26   16   17 ar
  27   16   34 1
  28   17   18 ar
  29   17   35 1
  30   18   19 ar
  31   18   36 1
  32   19   20 ar
  33   19   21 1
  34   20   37 1
  35   21   22 1
  36   21   26 1
  37   22   23 1
  38   22   38 1
  39   22   39 1
  40   23   24 1
  41   23   40 1
  42   23   41 1
  43   24   25 1
  44   24   42 1
  45   25   26 1
  46   25   43 1
  47   25   44 1
  48   26   45 1
  49   26   46 1

#	End of record

