#	Name: ASD11000180
#	Creating user name:	WinNT
#	Creation time:	15. 06. 2019 21:28

#	Modifying user name:	WinNT
#	Modification time:	15. 06. 2019 21:28

#	Program:	/corina/corina34_cracker 3.40 0067  02.08.2006

@<TRIPOS>MOLECULE
ASD11000180
  46   49    0    0    0
SMALL
NO_CHARGES


@<TRIPOS>ATOM
   1 N1            -0.0172     1.3215    -0.0111 N.ar    
   2 C2             0.0016    -0.0034    -0.0059 C.ar    
   3 N3             1.1403    -0.6810    -0.0153 N.ar    
   4 C4             2.3025    -0.0498    -0.0304 C.ar    
   5 C5             2.3192     1.3363    -0.0362 C.ar    
   6 C6             1.1099     2.0136    -0.0260 C.ar    
   7 C7             3.6238     2.0904    -0.0528 C.3     
   8 O8             4.0223     2.3233    -1.4052 O.3     
   9 C9             5.1875     2.9971    -1.5981 C.ar    
  10 C10            5.6299     3.2619    -2.8874 C.ar    
  11 N11           -1.1974    -0.6965     0.0102 N.pl3   
  12 C12           -1.2008    -2.0923    -0.1029 C.ar    
  13 C13           -2.1491    -2.8420     0.5799 C.ar    
  14 C14           -0.2594    -2.7267    -0.9028 C.ar    
  15 C15           -0.2636    -4.1032    -1.0150 C.ar    
  16 C16           -1.2075    -4.8526    -0.3287 C.ar    
  17 C17           -2.1520    -4.2195     0.4672 C.ar    
  18 O18           -1.2108    -6.2082    -0.4399 O.3     
  19 C19           -0.2138    -6.7927    -1.2803 C.3     
  20 F20           -0.3607    -6.3082    -2.5845 F       
  21 F21            1.0565    -6.4581    -0.7989 F       
  22 C22            5.9295     3.4240    -0.5069 C.ar    
  23 C23            7.1137     4.1105    -0.6992 C.ar    
  24 C24            7.5576     4.3707    -1.9857 C.ar    
  25 C25            6.8109     3.9450    -3.0792 C.ar    
  26 Cl26          -3.3332    -5.1582     1.3259 Cl      
  27 N27            8.7529     5.0683    -2.2094 N.am    
  28 C28            9.0057     5.5806    -3.4309 C.2     
  29 O29            8.1120     5.4536    -4.4286 O.3     
  30 C30            7.3206     4.2375    -4.4680 C.3     
  31 O31           10.0524     6.1639    -3.6328 O.2     
  32 H32            3.2273    -0.6075    -0.0376 H       
  33 H33            1.0881     3.0934    -0.0305 H       
  34 H34            3.4983     3.0448     0.4585 H       
  35 H35            4.3891     1.5038     0.4556 H       
  36 H36            5.0503     2.9331    -3.7372 H       
  37 H37           -2.0347    -0.2151     0.0999 H       
  38 H38           -2.8839    -2.3491     1.1992 H       
  39 H39            0.4759    -2.1436    -1.4374 H       
  40 H40            0.4682    -4.5962    -1.6377 H       
  41 H41           -0.3285    -7.8766    -1.2802 H       
  42 H42            5.5813     3.2199     0.4948 H       
  43 H43            7.6909     4.4435     0.1507 H       
  44 H44            9.3936     5.1821    -1.4901 H       
  45 H45            7.9408     3.4087    -4.8092 H       
  46 H46            6.4789     4.3710    -5.1477 H       
@<TRIPOS>BOND
   1    1    2 ar
   2    1    6 ar
   3    2    3 ar
   4    2   11 1
   5    3    4 ar
   6    4    5 ar
   7    4   32 1
   8    5    6 ar
   9    5    7 1
  10    6   33 1
  11    7    8 1
  12    7   34 1
  13    7   35 1
  14    8    9 1
  15    9   22 ar
  16    9   10 ar
  17   10   25 ar
  18   10   36 1
  19   11   12 1
  20   11   37 1
  21   12   13 ar
  22   12   14 ar
  23   13   17 ar
  24   13   38 1
  25   14   15 ar
  26   14   39 1
  27   15   16 ar
  28   15   40 1
  29   16   17 ar
  30   16   18 1
  31   17   26 1
  32   18   19 1
  33   19   20 1
  34   19   21 1
  35   19   41 1
  36   22   23 ar
  37   22   42 1
  38   23   24 ar
  39   23   43 1
  40   24   25 ar
  41   24   27 1
  42   25   30 1
  43   27   28 am
  44   27   44 1
  45   28   29 1
  46   28   31 2
  47   29   30 1
  48   30   45 1
  49   30   46 1

#	End of record

