#	Name: ASD10160266
#	Creating user name:	WinNT
#	Creation time:	15. 06. 2019 21:25

#	Modifying user name:	WinNT
#	Modification time:	15. 06. 2019 21:25

#	Program:	/corina/corina34_cracker 3.40 0067  02.08.2006

@<TRIPOS>MOLECULE
ASD10160266
  38   39    0    0    0
SMALL
NO_CHARGES


@<TRIPOS>ATOM
   1 C1             0.3726     1.0993     1.9660 C.2     
   2 C2             0.2896    -0.2783     1.4425 C.ar    
   3 C3             1.3734    -0.8334     0.7563 C.ar    
   4 C4             1.2917    -2.1206     0.2695 C.ar    
   5 C5             0.1315    -2.8660     0.4612 C.ar    
   6 C6            -0.9469    -2.3160     1.1426 C.ar    
   7 C7            -0.8702    -1.0323     1.6368 C.ar    
   8 O8             1.3846     1.7526     1.8005 O.2     
   9 N9            -0.6754     1.6350     2.6226 N.am    
  10 S10           -0.5823     3.1806     3.2099 S.o2    
  11 O11           -1.8342     3.3886     3.8491 O.2     
  12 O12            0.6306     3.2017     3.9500 O.2     
  13 C13           -0.4429     4.2197     1.7296 C.3     
  14 F14            2.3379    -2.6588    -0.3945 F       
  15 O15            0.0538    -4.1332    -0.0192 O.3     
  16 C16           -1.4007    -5.5723     1.2051 C.ar    
  17 C17           -1.1325    -4.7865     0.0932 C.ar    
  18 C18           -2.0958    -4.6768    -0.9046 C.ar    
  19 C19           -3.2901    -5.3611    -0.7450 C.ar    
  20 C20           -3.4839    -6.1243     0.3909 C.ar    
  21 N21           -2.5502    -6.2070     1.3186 N.ar    
  22 C22           -4.7800    -6.8717     0.5720 C.3     
  23 C23           -4.4850    -8.3543     0.8081 C.3     
  24 H24            2.2731    -0.2548     0.6073 H       
  25 H25           -1.8454    -2.8971     1.2887 H       
  26 H26           -1.7076    -0.6078     2.1705 H       
  27 H27           -1.4843     1.1152     2.7512 H       
  28 H28           -1.3214     4.0756     1.1005 H       
  29 H29           -0.3756     5.2666     2.0255 H       
  30 H30            0.4520     3.9412     1.1731 H       
  31 H31           -0.6581    -5.6681     1.9835 H       
  32 H32           -1.9173    -4.0727    -1.7819 H       
  33 H33           -4.0605    -5.2987    -1.4993 H       
  34 H34           -5.3160    -6.4667     1.4304 H       
  35 H35           -5.3914    -6.7609    -0.3235 H       
  36 H36           -3.9490    -8.7593    -0.0502 H       
  37 H37           -3.8736    -8.4650     1.7036 H       
  38 H38           -5.4225    -8.8949     0.9391 H       
@<TRIPOS>BOND
   1    1    2 1
   2    1    8 2
   3    1    9 am
   4    2    3 ar
   5    2    7 ar
   6    3    4 ar
   7    3   24 1
   8    4    5 ar
   9    4   14 1
  10    5    6 ar
  11    5   15 1
  12    6    7 ar
  13    6   25 1
  14    7   26 1
  15    9   10 am
  16    9   27 1
  17   10   11 2
  18   10   12 2
  19   10   13 1
  20   13   28 1
  21   13   29 1
  22   13   30 1
  23   15   17 1
  24   16   17 ar
  25   16   21 ar
  26   16   31 1
  27   17   18 ar
  28   18   19 ar
  29   18   32 1
  30   19   20 ar
  31   19   33 1
  32   20   21 ar
  33   20   22 1
  34   22   23 1
  35   22   34 1
  36   22   35 1
  37   23   36 1
  38   23   37 1
  39   23   38 1

#	End of record

