#	Name: ASD10420208
#	Creating user name:	WinNT
#	Creation time:	15. 06. 2019 21:27

#	Modifying user name:	WinNT
#	Modification time:	15. 06. 2019 21:27

#	Program:	/corina/corina34_cracker 3.40 0067  02.08.2006

@<TRIPOS>MOLECULE
ASD10420208
  42   44    0    0    0
SMALL
NO_CHARGES


@<TRIPOS>ATOM
   1 C1            -0.0184     1.5028     0.0103 C.3     
   2 C2             0.0159    -2.8185    -2.5331 C.3     
   3 C3             0.1527    -7.1182     2.4509 C.3     
   4 C4             0.0644    -2.8431     2.4523 C.2     
   5 C5             0.0826    -4.1880     2.4410 C.2     
   6 C6             0.3539    -8.9530     6.3092 C.ar    
   7 C7             0.3289    -8.3500     5.0862 C.ar    
   8 C8             0.0228    -0.6982     1.1921 C.ar    
   9 C9             0.0396    -2.7830    -0.0348 C.ar    
  10 C10           -0.0802    -6.8430     7.3960 C.ar    
  11 C11            0.0021    -0.0041     0.0020 C.ar    
  12 C12            0.0183    -2.0797    -1.2196 C.ar    
  13 C13            0.1575    -8.2060     7.4695 C.ar    
  14 C14            0.1244    -6.3216     3.7298 C.2     
  15 C15            0.0417    -2.0963     1.1831 C.ar    
  16 C16           -0.0005    -0.6909    -1.2053 C.ar    
  17 C17            0.1053    -4.9336     3.7080 C.2     
  18 C18            0.1091    -4.2378     5.0087 C.2     
  19 C19           -0.1170    -6.2149     6.1607 C.ar    
  20 C20            0.1160    -6.9667     4.9929 C.ar    
  21 O21            0.5544    -3.1103     5.1163 O.2     
  22 O22            0.1994    -8.8184     8.6803 O.3     
  23 O23           -0.0218    -0.0019    -2.3762 O.3     
  24 O24           -0.3981    -4.8922     6.0771 O.3     
  25 H25            1.0042     1.8801     0.0026 H       
  26 H26           -0.5455     1.8639    -0.8728 H       
  27 H27           -0.5286     1.8543     0.9071 H       
  28 H28           -1.0122    -3.0110    -2.8398 H       
  29 H29            0.5141    -2.2139    -3.2909 H       
  30 H30            0.5441    -3.7651    -2.4184 H       
  31 H31            0.1547    -6.4381     1.5991 H       
  32 H32            1.0518    -7.7339     2.4262 H       
  33 H33           -0.7278    -7.7588     2.4023 H       
  34 H34            0.0664    -2.3108     3.3920 H       
  35 H35            0.0806    -4.7202     1.5012 H       
  36 H36            0.5227   -10.0175     6.3789 H       
  37 H37            0.4731    -8.9366     4.1910 H       
  38 H38            0.0289    -0.1633     2.1303 H       
  39 H39            0.0545    -3.8628    -0.0470 H       
  40 H40           -0.2364    -6.2713     8.2988 H       
  41 H41            1.0800    -8.8418     9.0790 H       
  42 H42            0.8552     0.2098    -2.7240 H       
@<TRIPOS>BOND
   1    1   11 1
   2    1   25 1
   3    1   26 1
   4    1   27 1
   5    2   12 1
   6    2   28 1
   7    2   29 1
   8    2   30 1
   9    3   14 1
  10    3   31 1
  11    3   32 1
  12    3   33 1
  13    4    5 2
  14    4   15 1
  15    4   34 1
  16    5   17 1
  17    5   35 1
  18    6    7 ar
  19    6   13 ar
  20    6   36 1
  21    7   20 ar
  22    7   37 1
  23    8   11 ar
  24    8   15 ar
  25    8   38 1
  26    9   12 ar
  27    9   15 ar
  28    9   39 1
  29   10   13 ar
  30   10   19 ar
  31   10   40 1
  32   11   16 ar
  33   12   16 ar
  34   13   22 1
  35   14   17 2
  36   14   20 1
  37   16   23 1
  38   17   18 1
  39   18   21 2
  40   18   24 1
  41   19   20 ar
  42   19   24 1
  43   22   41 1
  44   23   42 1

#	End of record

