#	Name: ASD10610099
#	Creating user name:	WinNT
#	Creation time:	15. 06. 2019 21:28

#	Modifying user name:	WinNT
#	Modification time:	15. 06. 2019 21:28

#	Program:	/corina/corina34_cracker 3.40 0067  02.08.2006

@<TRIPOS>MOLECULE
ASD10610099
  62   65    0    0    0
SMALL
NO_CHARGES


@<TRIPOS>ATOM
   1 C1             1.4520    -1.6906     3.7351 C.ar    
   2 N2             2.3469    -2.6655     3.7946 N.ar    
   3 C3             3.3959    -2.6730     2.9931 C.ar    
   4 C4             3.5536    -1.6302     2.0716 C.ar    
   5 C5             2.5841    -0.6198     2.0421 C.ar    
   6 N6             1.5645    -0.6868     2.8781 N.ar    
   7 C7             4.7110    -1.5966     1.1559 C.2     
   8 O8             5.5904    -2.4300     1.2569 O.2     
   9 N9             4.7929    -0.6421     0.2079 N.am    
  10 O10            6.5831     1.4386    -0.4955 O.3     
  11 C11            6.0148     0.6726    -1.5656 C.3     
  12 C12            5.9914    -0.5413    -0.6285 C.3     
  13 C13            7.1540     0.2261     0.0131 C.3     
  14 C14            6.3821    -1.8430    -1.2796 C.2     
  15 N15            5.4301    -2.7113    -1.6747 N.am    
  16 O16            7.5533    -2.1093    -1.4479 O.2     
  17 C17            5.8094    -4.0253    -2.1997 C.3     
  18 C18            6.0642    -3.9191    -3.7046 C.3     
  19 C19            4.6952    -5.0080    -1.9470 C.ar    
  20 C20            4.9925    -6.2586    -1.4300 C.ar    
  21 C21            3.9633    -7.1580    -1.1993 C.ar    
  22 C22            2.6574    -6.7617    -1.5006 C.ar    
  23 C23            2.4422    -5.4860    -2.0180 C.ar    
  24 N24            3.4512    -4.6627    -2.2162 N.ar    
  25 F25            6.2709    -6.5977    -1.1544 F       
  26 C26            1.5186    -7.6848    -1.2737 C.ar    
  27 C27            1.2890    -8.2165    -0.0015 C.ar    
  28 C28            0.2225    -9.0785     0.2022 C.ar    
  29 C29           -0.6108    -9.4105    -0.8506 C.ar    
  30 C30           -0.3853    -8.8856    -2.1117 C.ar    
  31 C31            0.6703    -8.0207    -2.3261 C.ar    
  32 O32            2.1086    -7.8899     1.0320 O.3     
  33 C33            1.7927    -6.7016     1.7600 C.3     
  34 C34            2.8703    -6.4490     2.8164 C.3     
  35 F35            2.8530    -7.4843     3.7571 F       
  36 F36            4.1252    -6.4000     2.1999 F       
  37 Cl37          -1.4371    -9.3095    -3.4260 Cl      
  38 Cl38          -0.0670    -9.7423     1.7800 Cl      
  39 O39            0.3884    -1.7241     4.5707 O.3     
  40 C40           -0.5500    -0.6512     4.4697 C.3     
  41 H41            4.1217    -3.4709     3.0475 H       
  42 H42            2.6695     0.2019     1.3464 H       
  43 H43            4.0583    -0.0218     0.0795 H       
  44 H44            5.0214     1.0111    -1.8601 H       
  45 H45            6.6869     0.5506    -2.4150 H       
  46 H46            8.1236    -0.0124    -0.4241 H       
  47 H47            7.1589     0.1734     1.1018 H       
  48 H48            4.4937    -2.4661    -1.6115 H       
  49 H49            6.7161    -4.3679    -1.7010 H       
  50 H50            5.1576    -3.5765    -4.2033 H       
  51 H51            6.8701    -3.2084    -3.8874 H       
  52 H52            6.3464    -4.8968    -4.0952 H       
  53 H53            4.1653    -8.1398    -0.7973 H       
  54 H54            1.4378    -5.1676    -2.2550 H       
  55 H55           -1.4407   -10.0824    -0.6883 H       
  56 H56            0.8406    -7.6092    -3.3100 H       
  57 H57            1.7508    -5.8555     1.0741 H       
  58 H58            0.8258    -6.8212     2.2488 H       
  59 H59            2.6738    -5.5005     3.3163 H       
  60 H60           -0.9686    -0.6281     3.4636 H       
  61 H61           -1.3514    -0.8001     5.1934 H       
  62 H62           -0.0457     0.2931     4.6752 H       
@<TRIPOS>BOND
   1    1    2 ar
   2    1    6 ar
   3    1   39 1
   4    2    3 ar
   5    3    4 ar
   6    3   41 1
   7    4    5 ar
   8    4    7 1
   9    5    6 ar
  10    5   42 1
  11    7    8 2
  12    7    9 am
  13    9   12 1
  14    9   43 1
  15   10   11 1
  16   10   13 1
  17   11   12 1
  18   11   44 1
  19   11   45 1
  20   12   13 1
  21   12   14 1
  22   13   46 1
  23   13   47 1
  24   14   15 am
  25   14   16 2
  26   15   17 1
  27   15   48 1
  28   17   18 1
  29   17   19 1
  30   17   49 1
  31   18   50 1
  32   18   51 1
  33   18   52 1
  34   19   20 ar
  35   19   24 ar
  36   20   21 ar
  37   20   25 1
  38   21   22 ar
  39   21   53 1
  40   22   23 ar
  41   22   26 1
  42   23   24 ar
  43   23   54 1
  44   26   27 ar
  45   26   31 ar
  46   27   28 ar
  47   27   32 1
  48   28   29 ar
  49   28   38 1
  50   29   30 ar
  51   29   55 1
  52   30   31 ar
  53   30   37 1
  54   31   56 1
  55   32   33 1
  56   33   34 1
  57   33   57 1
  58   33   58 1
  59   34   35 1
  60   34   36 1
  61   34   59 1
  62   39   40 1
  63   40   60 1
  64   40   61 1
  65   40   62 1

#	End of record

