#	Name: ASD15510002
#	Creating user name:	WinNT
#	Creation time:	15. 06. 2019 21:31

#	Modifying user name:	WinNT
#	Modification time:	15. 06. 2019 21:31

#	Program:	/corina/corina34_cracker 3.40 0067  02.08.2006

@<TRIPOS>MOLECULE
ASD15510002
  40   43    0    0    0
SMALL
NO_CHARGES


@<TRIPOS>ATOM
   1 O1            -0.0504     0.0433     0.0648 O.2     
   2 S2            -0.0286     1.4639     0.0423 S.o2    
   3 O3            -0.5917     2.1881    -1.0429 O.2     
   4 C4            -0.6089     2.1347     1.6246 C.3     
   5 N5             1.5819     1.8470    -0.0031 N.am    
   6 C6             2.4402     1.3716     0.9887 C.ar    
   7 C7             3.5392     2.1389     1.3945 C.ar    
   8 C8             4.3895     1.6552     2.3858 C.ar    
   9 C9             4.1460     0.4247     2.9625 C.ar    
  10 C10            3.0598    -0.3319     2.5596 C.ar    
  11 C11            2.2054     0.1395     1.5810 C.ar    
  12 C12            3.7964     3.4592     0.7718 C.ar    
  13 C13            4.9431     3.6602     0.0114 C.ar    
  14 C14            5.1898     4.8899    -0.5729 C.ar    
  15 C15            4.3007     5.9316    -0.4079 C.ar    
  16 C16            3.1459     5.7499     0.3505 C.ar    
  17 C17            2.8813     4.5078     0.9428 C.ar    
  18 C18            2.0220     6.6333     0.7127 C.ar    
  19 C19            1.1544     5.8678     1.5055 C.ar    
  20 N20            1.6864     4.5971     1.6309 N.pl3   
  21 C21            1.7160     7.9615     0.4256 C.ar    
  22 C22            0.5585     8.5201     0.9231 C.ar    
  23 C23           -0.3002     7.7650     1.7075 C.ar    
  24 C24           -0.0099     6.4497     1.9984 C.ar    
  25 H25           -0.0568     1.6692     2.4410 H       
  26 H26           -0.4462     3.2123     1.6440 H       
  27 H27           -1.6725     1.9257     1.7397 H       
  28 H28            1.9285     2.4019    -0.7193 H       
  29 H29            5.2389     2.2421     2.7029 H       
  30 H30            4.8063     0.0509     3.7311 H       
  31 H31            2.8765    -1.2939     3.0151 H       
  32 H32            1.3566    -0.4537     1.2743 H       
  33 H33            5.6458     2.8514    -0.1237 H       
  34 H34            6.0838     5.0351    -1.1612 H       
  35 H35            4.5022     6.8901    -0.8629 H       
  36 H36            1.2783     3.8719     2.1294 H       
  37 H37            2.3837     8.5517    -0.1845 H       
  38 H38            0.3196     9.5498     0.7016 H       
  39 H39           -1.2046     8.2116     2.0935 H       
  40 H40           -0.6856     5.8704     2.6102 H       
@<TRIPOS>BOND
   1    1    2 2
   2    2    5 am
   3    2    3 2
   4    2    4 1
   5    4   25 1
   6    4   26 1
   7    4   27 1
   8    5    6 1
   9    5   28 1
  10    6   11 ar
  11    6    7 ar
  12    7    8 ar
  13    7   12 1
  14    8    9 ar
  15    8   29 1
  16    9   10 ar
  17    9   30 1
  18   10   31 1
  19   10   11 ar
  20   11   32 1
  21   12   13 ar
  22   12   17 ar
  23   13   33 1
  24   13   14 ar
  25   14   34 1
  26   14   15 ar
  27   15   16 ar
  28   15   35 1
  29   16   17 ar
  30   16   18 1
  31   17   20 1
  32   18   19 ar
  33   18   21 ar
  34   19   20 1
  35   19   24 ar
  36   20   36 1
  37   21   37 1
  38   21   22 ar
  39   22   23 ar
  40   22   38 1
  41   23   24 ar
  42   23   39 1
  43   24   40 1

#	End of record

