#	Name: ASD10410150
#	Creating user name:	WinNT
#	Creation time:	15. 06. 2019 21:27

#	Modifying user name:	WinNT
#	Modification time:	15. 06. 2019 21:27

#	Program:	/corina/corina34_cracker 3.40 0067  02.08.2006

@<TRIPOS>MOLECULE
ASD10410150
  58   62    0    0    0
SMALL
NO_CHARGES


@<TRIPOS>ATOM
   1 C1             0.7536     0.5817     0.1202 C.ar    
   2 C2             0.4719    -0.7760     0.1576 C.ar    
   3 C3             1.5067    -1.6994     0.1832 C.ar    
   4 C4             2.8184    -1.2676     0.1715 C.ar    
   5 C5             3.1013     0.0915     0.1341 C.ar    
   6 C6             2.0647     1.0153     0.1084 C.ar    
   7 O7            -0.8195    -1.2021     0.1696 O.3     
   8 N8             4.4306     0.5301     0.1227 N.pl3   
   9 C9             4.7671     1.7189    -0.5241 C.2     
  10 N10            5.9528     2.2790    -0.5167 N.2     
  11 N11            3.9329     2.4668    -1.2559 N.2     
  12 C12            4.5724     3.5180    -1.7222 C.2     
  13 N13            5.8580     3.4510    -1.2845 N.pl3   
  14 C14            6.8787     4.3636    -1.5463 C.ar    
  15 N15            4.0342     4.5113    -2.5173 N.pl3   
  16 N16            6.8227     5.1149    -2.6287 N.ar    
  17 C17           -1.0365    -2.6140     0.2084 C.3     
  18 C18           -2.5397    -2.8989     0.2166 C.3     
  19 N19           -3.1267    -2.4679    -1.0592 N.3     
  20 C20           -3.0563    -0.9978    -1.2053 C.3     
  21 C21            7.9558     4.4796    -0.6521 C.ar    
  22 N22            8.9255     5.3324    -0.8813 N.ar    
  23 C23            8.8912     6.1010    -1.9770 C.ar    
  24 C24            7.8034     5.9904    -2.8785 C.ar    
  25 C25           -4.3171    -0.5592    -1.9730 C.3     
  26 C26           -5.1124    -1.8616    -2.2208 C.3     
  27 C27           -4.5700    -2.8126    -1.1245 C.3     
  28 C28           -4.7580    -4.2742    -1.5362 C.3     
  29 C29            9.9172     7.0225    -2.2469 C.ar    
  30 C30            9.8568     7.7909    -3.3688 C.ar    
  31 C31            8.7898     7.6784    -4.2580 C.ar    
  32 C32            7.7755     6.8008    -4.0266 C.ar    
  33 H33           -0.0527     1.2998     0.0957 H       
  34 H34            1.2865    -2.7563     0.2127 H       
  35 H35            3.6240    -1.9867     0.1918 H       
  36 H36            2.2838     2.0724     0.0789 H       
  37 H37            5.1177     0.0071     0.5646 H       
  38 H38            3.1014     4.4700    -2.7803 H       
  39 H39            4.5891     5.2500    -2.8127 H       
  40 H40           -0.5840    -3.0754    -0.6693 H       
  41 H41           -0.5836    -3.0265     1.1100 H       
  42 H42           -2.7062    -3.9677     0.3505 H       
  43 H43           -3.0086    -2.3528     1.0352 H       
  44 H44           -3.0377    -0.5274    -0.2222 H       
  45 H45           -2.1643    -0.7229    -1.7683 H       
  46 H46            7.9856     3.8610     0.2327 H       
  47 H47           -4.9045     0.1341    -1.3711 H       
  48 H48           -4.0413    -0.0982    -2.9214 H       
  49 H49           -6.1811    -1.6917    -2.0898 H       
  50 H50           -4.9027    -2.2585    -3.2140 H       
  51 H51           -5.0562    -2.6154    -0.1691 H       
  52 H52           -4.2401    -4.4559    -2.4780 H       
  53 H53           -4.3472    -4.9248    -0.7642 H       
  54 H54           -5.8206    -4.4830    -1.6598 H       
  55 H55           10.7503     7.1208    -1.5667 H       
  56 H56           10.6471     8.4982    -3.5726 H       
  57 H57            8.7651     8.2996    -5.1412 H       
  58 H58            6.9550     6.7240    -4.7247 H       
@<TRIPOS>BOND
   1    1    2 ar
   2    1    6 ar
   3    1   33 1
   4    2    3 ar
   5    2    7 1
   6    3    4 ar
   7    3   34 1
   8    4    5 ar
   9    4   35 1
  10    5    6 ar
  11    5    8 1
  12    6   36 1
  13    7   17 1
  14    8    9 1
  15    8   37 1
  16    9   10 2
  17    9   11 1
  18   10   13 1
  19   11   12 2
  20   12   13 1
  21   12   15 1
  22   13   14 1
  23   14   16 ar
  24   14   21 ar
  25   15   38 1
  26   15   39 1
  27   16   24 ar
  28   17   18 1
  29   17   40 1
  30   17   41 1
  31   18   19 1
  32   18   42 1
  33   18   43 1
  34   19   20 1
  35   19   27 1
  36   20   25 1
  37   20   44 1
  38   20   45 1
  39   21   22 ar
  40   21   46 1
  41   22   23 ar
  42   23   24 ar
  43   23   29 ar
  44   24   32 ar
  45   25   26 1
  46   25   47 1
  47   25   48 1
  48   26   27 1
  49   26   49 1
  50   26   50 1
  51   27   28 1
  52   27   51 1
  53   28   52 1
  54   28   53 1
  55   28   54 1
  56   29   30 ar
  57   29   55 1
  58   30   31 ar
  59   30   56 1
  60   31   32 ar
  61   31   57 1
  62   32   58 1

#	End of record

