#	Name: ASD13680027
#	Creating user name:	WinNT
#	Creation time:	15. 06. 2019 21:30

#	Modifying user name:	WinNT
#	Modification time:	15. 06. 2019 21:30

#	Program:	/corina/corina34_cracker 3.40 0067  02.08.2006

@<TRIPOS>MOLECULE
ASD13680027
  53   56    0    0    0
SMALL
NO_CHARGES


@<TRIPOS>ATOM
   1 C1            -0.0193     1.5123     0.0250 C.3     
   2 C2             0.0023    -0.0020     0.0103 C.2     
   3 C3             0.7560    -0.7679     0.8047 C.2     
   4 C4             1.7299    -0.2383     1.8431 C.3     
   5 C5             1.8869     2.2209     1.4608 C.3     
   6 C6             1.4085     2.0562     0.0211 C.3     
   7 C7             1.2755     1.1312     2.3387 C.3     
   8 C8             0.5463    -2.1873     0.5650 C.2     
   9 C9            -0.3616    -2.4431    -0.4229 C.2     
  10 S10           -0.9724    -0.9919    -1.0682 S.3     
  11 N11           -0.7340    -3.7100    -0.8420 N.am    
  12 C12            1.2419    -3.2402     1.3102 C.2     
  13 O13            0.7559    -3.6835     2.3343 O.2     
  14 N14            2.4198    -3.7175     0.8617 N.am    
  15 C15           -1.6414    -3.8540    -1.8280 C.2     
  16 C16           -2.0379    -5.2027    -2.2741 C.ar    
  17 C17           -1.4752    -6.3339    -1.6773 C.ar    
  18 C18           -1.8499    -7.5911    -2.0987 C.ar    
  19 C19           -2.7827    -7.7395    -3.1124 C.ar    
  20 C20           -3.3464    -6.6303    -3.7108 C.ar    
  21 C21           -2.9854    -5.3572    -3.2953 C.ar    
  22 O22           -2.1332    -2.8720    -2.3498 O.2     
  23 C23            3.1335    -4.6395     1.6240 C.ar    
  24 C24            4.2926    -5.2094     1.1087 C.ar    
  25 C25            4.9920    -6.1233     1.8765 C.ar    
  26 C26            4.5062    -6.4372     3.1388 C.ar    
  27 C27            3.3486    -5.8330     3.5872 C.ar    
  28 N28            2.7052    -4.9610     2.8345 N.ar    
  29 O29           -3.5431    -4.2665    -3.8782 O.3     
  30 C30           -4.5012    -4.5019    -4.9119 C.3     
  31 H31           -0.5469     1.8751    -0.8571 H       
  32 H32           -0.5355     1.8579     0.9207 H       
  33 H33            1.7735    -0.9306     2.6839 H       
  34 H34            2.7209    -0.1509     1.3978 H       
  35 H35            2.9737     2.1437     1.4924 H       
  36 H36            1.5836     3.1993     1.8336 H       
  37 H37            2.0624     1.3587    -0.5024 H       
  38 H38            1.4285     3.0229    -0.4821 H       
  39 H39            0.1884     1.1928     2.2897 H       
  40 H40            1.6007     1.2706     3.3697 H       
  41 H41           -0.3417    -4.4933    -0.4257 H       
  42 H42            2.7706    -3.4190     0.0080 H       
  43 H43           -0.7475    -6.2230    -0.8870 H       
  44 H44           -1.4142    -8.4648    -1.6371 H       
  45 H45           -3.0702    -8.7287    -3.4367 H       
  46 H46           -4.0726    -6.7542    -4.5006 H       
  47 H47            4.6419    -4.9425     0.1222 H       
  48 H48            5.8951    -6.5824     1.5025 H       
  49 H49            5.0282    -7.1470     3.7633 H       
  50 H50            2.9670    -6.0742     4.5684 H       
  51 H51           -4.0316    -5.0592    -5.7225 H       
  52 H52           -5.3349    -5.0778    -4.5103 H       
  53 H53           -4.8678    -3.5482    -5.2915 H       
@<TRIPOS>BOND
   1    1    2 1
   2    1    6 1
   3    1   31 1
   4    1   32 1
   5    2   10 1
   6    2    3 2
   7    3    4 1
   8    3    8 1
   9    4    7 1
  10    4   33 1
  11    4   34 1
  12    5    6 1
  13    5    7 1
  14    5   35 1
  15    5   36 1
  16    6   37 1
  17    6   38 1
  18    7   39 1
  19    7   40 1
  20    8    9 2
  21    8   12 1
  22    9   10 1
  23    9   11 1
  24   11   15 am
  25   11   41 1
  26   12   13 2
  27   12   14 am
  28   14   23 1
  29   14   42 1
  30   15   16 1
  31   15   22 2
  32   16   17 ar
  33   16   21 ar
  34   17   18 ar
  35   17   43 1
  36   18   19 ar
  37   18   44 1
  38   19   20 ar
  39   19   45 1
  40   20   21 ar
  41   20   46 1
  42   21   29 1
  43   23   24 ar
  44   23   28 ar
  45   24   25 ar
  46   24   47 1
  47   25   26 ar
  48   25   48 1
  49   26   27 ar
  50   26   49 1
  51   27   28 ar
  52   27   50 1
  53   29   30 1
  54   30   51 1
  55   30   52 1
  56   30   53 1

#	End of record

