#	Name: ASD15350001
#	Creating user name:	WinNT
#	Creation time:	15. 06. 2019 21:31

#	Modifying user name:	WinNT
#	Modification time:	15. 06. 2019 21:31

#	Program:	/corina/corina34_cracker 3.40 0067  02.08.2006

@<TRIPOS>MOLECULE
ASD15350001
  78   83    0    0    0
SMALL
NO_CHARGES


@<TRIPOS>ATOM
   1 C1             0.1965     1.3120     0.7075 C.ar    
   2 C2             0.2128    -0.0692     0.6517 C.ar    
   3 C3             1.4084    -0.7396     0.4732 C.ar    
   4 C4             2.5877    -0.0289     0.3500 C.ar    
   5 C5             2.5712     1.3522     0.4049 C.ar    
   6 C6             1.3758     2.0226     0.5848 C.ar    
   7 C7             3.8912    -0.7599     0.1563 C.3     
   8 C8             4.1503    -0.9531    -1.3392 C.3     
   9 N9             5.4175    -1.6637    -1.5275 N.pl3   
  10 C10            5.5832    -2.9975    -1.5991 C.2     
  11 N11            6.8654    -3.2087    -1.7704 N.2     
  12 N12            7.4564    -2.0642    -1.8022 N.2     
  13 N13            6.5837    -1.1283    -1.6614 N.2     
  14 C14            4.5040    -4.0448    -1.5007 C.3     
  15 N15            4.9842    -5.1673    -0.6838 N.4     
  16 C16            4.1574    -4.5402    -2.8810 C.2     
  17 C17            3.9369    -6.1939    -0.5984 C.3     
  18 C18            4.4370    -7.3631     0.2524 C.3     
  19 N19            4.7628    -6.8825     1.6018 N.4     
  20 C20            5.8101    -5.8559     1.5164 C.3     
  21 C21            5.3100    -4.6868     0.6656 C.3     
  22 C22            5.2430    -8.0051     2.4187 C.3     
  23 C23            6.4945    -8.6055     1.7751 C.3     
  24 C24            6.9945    -9.7747     2.6259 C.3     
  25 C25            7.3339    -9.2742     4.0314 C.3     
  26 C26            6.0824    -8.6738     4.6749 C.3     
  27 C27            5.5823    -7.5046     3.8241 C.3     
  28 C28            2.9147    -4.3310    -3.3815 C.2     
  29 C29            2.6093    -4.8241    -4.7259 C.ar    
  30 C30            3.6119    -5.4960    -5.4505 C.ar    
  31 N31            4.8573    -5.6765    -4.8835 N.am    
  32 C32            5.1292    -5.2151    -3.6504 C.2     
  33 C33            1.3448    -4.6377    -5.2932 C.ar    
  34 C34            1.0905    -5.1159    -6.5631 C.ar    
  35 C35            2.0851    -5.7804    -7.2764 C.ar    
  36 C36            3.3347    -5.9697    -6.7283 C.ar    
  37 O37            6.2402    -5.3922    -3.1814 O.2     
  38 O38           -0.1369    -4.9377    -7.1200 O.3     
  39 C39           -0.3336    -5.4568    -8.4367 C.3     
  40 H40           -0.7382     1.8359     0.8426 H       
  41 H41           -0.7085    -0.6244     0.7480 H       
  42 H42            1.4212    -1.8187     0.4303 H       
  43 H43            3.4926     1.9074     0.3093 H       
  44 H44            1.3630     3.1017     0.6281 H       
  45 H45            4.7026    -0.1779     0.5934 H       
  46 H46            3.8381    -1.7330     0.6445 H       
  47 H47            3.3389    -1.5351    -1.7763 H       
  48 H48            4.2034     0.0200    -1.8274 H       
  49 H49            3.6180    -3.6110    -1.0372 H       
  50 H50            5.8095    -5.5633    -1.1082 H       
  51 H51            3.0453    -5.7662    -0.1399 H       
  52 H52            3.6951    -6.5505    -1.5996 H       
  53 H53            3.6599    -8.1248     0.3158 H       
  54 H54            5.3286    -7.7908    -0.2061 H       
  55 H55            3.9375    -6.4866     2.0262 H       
  56 H56            6.0519    -5.4994     2.5177 H       
  57 H57            6.7017    -6.2837     1.0579 H       
  58 H58            6.0871    -3.9251     0.6023 H       
  59 H59            4.4184    -4.2590     1.1241 H       
  60 H60            4.4659    -8.7668     2.4821 H       
  61 H61            6.2527    -8.9621     0.7739 H       
  62 H62            7.2715    -7.8438     1.7118 H       
  63 H63            6.2175   -10.5364     2.6893 H       
  64 H64            7.8861   -10.2024     2.1675 H       
  65 H65            7.6902   -10.1071     4.6375 H       
  66 H66            8.1110    -8.5125     3.9680 H       
  67 H67            5.3053    -9.4355     4.7383 H       
  68 H68            6.3242    -8.3172     5.6762 H       
  69 H69            6.3594    -6.7429     3.7608 H       
  70 H70            4.6908    -7.0768     4.2826 H       
  71 H71            2.1663    -3.8121    -2.8009 H       
  72 H72            5.5474    -6.1398    -5.3834 H       
  73 H73            0.5720    -4.1232    -4.7413 H       
  74 H74            1.8747    -6.1508    -8.2688 H       
  75 H75            4.0986    -6.4862    -7.2905 H       
  76 H76            0.3703    -4.9849    -9.1222 H       
  77 H77           -0.1682    -6.5342    -8.4310 H       
  78 H78           -1.3528    -5.2474    -8.7614 H       
@<TRIPOS>BOND
   1    1    2 ar
   2    1    6 ar
   3    1   40 1
   4    2    3 ar
   5    2   41 1
   6    3    4 ar
   7    3   42 1
   8    4    5 ar
   9    4    7 1
  10    5    6 ar
  11    5   43 1
  12    6   44 1
  13    7    8 1
  14    7   45 1
  15    7   46 1
  16    8    9 1
  17    8   47 1
  18    8   48 1
  19    9   10 1
  20    9   13 1
  21   10   11 2
  22   10   14 1
  23   11   12 1
  24   12   13 2
  25   14   15 1
  26   14   16 1
  27   14   49 1
  28   15   17 1
  29   15   21 1
  30   15   50 1
  31   16   28 2
  32   16   32 1
  33   17   18 1
  34   17   51 1
  35   17   52 1
  36   18   19 1
  37   18   53 1
  38   18   54 1
  39   19   20 1
  40   19   22 1
  41   19   55 1
  42   20   21 1
  43   20   56 1
  44   20   57 1
  45   21   58 1
  46   21   59 1
  47   22   23 1
  48   22   27 1
  49   22   60 1
  50   23   24 1
  51   23   61 1
  52   23   62 1
  53   24   25 1
  54   24   63 1
  55   24   64 1
  56   25   26 1
  57   25   65 1
  58   25   66 1
  59   26   27 1
  60   26   67 1
  61   26   68 1
  62   27   69 1
  63   27   70 1
  64   28   29 1
  65   28   71 1
  66   29   30 ar
  67   29   33 ar
  68   30   31 1
  69   30   36 ar
  70   31   32 am
  71   31   72 1
  72   32   37 2
  73   33   34 ar
  74   33   73 1
  75   34   35 ar
  76   34   38 1
  77   35   36 ar
  78   35   74 1
  79   36   75 1
  80   38   39 1
  81   39   76 1
  82   39   77 1
  83   39   78 1

#	End of record

