#	Name: ASD11000006
#	Creating user name:	WinNT
#	Creation time:	15. 06. 2019 21:28

#	Modifying user name:	WinNT
#	Modification time:	15. 06. 2019 21:28

#	Program:	/corina/corina34_cracker 3.40 0067  02.08.2006

@<TRIPOS>MOLECULE
ASD11000006
  40   42    0    0    0
SMALL
NO_CHARGES


@<TRIPOS>ATOM
   1 C1            -0.0167     1.3779     0.0096 C.ar    
   2 C2             0.0021    -0.0041     0.0020 C.ar    
   3 C3             1.2086    -0.6806    -0.0138 C.ar    
   4 C4             2.3932     0.0340    -0.0221 C.ar    
   5 C5             2.3745     1.4047    -0.0140 C.ar    
   6 C6             1.1712     2.0869     0.0021 C.ar    
   7 C7             3.7128    -0.7092    -0.0413 C.3     
   8 C8             4.3852    -0.5380     1.3232 C.3     
   9 C9             5.1873     0.7473     1.3742 C.3     
  10 C10            4.3502     2.0107     1.3405 C.3     
  11 C11            3.6739     2.1829    -0.0224 C.3     
  12 N12            5.9852     0.7499     2.6077 N.3     
  13 C13            7.1739     1.6010     2.4639 C.3     
  14 C14            7.9656     1.5787     3.7460 C.ar    
  15 C15            8.9528     0.6291     3.9323 C.ar    
  16 C16            9.6790     0.6086     5.1083 C.ar    
  17 C17            9.4184     1.5380     6.0979 C.ar    
  18 C18            8.4319     2.4882     5.9112 C.ar    
  19 C19            7.7086     2.5114     4.7334 C.ar    
  20 H20           -0.9594     1.9047     0.0170 H       
  21 H21           -0.9261    -0.5563     0.0088 H       
  22 H22            1.2257    -1.7605    -0.0194 H       
  23 H23            1.1592     3.1669     0.0082 H       
  24 H24            3.5345    -1.7675    -0.2316 H       
  25 H25            4.3542    -0.2968    -0.8201 H       
  26 H26            3.6200    -0.5138     2.0991 H       
  27 H27            5.0502    -1.3826     1.5033 H       
  28 H28            5.8704     0.7625     0.5250 H       
  29 H29            3.5857     1.9546     2.1153 H       
  30 H30            4.9918     2.8706     1.5331 H       
  31 H31            4.3264     1.7985    -0.8063 H       
  32 H32            3.4676     3.2386    -0.1982 H       
  33 H33            5.4280     1.0375     3.3982 H       
  34 H34            7.7924     1.2264     1.6483 H       
  35 H35            6.8646     2.6231     2.2456 H       
  36 H36            9.1563    -0.0970     3.1592 H       
  37 H37           10.4497    -0.1337     5.2542 H       
  38 H38            9.9853     1.5216     7.0170 H       
  39 H39            8.2280     3.2141     6.6844 H       
  40 H40            6.9404     3.2560     4.5860 H       
@<TRIPOS>BOND
   1    1    2 ar
   2    1    6 ar
   3    1   20 1
   4    2    3 ar
   5    2   21 1
   6    3    4 ar
   7    3   22 1
   8    4    5 ar
   9    4    7 1
  10    5    6 ar
  11    5   11 1
  12    6   23 1
  13    7    8 1
  14    7   24 1
  15    7   25 1
  16    8    9 1
  17    8   26 1
  18    8   27 1
  19    9   10 1
  20    9   12 1
  21    9   28 1
  22   10   11 1
  23   10   29 1
  24   10   30 1
  25   11   31 1
  26   11   32 1
  27   12   13 1
  28   12   33 1
  29   13   14 1
  30   13   34 1
  31   13   35 1
  32   14   15 ar
  33   14   19 ar
  34   15   16 ar
  35   15   36 1
  36   16   17 ar
  37   16   37 1
  38   17   18 ar
  39   17   38 1
  40   18   19 ar
  41   18   39 1
  42   19   40 1

#	End of record

