#	Name: ASD15280020
#	Creating user name:	WinNT
#	Creation time:	15. 06. 2019 21:31

#	Modifying user name:	WinNT
#	Modification time:	15. 06. 2019 21:31

#	Program:	/corina/corina34_cracker 3.40 0067  02.08.2006

@<TRIPOS>MOLECULE
ASD15280020
  47   51    0    0    0
SMALL
NO_CHARGES


@<TRIPOS>ATOM
   1 Cl1            0.0021    -0.0041     0.0020 Cl      
   2 C2            -0.0215     1.7317     0.0116 C.ar    
   3 C3            -1.2398     2.4102     0.0327 C.ar    
   4 N4            -2.4112     1.6760     0.0742 N.am    
   5 C5            -3.5310     1.7986    -0.5857 C.2     
   6 O6            -4.3755     0.9614    -0.3332 O.2     
   7 C7            -3.9201     2.7958    -1.5848 C.ar    
   8 C8            -4.5941     2.3897    -2.7430 C.ar    
   9 C9            -4.9704     3.3208    -3.6867 C.ar    
  10 C10           -4.6867     4.6616    -3.4980 C.ar    
  11 C11           -4.0188     5.0741    -2.3576 C.ar    
  12 C12           -3.6358     4.1511    -1.4102 C.ar    
  13 S13           -2.7713     4.6724     0.0368 S.o2    
  14 O14           -2.4556     6.0449    -0.1525 O.2     
  15 O15           -3.5133     4.1888     1.1480 O.2     
  16 C16           -1.2376     3.7981     0.0314 C.ar    
  17 C17           -0.0496     4.5046     0.0228 C.ar    
  18 C18            1.1583     3.8387     0.0061 C.ar    
  19 C19            1.1770     2.4425     0.0039 C.ar    
  20 C20            2.4659     1.7196    -0.0121 C.2     
  21 O21            2.4811     0.5042    -0.0187 O.2     
  22 N22            3.6245     2.4081    -0.0195 N.am    
  23 C23            4.9023     1.6915    -0.0354 C.3     
  24 C24            6.0353     2.6851    -0.0409 C.2     
  25 C25            6.6391     3.1927     1.0368 C.2     
  26 N26            7.6076     4.0472     0.7708 N.2     
  27 C27            7.8527     4.2873    -0.4786 C.2     
  28 S28            6.8005     3.3746    -1.4702 S.3     
  29 N29            8.8353     5.1583    -0.9464 N.pl3   
  30 C30            9.6910     5.8852    -0.1812 C.2     
  31 C31           10.4822     6.5978    -1.0161 C.2     
  32 C32           10.1022     6.3005    -2.3297 C.2     
  33 N33            9.1210     5.4359    -2.2895 N.2     
  34 H34           -2.3984     0.9394     0.7052 H       
  35 H35           -4.8193     1.3447    -2.8972 H       
  36 H36           -5.4893     3.0019    -4.5786 H       
  37 H37           -4.9860     5.3865    -4.2406 H       
  38 H38           -3.7976     6.1210    -2.2111 H       
  39 H39           -0.0672     5.5844     0.0288 H       
  40 H40            2.0845     4.3941    -0.0011 H       
  41 H41            3.6124     3.3780    -0.0142 H       
  42 H42            4.9762     1.0610     0.8506 H       
  43 H43            4.9594     1.0704    -0.9292 H       
  44 H44            6.3571     2.9251     2.0443 H       
  45 H45            9.7318     5.8933     0.8980 H       
  46 H46           11.2682     7.2769    -0.7206 H       
  47 H47           10.5460     6.7117    -3.2243 H       
@<TRIPOS>BOND
   1    1    2 1
   2    2   19 ar
   3    2    3 ar
   4    3   16 ar
   5    3    4 1
   6    4    5 am
   7    4   34 1
   8    5    6 2
   9    5    7 1
  10    7   12 ar
  11    7    8 ar
  12    8    9 ar
  13    8   35 1
  14    9   10 ar
  15    9   36 1
  16   10   11 ar
  17   10   37 1
  18   11   12 ar
  19   11   38 1
  20   12   13 1
  21   13   14 2
  22   13   15 2
  23   13   16 1
  24   16   17 ar
  25   17   18 ar
  26   17   39 1
  27   18   19 ar
  28   18   40 1
  29   19   20 1
  30   20   21 2
  31   20   22 am
  32   22   23 1
  33   22   41 1
  34   23   24 1
  35   23   42 1
  36   23   43 1
  37   24   28 1
  38   24   25 2
  39   25   26 1
  40   25   44 1
  41   26   27 2
  42   27   28 1
  43   27   29 1
  44   29   33 1
  45   29   30 1
  46   30   31 2
  47   30   45 1
  48   31   32 1
  49   31   46 1
  50   32   33 2
  51   32   47 1

#	End of record

