#	Name: ASD10420006
#	Creating user name:	WinNT
#	Creation time:	15. 06. 2019 21:27

#	Modifying user name:	WinNT
#	Modification time:	15. 06. 2019 21:27

#	Program:	/corina/corina34_cracker 3.40 0067  02.08.2006

@<TRIPOS>MOLECULE
ASD10420006
  65   69    0    0    0
SMALL
NO_CHARGES


@<TRIPOS>ATOM
   1 N1            -0.1079     0.2796    -0.5681 N.pl3   
   2 C2            -0.5080    -0.9555    -1.0018 C.2     
   3 C3            -1.9132    -0.9628    -1.0627 C.2     
   4 C4            -2.3516     0.2966    -0.6555 C.2     
   5 C5            -1.2304     1.0549    -0.3588 C.2     
   6 C6             1.2204     0.5561    -0.4195 C.2     
   7 C7             2.1557    -0.3786    -0.6967 C.2     
   8 C8             1.7728    -1.6519    -1.1431 C.2     
   9 C9             0.4486    -1.9404    -1.2939 C.2     
  10 C10           -1.2357     2.3979     0.0926 C.2     
  11 N11           -1.2047     3.4085    -0.7986 N.am    
  12 C12           -1.0498     3.1422    -2.2368 C.3     
  13 C13            0.0938     4.0105    -2.7722 C.3     
  14 N14           -0.1581     5.4153    -2.4242 N.3     
  15 C15           -0.1704     5.6096    -0.9681 C.3     
  16 C16           -1.3309     4.8065    -0.3594 C.3     
  17 O17           -1.2684     2.6392     1.2860 O.2     
  18 C18           -3.7849     0.7525    -0.5611 C.3     
  19 C19           -4.3104     0.4741     0.8236 C.ar    
  20 C20           -4.4965     1.5147     1.7140 C.ar    
  21 C21           -4.6115    -0.8212     1.2008 C.ar    
  22 C22           -5.0937    -1.0781     2.4709 C.ar    
  23 C23           -5.2756    -0.0401     3.3645 C.ar    
  24 C24           -4.9793     1.2586     2.9860 C.ar    
  25 F25           -5.1564     2.2743     3.8590 F       
  26 C26           -4.1735     2.9274     1.3006 C.3     
  27 C27           -2.7682    -2.0973    -1.4813 C.ar    
  28 C28           -2.8000    -3.2675    -0.7227 C.ar    
  29 C29           -3.5989    -4.3208    -1.1177 C.ar    
  30 C30           -4.3670    -4.2182    -2.2639 C.ar    
  31 C31           -4.3394    -3.0604    -3.0208 C.ar    
  32 C32           -3.5493    -1.9979    -2.6328 C.ar    
  33 C33           -0.3591     7.0948    -0.6528 C.3     
  34 C34            0.8534     7.8810    -1.1556 C.3     
  35 O35            0.6772     9.2682    -0.8611 O.3     
  36 H36            1.5272     1.5332    -0.0768 H       
  37 H37            3.2028    -0.1441    -0.5744 H       
  38 H38            2.5211    -2.3983    -1.3654 H       
  39 H39            0.1389    -2.9165    -1.6369 H       
  40 H40           -0.8131     2.0894    -2.3908 H       
  41 H41           -1.9742     3.3926    -2.7572 H       
  42 H42            1.0347     3.6883    -2.3261 H       
  43 H43            0.1509     3.9089    -3.8559 H       
  44 H44            0.5161     6.0234    -2.8644 H       
  45 H45            0.7742     5.2652    -0.5472 H       
  46 H46           -2.2803     5.2193    -0.7003 H       
  47 H47           -1.2775     4.8532     0.7283 H       
  48 H48           -3.8399     1.8223    -0.7623 H       
  49 H49           -4.3865     0.2137    -1.2932 H       
  50 H50           -4.4703    -1.6331     0.5027 H       
  51 H51           -5.3286    -2.0906     2.7645 H       
  52 H52           -5.6530    -0.2409     4.3563 H       
  53 H53           -5.0357     3.3647     0.7970 H       
  54 H54           -3.9306     3.5180     2.1839 H       
  55 H55           -3.3208     2.9214     0.6217 H       
  56 H56           -2.2004    -3.3490     0.1718 H       
  57 H57           -3.6245    -5.2273    -0.5312 H       
  58 H58           -4.9905    -5.0455    -2.5692 H       
  59 H59           -4.9409    -2.9865    -3.9147 H       
  60 H60           -3.5288    -1.0945    -3.2243 H       
  61 H61           -1.2592     7.4598    -1.1474 H       
  62 H62           -0.4571     7.2279     0.4245 H       
  63 H63            1.7536     7.5160    -0.6610 H       
  64 H64            0.9515     7.7479    -2.2330 H       
  65 H65            1.4098     9.8282    -1.1523 H       
@<TRIPOS>BOND
   1    1    2 1
   2    1    6 1
   3    1    5 1
   4    2    3 2
   5    2    9 1
   6    3    4 1
   7    3   27 1
   8    4    5 2
   9    4   18 1
  10    5   10 1
  11    6    7 2
  12    6   36 1
  13    7    8 1
  14    7   37 1
  15    8    9 2
  16    8   38 1
  17    9   39 1
  18   10   11 am
  19   10   17 2
  20   11   12 1
  21   11   16 1
  22   12   13 1
  23   12   40 1
  24   12   41 1
  25   13   14 1
  26   13   42 1
  27   13   43 1
  28   14   15 1
  29   14   44 1
  30   15   16 1
  31   15   33 1
  32   15   45 1
  33   16   46 1
  34   16   47 1
  35   18   19 1
  36   18   48 1
  37   18   49 1
  38   19   20 ar
  39   19   21 ar
  40   20   26 1
  41   20   24 ar
  42   21   22 ar
  43   21   50 1
  44   22   23 ar
  45   22   51 1
  46   23   24 ar
  47   23   52 1
  48   24   25 1
  49   26   53 1
  50   26   54 1
  51   26   55 1
  52   27   28 ar
  53   27   32 ar
  54   28   29 ar
  55   28   56 1
  56   29   30 ar
  57   29   57 1
  58   30   31 ar
  59   30   58 1
  60   31   32 ar
  61   31   59 1
  62   32   60 1
  63   33   34 1
  64   33   61 1
  65   33   62 1
  66   34   35 1
  67   34   63 1
  68   34   64 1
  69   35   65 1

#	End of record

