#	Name: ASD13620007
#	Creating user name:	WinNT
#	Creation time:	15. 06. 2019 21:30

#	Modifying user name:	WinNT
#	Modification time:	15. 06. 2019 21:30

#	Program:	/corina/corina34_cracker 3.40 0067  02.08.2006

@<TRIPOS>MOLECULE
ASD13620007
  41   43    0    0    0
SMALL
NO_CHARGES


@<TRIPOS>ATOM
   1 C1            -0.0167     1.3784     0.0096 C.ar    
   2 C2             0.0021    -0.0041     0.0020 C.ar    
   3 C3             1.2082    -0.6788    -0.0132 C.ar    
   4 C4             2.3960     0.0287    -0.0212 C.ar    
   5 C5             2.3773     1.4107    -0.0145 C.ar    
   6 C6             1.1708     2.0856     0.0021 C.ar    
   7 N7             3.6878    -0.6938    -0.0365 N.pl3   
   8 S8             1.1469     3.8475     0.0112 S.o2    
   9 N9             1.1550     4.3296     1.5955 N.am    
  10 O10            2.3859     4.2684    -0.5427 O.2     
  11 O11           -0.1133     4.2344    -0.5194 O.2     
  12 C12            2.3168     4.0456     2.4416 C.3     
  13 C13            2.2437     4.8969     3.7108 C.3     
  14 O14            1.1079     4.5033     4.4836 O.3     
  15 C15            0.8965     5.1656     5.6506 C.ar    
  16 C16           -0.2050     4.8315     6.4663 C.ar    
  17 N17           -1.0574     3.8654     6.1126 N.ar    
  18 C18           -2.0827     3.5514     6.8666 C.ar    
  19 C19           -2.3350     4.2061     8.0704 C.ar    
  20 C20           -1.5024     5.2037     8.4908 C.ar    
  21 C21           -0.4026     5.5376     7.6780 C.ar    
  22 C22            0.4967     6.5520     8.0455 C.ar    
  23 C23            1.5497     6.8474     7.2342 C.ar    
  24 C24            1.7523     6.1547     6.0434 C.ar    
  25 O25            3.7043    -1.9117    -0.0420 O.2     
  26 O26            4.7342    -0.0705    -0.0436 O.2     
  27 H27           -0.9592     1.9056     0.0170 H       
  28 H28           -0.9258    -0.5567     0.0083 H       
  29 H29            1.2229    -1.7587    -0.0184 H       
  30 H30            3.3051     1.9634    -0.0201 H       
  31 H31            0.3906     4.8000     1.9632 H       
  32 H32            2.3199     2.9896     2.7120 H       
  33 H33            3.2302     4.2837     1.8965 H       
  34 H34            3.1505     4.7523     4.2980 H       
  35 H35            2.1511     5.9482     3.4383 H       
  36 H36           -2.7496     2.7646     6.5461 H       
  37 H37           -3.1882     3.9253     8.6700 H       
  38 H38           -1.6826     5.7219     9.4211 H       
  39 H39            0.3534     7.0957     8.9676 H       
  40 H40            2.2390     7.6282     7.5198 H       
  41 H41            2.5951     6.4083     5.4175 H       
@<TRIPOS>BOND
   1    1    2 ar
   2    1    6 ar
   3    1   27 1
   4    2    3 ar
   5    2   28 1
   6    3    4 ar
   7    3   29 1
   8    4    5 ar
   9    4    7 1
  10    5    6 ar
  11    5   30 1
  12    6    8 1
  13    7   25 2
  14    7   26 2
  15    8    9 am
  16    8   10 2
  17    8   11 2
  18    9   12 1
  19    9   31 1
  20   12   13 1
  21   12   32 1
  22   12   33 1
  23   13   14 1
  24   13   34 1
  25   13   35 1
  26   14   15 1
  27   15   16 ar
  28   15   24 ar
  29   16   17 ar
  30   16   21 ar
  31   17   18 ar
  32   18   19 ar
  33   18   36 1
  34   19   20 ar
  35   19   37 1
  36   20   21 ar
  37   20   38 1
  38   21   22 ar
  39   22   23 ar
  40   22   39 1
  41   23   24 ar
  42   23   40 1
  43   24   41 1

#	End of record

