#	Name: ASD13790005
#	Creating user name:	WinNT
#	Creation time:	15. 06. 2019 21:30

#	Modifying user name:	WinNT
#	Modification time:	15. 06. 2019 21:30

#	Program:	/corina/corina34_cracker 3.40 0067  02.08.2006

@<TRIPOS>MOLECULE
ASD13790005
  36   38    0    0    0
SMALL
NO_CHARGES


@<TRIPOS>ATOM
   1 N1            -0.0160     1.3250     0.0093 N.ar    
   2 C2             0.0021    -0.0041     0.0020 C.ar    
   3 N3             1.1621    -0.6532    -0.0121 N.ar    
   4 C4             2.3047     0.0274    -0.0194 C.ar    
   5 N5             2.2862     1.3570    -0.0125 N.ar    
   6 C6             1.1256     2.0055     0.0021 C.ar    
   7 C7             3.5988    -0.6962    -0.0346 C.ar    
   8 C8             3.6210    -2.0900    -0.0414 C.ar    
   9 C9             4.8285    -2.7581    -0.0555 C.ar    
  10 C10            6.0152    -2.0474    -0.0626 C.ar    
  11 C11            5.9993    -0.6642    -0.0559 C.ar    
  12 C12            4.7978     0.0147    -0.0480 C.ar    
  13 N13            1.1063     3.3855     0.0092 N.pl3   
  14 C14           -0.1725     4.1002     0.0248 C.3     
  15 C15            0.0821     5.5855     0.0299 C.ar    
  16 C16            0.4493     7.6222     1.2339 C.ar    
  17 C17            0.2157     6.2597     1.2292 C.ar    
  18 C18            0.1877     6.2728    -1.1648 C.ar    
  19 C19            0.4212     7.6352    -1.1602 C.ar    
  20 C20            0.5487     8.3105     0.0393 C.ar    
  21 N21           -1.1838    -0.7103     0.0095 N.pl3   
  22 H22            2.6951    -2.6459    -0.0352 H       
  23 H23            4.8469    -3.8379    -0.0608 H       
  24 H24            6.9578    -2.5744    -0.0729 H       
  25 H25            6.9289    -0.1144    -0.0611 H       
  26 H26            4.7865     1.0946    -0.0477 H       
  27 H27            1.9394     3.8823     0.0039 H       
  28 H28           -0.7486     3.8333    -0.8612 H       
  29 H29           -0.7320     3.8244     0.9187 H       
  30 H30            0.5533     8.1490     2.1710 H       
  31 H31            0.1373     5.7221     2.1626 H       
  32 H32            0.0881     5.7452    -2.1019 H       
  33 H33            0.5044     8.1721    -2.0936 H       
  34 H34            0.7312     9.3750     0.0429 H       
  35 H35           -2.0302    -0.2367     0.0202 H       
  36 H36           -1.1707    -1.6802     0.0042 H       
@<TRIPOS>BOND
   1    1    2 ar
   2    1    6 ar
   3    2    3 ar
   4    2   21 1
   5    3    4 ar
   6    4    5 ar
   7    4    7 1
   8    5    6 ar
   9    6   13 1
  10    7    8 ar
  11    7   12 ar
  12    8    9 ar
  13    8   22 1
  14    9   10 ar
  15    9   23 1
  16   10   11 ar
  17   10   24 1
  18   11   12 ar
  19   11   25 1
  20   12   26 1
  21   13   14 1
  22   13   27 1
  23   14   15 1
  24   14   28 1
  25   14   29 1
  26   15   18 ar
  27   15   17 ar
  28   16   17 ar
  29   16   20 ar
  30   16   30 1
  31   17   31 1
  32   18   19 ar
  33   18   32 1
  34   19   20 ar
  35   19   33 1
  36   20   34 1
  37   21   35 1
  38   21   36 1

#	End of record

