#	Name: ASD15280010
#	Creating user name:	WinNT
#	Creation time:	15. 06. 2019 21:31

#	Modifying user name:	WinNT
#	Modification time:	15. 06. 2019 21:31

#	Program:	/corina/corina34_cracker 3.40 0067  02.08.2006

@<TRIPOS>MOLECULE
ASD15280010
  58   63    0    0    0
SMALL
NO_CHARGES


@<TRIPOS>ATOM
   1 O1             0.0021    -0.0041     0.0020 O.2     
   2 C2            -0.0144     1.2113     0.0087 C.2     
   3 N3             1.1435     1.9010     0.0013 N.am    
   4 C4             2.4220     1.1859    -0.0147 C.3     
   5 C5             3.5540     2.1806    -0.0202 C.ar    
   6 C6             4.0564     2.6462    -1.2219 C.ar    
   7 C7             5.0930     3.5573    -1.2328 C.ar    
   8 C8             5.6335     4.0081    -0.0302 C.ar    
   9 C9             5.1236     3.5358     1.1774 C.ar    
  10 C10            4.0830     2.6291     1.1766 C.ar    
  11 C11            6.7485     4.9873    -0.0356 C.ar    
  12 C12            7.2540     5.4629    -1.2497 C.ar    
  13 C13            8.2797     6.3636    -1.2726 C.ar    
  14 C14            8.8367     6.8209    -0.0819 C.ar    
  15 N15            9.8530     7.7039     0.2074 N.pl3   
  16 H16           10.3792     8.1829    -0.4519 H       
  17 C17           10.0100     7.8058     1.5628 C.2     
  18 C18            9.1248     7.0135     2.1874 C.2     
  19 C19            8.3358     6.3495     1.1464 C.ar    
  20 C20            7.2843     5.4339     1.1646 C.ar    
  21 C21           -1.3048     1.9331     0.0187 C.ar    
  22 C22           -1.3247     3.3288     0.0207 C.ar    
  23 C23           -2.5338     3.9938     0.0241 C.ar    
  24 C24           -3.7203     3.2857     0.0311 C.ar    
  25 C25           -3.7195     1.8972     0.0390 C.ar    
  26 N26           -4.8900     1.1617     0.0714 N.am    
  27 C27           -6.0033     1.2808    -0.6003 C.2     
  28 O28           -6.8487     0.4427    -0.3537 O.2     
  29 C29           -6.3849     2.2740    -1.6061 C.ar    
  30 C30           -7.0472     1.8631    -2.7694 C.ar    
  31 C31           -7.4172     2.7905    -3.7191 C.ar    
  32 C32           -7.1380     4.1325    -3.5321 C.ar    
  33 C33           -6.4811     4.5498    -2.3870 C.ar    
  34 C34           -6.1052     3.6307    -1.4332 C.ar    
  35 S35           -5.2550     4.1580     0.0195 S.o2    
  36 O36           -6.0044     3.6735     1.1254 O.2     
  37 O37           -4.9393     5.5302    -0.1716 O.2     
  38 C38           -2.5015     1.2215     0.0206 C.ar    
  39 H39            1.1303     2.8709     0.0067 H       
  40 H40            2.4967     0.5553     0.8712 H       
  41 H41            2.4797     0.5648    -0.9086 H       
  42 H42            3.6369     2.2959    -2.1534 H       
  43 H43            5.4847     3.9199    -2.1716 H       
  44 H44            5.5391     3.8816     2.1124 H       
  45 H45            3.6841     2.2656     2.1121 H       
  46 H46            6.8287     5.1138    -2.1790 H       
  47 H47            8.6603     6.7220    -2.2176 H       
  48 H48           10.7390     8.4309     2.0570 H       
  49 H49            9.0149     6.8890     3.2546 H       
  50 H50            6.8933     5.0719     2.1039 H       
  51 H51           -0.3990     3.8851     0.0198 H       
  52 H52           -2.5529     5.0737     0.0216 H       
  53 H53           -4.8826     0.4273     0.7050 H       
  54 H54           -7.2688     0.8172    -2.9225 H       
  55 H55           -7.9276     2.4679    -4.6145 H       
  56 H56           -7.4321     4.8545    -4.2794 H       
  57 H57           -6.2633     5.5976    -2.2417 H       
  58 H58           -2.4853     0.1417     0.0118 H       
@<TRIPOS>BOND
   1    1    2 2
   2    2    3 am
   3    2   21 1
   4    3    4 1
   5    3   39 1
   6    4    5 1
   7    4   40 1
   8    4   41 1
   9    5   10 ar
  10    5    6 ar
  11    6    7 ar
  12    6   42 1
  13    7    8 ar
  14    7   43 1
  15    8    9 ar
  16    8   11 1
  17    9   10 ar
  18    9   44 1
  19   10   45 1
  20   11   20 ar
  21   11   12 ar
  22   12   13 ar
  23   12   46 1
  24   13   14 ar
  25   13   47 1
  26   14   19 ar
  27   14   15 1
  28   15   16 1
  29   15   17 1
  30   17   18 2
  31   17   48 1
  32   18   19 1
  33   18   49 1
  34   19   20 ar
  35   20   50 1
  36   21   38 ar
  37   21   22 ar
  38   22   23 ar
  39   22   51 1
  40   23   24 ar
  41   23   52 1
  42   24   35 1
  43   24   25 ar
  44   25   26 1
  45   25   38 ar
  46   26   27 am
  47   26   53 1
  48   27   28 2
  49   27   29 1
  50   29   34 ar
  51   29   30 ar
  52   30   31 ar
  53   30   54 1
  54   31   32 ar
  55   31   55 1
  56   32   33 ar
  57   32   56 1
  58   33   34 ar
  59   33   57 1
  60   34   35 1
  61   35   36 2
  62   35   37 2
  63   38   58 1

#	End of record

