#	Name: ASD16820001
#	Creating user name:	WinNT
#	Creation time:	15. 06. 2019 21:31

#	Modifying user name:	WinNT
#	Modification time:	15. 06. 2019 21:31

#	Program:	/corina/corina34_cracker 3.40 0067  02.08.2006

@<TRIPOS>MOLECULE
ASD16820001
  26   26    0    0    0
SMALL
NO_CHARGES


@<TRIPOS>ATOM
   1 C1            -0.0183     1.4949     0.0103 C.3     
   2 C2             0.0021    -0.0041     0.0020 C.2     
   3 C3             1.0428    -0.6960     0.3537 C.2     
   4 C4             2.3258    -0.0635     0.8023 C.3     
   5 O5             2.3970    -0.1095     2.2288 O.3     
   6 C6             2.4129     1.3637     0.3517 C.2     
   7 C7             1.3720     2.0557    -0.0000 C.2     
   8 C8            -0.7579     1.9856    -1.2076 C.2     
   9 O9            -1.7496     2.6638    -1.0796 O.2     
  10 O10           -0.3150     1.6692    -2.4346 O.3     
  11 C11           -0.7454     1.9797     1.2661 C.3     
  12 C12           -0.7702     3.4864     1.2820 C.2     
  13 O13           -0.2590     4.1084     0.3817 O.2     
  14 C14           -1.4257     4.2091     2.4090 C.2     
  15 O15           -1.9390     3.5846     3.3130 O.2     
  16 O16           -1.4479     5.5548     2.4232 O.3     
  17 H17           -0.8876    -0.5311    -0.3096 H       
  18 H18            0.9815    -1.7738     0.3220 H       
  19 H19            3.1641    -0.6210     0.3846 H       
  20 H20            3.2016     0.2822     2.5952 H       
  21 H21            3.3833     1.8367     0.3186 H       
  22 H22            1.5138     3.0796    -0.3131 H       
  23 H23           -0.8225     2.0069    -3.1852 H       
  24 H24           -1.7669     1.5995     1.2641 H       
  25 H25           -0.2239     1.6155     2.1513 H       
  26 H26           -1.8844     5.9787     3.1748 H       
@<TRIPOS>BOND
   1    1    2 1
   2    1    7 1
   3    1    8 1
   4    1   11 1
   5    2    3 2
   6    2   17 1
   7    3    4 1
   8    3   18 1
   9    4    5 1
  10    4    6 1
  11    4   19 1
  12    5   20 1
  13    6    7 2
  14    6   21 1
  15    7   22 1
  16    8    9 2
  17    8   10 1
  18   10   23 1
  19   11   12 1
  20   11   24 1
  21   11   25 1
  22   12   13 2
  23   12   14 1
  24   14   15 2
  25   14   16 1
  26   16   26 1

#	End of record

