#	Name: ASD15090003
#	Creating user name:	WinNT
#	Creation time:	15. 06. 2019 21:31

#	Modifying user name:	WinNT
#	Modification time:	15. 06. 2019 21:31

#	Program:	/corina/corina34_cracker 3.40 0067  02.08.2006

@<TRIPOS>MOLECULE
ASD15090003
  29   31    0    0    0
SMALL
NO_CHARGES


@<TRIPOS>ATOM
   1 C1            -0.0552     1.2773     0.0149 C.2     
   2 N2             0.0862    -0.0072    -0.3923 N.pl3   
   3 S3             1.7471    -0.3504    -0.2669 S.3     
   4 C4             2.1716     1.2646     0.3320 C.2     
   5 N5             1.0030     1.9252     0.3833 N.2     
   6 C6            -0.9227    -0.8703    -0.8248 C.ar    
   7 C7            -0.6299    -1.8892    -1.7233 C.ar    
   8 C8            -1.6300    -2.7411    -2.1485 C.ar    
   9 C9            -2.9219    -2.5810    -1.6815 C.ar    
  10 C10           -3.2170    -1.5682    -0.7872 C.ar    
  11 C11           -2.2208    -0.7160    -0.3533 C.ar    
  12 C12           -1.3843     1.9248     0.0321 C.ar    
  13 C13           -1.7944     2.6536     1.1495 C.ar    
  14 C14           -3.0357     3.2557     1.1590 C.ar    
  15 C15           -3.8733     3.1382     0.0641 C.ar    
  16 C16           -3.4730     2.4166    -1.0465 C.ar    
  17 C17           -2.2320     1.8145    -1.0711 C.ar    
  18 N18            3.3672     1.7158     0.6548 N.2     
  19 H19            0.3786    -2.0143    -2.0889 H       
  20 H20           -1.4032    -3.5331    -2.8467 H       
  21 H21           -3.7023    -3.2484    -2.0162 H       
  22 H22           -4.2270    -1.4461    -0.4246 H       
  23 H23           -2.4511     0.0719     0.3485 H       
  24 H24           -1.1416     2.7459     2.0049 H       
  25 H25           -3.3544     3.8197     2.0231 H       
  26 H26           -4.8440     3.6114     0.0765 H       
  27 H27           -4.1319     2.3281    -1.8977 H       
  28 H28           -1.9187     1.2556    -1.9405 H       
  29 H29            3.4724     2.6261     0.9730 H       
@<TRIPOS>BOND
   1    1    2 1
   2    1    5 2
   3    1   12 1
   4    2    3 1
   5    2    6 1
   6    3    4 1
   7    4    5 1
   8    4   18 2
   9    6    7 ar
  10    6   11 ar
  11    7    8 ar
  12    7   19 1
  13    8    9 ar
  14    8   20 1
  15    9   10 ar
  16    9   21 1
  17   10   11 ar
  18   10   22 1
  19   11   23 1
  20   12   13 ar
  21   12   17 ar
  22   13   14 ar
  23   13   24 1
  24   14   15 ar
  25   14   25 1
  26   15   16 ar
  27   15   26 1
  28   16   17 ar
  29   16   27 1
  30   17   28 1
  31   18   29 1

#	End of record

