#	Name: ASD14300005
#	Creating user name:	WinNT
#	Creation time:	15. 06. 2019 21:31

#	Modifying user name:	WinNT
#	Modification time:	15. 06. 2019 21:31

#	Program:	/corina/corina34_cracker 3.40 0067  02.08.2006

@<TRIPOS>MOLECULE
ASD14300005
  53   56    0    0    0
SMALL
NO_CHARGES


@<TRIPOS>ATOM
   1 N1             2.1112     0.5308    -0.1836 N.pl3   
   2 C2             1.3686    -0.6098    -0.1983 C.2     
   3 C3             0.0671    -0.2781    -0.0376 C.2     
   4 C4            -0.0076     1.1166     0.0815 C.2     
   5 C5             1.2650     1.6015    -0.0109 C.2     
   6 C6             1.6619     3.0194     0.0625 C.ar    
   7 N7             2.9519     3.3487     0.1316 N.ar    
   8 C8             3.3077     4.6270     0.1972 C.ar    
   9 N9             2.3780     5.5778     0.1943 N.ar    
  10 C10            1.0911     5.2513     0.1254 C.ar    
  11 N11            0.7317     3.9740     0.0541 N.ar    
  12 C12            3.5042     0.6020    -0.3162 C.ar    
  13 C13            4.3235    -0.0759     0.5766 C.ar    
  14 C14            5.6963    -0.0042     0.4430 C.ar    
  15 C15            6.2550     0.7421    -0.5784 C.ar    
  16 C16            5.4416     1.4186    -1.4688 C.ar    
  17 C17            4.0680     1.3458    -1.3442 C.ar    
  18 N18            0.1279     6.2400     0.1226 N.pl3   
  19 N19            4.6432     4.9685     0.2689 N.3     
  20 C20            5.4455     3.8302     0.3892 C.3     
  21 C21            7.5813     4.6614    -0.5717 C.3     
  22 C22            5.0175     5.8749    -0.8347 C.3     
  23 C23            6.1413     6.7580    -0.3534 C.3     
  24 C24            7.5160     6.1917    -0.7477 C.3     
  25 C25            0.5252     7.6496     0.0831 C.3     
  26 C26           -1.2916     5.8798     0.1590 C.3     
  27 C27            6.9142     4.1948     0.6971 C.3     
  28 H28            1.7539    -1.6116    -0.3180 H       
  29 H29           -0.7658    -0.9650    -0.0070 H       
  30 H30           -0.9061     1.6997     0.2200 H       
  31 H31            3.8878    -0.6583     1.3749 H       
  32 H32            6.3341    -0.5313     1.1371 H       
  33 H33            7.3287     0.7969    -0.6806 H       
  34 H34            5.8809     2.0013    -2.2651 H       
  35 H35            3.4333     1.8709    -2.0426 H       
  36 H36            5.0581     3.2060     1.1944 H       
  37 H37            5.4071     3.2682    -0.5440 H       
  38 H38            7.0910     4.1878    -1.4222 H       
  39 H39            8.6267     4.3532    -0.5540 H       
  40 H40            5.3495     5.2917    -1.6937 H       
  41 H41            4.1609     6.4882    -1.1141 H       
  42 H42            6.0264     7.7499    -0.7906 H       
  43 H43            6.0886     6.8409     0.7322 H       
  44 H44            8.2817     6.6533    -0.1242 H       
  45 H45            7.7148     6.4374    -1.7908 H       
  46 H46            0.6032     7.9762    -0.9538 H       
  47 H47           -0.2224     8.2523     0.5987 H       
  48 H48            1.4904     7.7689     0.5753 H       
  49 H49           -1.3898     4.8005     0.2754 H       
  50 H50           -1.7722     6.3811     0.9991 H       
  51 H51           -1.7691     6.1899    -0.7705 H       
  52 H52            6.9440     4.9925     1.4393 H       
  53 H53            7.4348     3.3177     1.0815 H       
@<TRIPOS>BOND
   1    1    2 1
   2    1    5 1
   3    1   12 1
   4    2    3 2
   5    2   28 1
   6    3    4 1
   7    3   29 1
   8    4    5 2
   9    4   30 1
  10    5    6 1
  11    6    7 ar
  12    6   11 ar
  13    7    8 ar
  14    8    9 ar
  15    8   19 1
  16    9   10 ar
  17   10   11 ar
  18   10   18 1
  19   12   13 ar
  20   12   17 ar
  21   13   14 ar
  22   13   31 1
  23   14   15 ar
  24   14   32 1
  25   15   16 ar
  26   15   33 1
  27   16   17 ar
  28   16   34 1
  29   17   35 1
  30   18   25 1
  31   18   26 1
  32   19   20 1
  33   19   22 1
  34   20   27 1
  35   20   36 1
  36   20   37 1
  37   21   24 1
  38   21   27 1
  39   21   38 1
  40   21   39 1
  41   22   23 1
  42   22   40 1
  43   22   41 1
  44   23   24 1
  45   23   42 1
  46   23   43 1
  47   24   44 1
  48   24   45 1
  49   25   46 1
  50   25   47 1
  51   25   48 1
  52   26   49 1
  53   26   50 1
  54   26   51 1
  55   27   52 1
  56   27   53 1

#	End of record

