#	Name: ASD10420190
#	Creating user name:	WinNT
#	Creation time:	15. 06. 2019 21:27

#	Modifying user name:	WinNT
#	Modification time:	15. 06. 2019 21:27

#	Program:	/corina/corina34_cracker 3.40 0067  02.08.2006

@<TRIPOS>MOLECULE
ASD10420190
  30   32    0    0    0
SMALL
NO_CHARGES


@<TRIPOS>ATOM
   1 C1            -0.0167     1.3803     0.0096 C.ar    
   2 C2             0.0021    -0.0041     0.0020 C.ar    
   3 C3            -1.1840    -0.7183     0.0095 C.ar    
   4 C4            -2.3938    -0.0529     0.0246 C.ar    
   5 C5            -2.4194     1.3428     0.0324 C.ar    
   6 C6            -1.2200     2.0572     0.0305 C.ar    
   7 Cl7            1.4758     2.2669     0.0001 Cl      
   8 Cl8           -1.1501    -2.4539    -0.0007 Cl      
   9 C9            -3.7105     2.0610     0.0480 C.2     
  10 N10           -4.9046     1.5134     0.0565 N.2     
  11 N11           -5.7987     2.4385     0.0695 N.2     
  12 C12           -5.2108     3.6134     0.0698 C.2     
  13 O13           -3.8794     3.3989     0.0622 O.3     
  14 C14           -5.8845     4.9282     0.0822 C.ar    
  15 C15           -7.2785     5.0016     0.0957 C.ar    
  16 C16           -7.9012     6.2327     0.1072 C.ar    
  17 C17           -7.1474     7.3927     0.1050 C.ar    
  18 C18           -5.7652     7.3271     0.0912 C.ar    
  19 C19           -5.1297     6.1029     0.0864 C.ar    
  20 S20           -9.6606     6.3277     0.1242 S.o     
  21 O21           -9.9501     6.6528     1.4768 O.2     
  22 O22           -9.9401     7.6320    -0.6088 O.3     
  23 H23            0.9458    -0.5290    -0.0102 H       
  24 H24           -3.3183    -0.6111     0.0301 H       
  25 H25           -1.2334     3.1371     0.0368 H       
  26 H26           -7.8681     4.0968     0.0967 H       
  27 H27           -7.6399     8.3538     0.1136 H       
  28 H28           -5.1826     8.2366     0.0892 H       
  29 H29           -4.0509     6.0531     0.0756 H       
  30 H30          -10.8801     7.8432    -0.6912 H       
@<TRIPOS>BOND
   1    1    2 ar
   2    1    7 1
   3    1    6 ar
   4    2    3 ar
   5    2   23 1
   6    3    4 ar
   7    3    8 1
   8    4    5 ar
   9    4   24 1
  10    5    6 ar
  11    5    9 1
  12    6   25 1
  13    9   10 2
  14    9   13 1
  15   10   11 1
  16   11   12 2
  17   12   13 1
  18   12   14 1
  19   14   15 ar
  20   14   19 ar
  21   15   16 ar
  22   15   26 1
  23   16   17 ar
  24   16   20 1
  25   17   18 ar
  26   17   27 1
  27   18   19 ar
  28   18   28 1
  29   19   29 1
  30   20   21 2
  31   20   22 1
  32   22   30 1

#	End of record

