#	Name: ASD13820001
#	Creating user name:	WinNT
#	Creation time:	15. 06. 2019 21:30

#	Modifying user name:	WinNT
#	Modification time:	15. 06. 2019 21:30

#	Program:	/corina/corina34_cracker 3.40 0067  02.08.2006

@<TRIPOS>MOLECULE
ASD13820001
 134  140    0    0    0
SMALL
NO_CHARGES


@<TRIPOS>ATOM
   1 C1             0.9682     1.1281     2.0056 C.3     
   2 C2             0.9433    -0.3884     2.2133 C.3     
   3 C3             1.0758    -1.0842     0.8552 C.3     
   4 C4             2.3645    -0.6117     0.1753 C.3     
   5 C5             2.3345     0.9135     0.0463 C.3     
   6 O6             2.1787     1.4968     1.3415 O.3     
   7 O7             4.5586     3.3265     1.1939 O.3     
   8 O8             3.5582     1.3666    -0.5363 O.3     
   9 C9             3.5435     2.7422    -0.9229 C.3     
  10 C10            4.6853     3.4835    -0.2208 C.3     
  11 C11            6.0219     2.8958    -0.6839 C.3     
  12 C12            3.7315     2.8497    -2.4385 C.3     
  13 O13            5.0064     2.3137    -2.7982 O.3     
  14 C14            6.1142     2.9974    -2.2086 C.3     
  15 O15            6.0872     4.3723    -2.5971 O.3     
  16 C16            4.1490     5.8847    -3.7827 C.3     
  17 C17            5.5347     5.8540    -4.4304 C.3     
  18 C18            6.2815     4.5847    -3.9968 C.3     
  19 C19            7.7521     4.7460    -4.2809 C.2     
  20 C20            6.3327     7.0433    -3.9776 C.2     
  21 C21            8.6467     4.5484    -3.3414 C.2     
  22 C22           10.1106     4.6874    -3.6667 C.3     
  23 C23           10.3749     7.1499    -3.3809 C.3     
  24 C24           10.7544     5.7828    -2.8131 C.3     
  25 O25           12.1767     5.6247    -2.8597 O.3     
  26 C26           11.0918     8.2493    -2.5953 C.3     
  27 C27           12.5977     7.9880    -2.6054 C.3     
  28 C28           12.9088     6.5818    -2.0939 C.3     
  29 C29           13.0089     5.2790    -0.0880 C.3     
  30 O30           12.5457     6.4774    -0.7167 O.3     
  31 C31           14.3841     6.3235    -2.2511 C.2     
  32 C32           15.1058     5.7606    -1.3296 C.2     
  33 C33           14.5355     5.3090    -0.0161 C.3     
  34 C34            6.0752     8.2840    -4.3860 C.2     
  35 C35            6.9678     9.3290    -3.8677 C.2     
  36 C36            9.6952    10.1641    -2.9948 C.2     
  37 O37           10.8412     9.5200    -3.2558 O.3     
  38 C38            6.8564    10.6191    -4.1328 C.2     
  39 C39            7.8229    11.6746    -3.6480 C.3     
  40 C40            9.2930    11.3320    -3.8504 C.3     
  41 C41            7.5539    12.8544    -4.6245 C.3     
  42 C42            8.1638    14.0824    -3.9815 C.3     
  43 C43            9.5839    13.7660    -3.5798 C.2     
  44 C44           10.0957    12.5697    -3.5118 C.2     
  45 C45            5.8393    11.4005    -4.9462 C.3     
  46 O46            6.1432    12.8117    -4.7897 O.3     
  47 C47           10.4809    14.9255    -3.2301 C.3     
  48 C48           12.4316     5.1870     1.3259 C.3     
  49 C49           12.7619     6.4672     2.0960 C.3     
  50 C50           10.9132     5.0168     1.2467 C.3     
  51 C51           12.2943     6.3251     3.5459 C.3     
  52 O52            1.1273    -2.4995     1.0461 O.3     
  53 C53            0.5872    -3.2528    -0.0415 C.3     
  54 C54            5.0702     4.4266     1.9490 C.3     
  55 C55            8.2074     5.1436    -5.6632 C.3     
  56 O56            8.9913     9.8084    -2.0795 O.2     
  57 C57            0.8967     1.8303     3.3631 C.3     
  58 C58            2.6282     2.0611    -3.1467 C.3     
  59 O59            8.1584    15.1655    -4.9137 O.3     
  60 C60           15.0552     3.9068     0.3074 C.3     
  61 O61            7.5566    12.0389    -2.2962 O.3     
  62 O62           -0.2916    -0.7664     2.8251 O.3     
  63 H63            0.1144     1.4257     1.3968 H       
  64 H64            1.7738    -0.6818     2.8555 H       
  65 H65            0.2196    -0.8302     0.2303 H       
  66 H66            3.2237    -0.9096     0.7763 H       
  67 H67            2.4390    -1.0597    -0.8156 H       
  68 H68            1.4988     1.2082    -0.5883 H       
  69 H69            2.5902     3.1895    -0.6415 H       
  70 H70            4.6434     4.5425    -0.4753 H       
  71 H71            6.8416     3.4539    -0.2313 H       
  72 H72            6.0832     1.8496    -0.3841 H       
  73 H73            3.6797     3.8965    -2.7378 H       
  74 H74            7.0447     2.5421    -2.5476 H       
  75 H75            3.6317     6.7987    -4.0744 H       
  76 H76            3.5738     5.0202    -4.1140 H       
  77 H77            4.2542     5.8571    -2.6981 H       
  78 H78            5.4341     5.8699    -5.5156 H       
  79 H79            5.8960     3.7290    -4.5512 H       
  80 H80            7.1543     6.8925    -3.2813 H       
  81 H81            8.3363     4.2837    -2.3417 H       
  82 H82           10.6129     3.7397    -3.4726 H       
  83 H83           10.2214     4.9422    -4.7207 H       
  84 H84           10.6693     7.2020    -4.4290 H       
  85 H85            9.2970     7.2899    -3.2998 H       
  86 H86           10.4088     5.6911    -1.7854 H       
  87 H87           10.7264     8.2813    -1.5728 H       
  88 H88           12.9725     8.0901    -3.6239 H       
  89 H89           13.0929     8.7196    -1.9669 H       
  90 H90           12.6886     4.4148    -0.6699 H       
  91 H91           14.8638     6.6195    -3.1723 H       
  92 H92           16.1590     5.6110    -1.5159 H       
  93 H93           14.8465     5.9989     0.7683 H       
  94 H94            5.2703     8.5086    -5.0572 H       
  95 H95            7.7795     9.0214    -3.2017 H       
  96 H96            9.4541    11.0743    -4.9029 H       
  97 H97            8.0409    12.6587    -5.5825 H       
  98 H98            7.5865    14.3589    -3.0992 H       
  99 H99           11.1249    12.4578    -3.2042 H       
 100 H100           5.9127    11.1207    -5.9972 H       
 101 H101           4.8344    11.1954    -4.5773 H       
 102 H102          10.4037    15.1357    -2.1634 H       
 103 H103          11.5123    14.6743    -3.4773 H       
 104 H104          10.1753    15.8050    -3.7968 H       
 105 H105          12.8669     4.3306     1.8410 H       
 106 H106          13.8386     6.6355     2.0763 H       
 107 H107          12.2535     7.3120     1.6314 H       
 108 H108          10.4679     5.9185     0.8264 H       
 109 H109          10.6758     4.1640     0.6107 H       
 110 H110          10.5140     4.8465     2.2466 H       
 111 H111          12.8027     5.4803     4.0105 H       
 112 H112          12.5296     7.2372     4.0945 H       
 113 H113          11.2176     6.1568     3.5656 H       
 114 H114          -0.4598    -2.9853    -0.1843 H       
 115 H115           1.1462    -3.0303    -0.9505 H       
 116 H116           0.6633    -4.3172     0.1805 H       
 117 H117           6.1310     4.5533     1.7332 H       
 118 H118           4.5330     5.3351     1.6768 H       
 119 H119           4.9367     4.2304     3.0128 H       
 120 H120           7.3396     5.2560    -6.3132 H       
 121 H121           8.7465     6.0895    -5.6102 H       
 122 H122           8.8649     4.3727    -6.0650 H       
 123 H123           1.7509     1.5329     3.9714 H       
 124 H124           0.9145     2.9101     3.2150 H       
 125 H125          -0.0261     1.5482     3.8699 H       
 126 H126           1.6549     2.4541    -2.8530 H       
 127 H127           2.7483     2.1572    -4.2258 H       
 128 H128           2.6954     1.0100    -2.8659 H       
 129 H129           8.5358    15.9852    -4.5664 H       
 130 H130          14.6649     3.1973    -0.4223 H       
 131 H131          16.1445     3.9052     0.2689 H       
 132 H132          14.7265     3.6189     1.3059 H       
 133 H133           7.6461    11.3097    -1.6675 H       
 134 H134          -0.4441    -0.3581     3.6883 H       
@<TRIPOS>BOND
   1    1    2 1
   2    1    6 1
   3    1   57 1
   4    1   63 1
   5    2    3 1
   6    2   62 1
   7    2   64 1
   8    3    4 1
   9    3   52 1
  10    3   65 1
  11    4    5 1
  12    4   66 1
  13    4   67 1
  14    5    8 1
  15    5    6 1
  16    5   68 1
  17    7   54 1
  18    7   10 1
  19    8    9 1
  20    9   12 1
  21    9   10 1
  22    9   69 1
  23   10   11 1
  24   10   70 1
  25   11   14 1
  26   11   71 1
  27   11   72 1
  28   12   13 1
  29   12   58 1
  30   12   73 1
  31   13   14 1
  32   14   15 1
  33   14   74 1
  34   15   18 1
  35   16   17 1
  36   16   75 1
  37   16   76 1
  38   16   77 1
  39   17   20 1
  40   17   18 1
  41   17   78 1
  42   18   19 1
  43   18   79 1
  44   19   21 2
  45   19   55 1
  46   20   34 2
  47   20   80 1
  48   21   22 1
  49   21   81 1
  50   22   24 1
  51   22   82 1
  52   22   83 1
  53   23   24 1
  54   23   26 1
  55   23   84 1
  56   23   85 1
  57   24   25 1
  58   24   86 1
  59   25   28 1
  60   26   27 1
  61   26   37 1
  62   26   87 1
  63   27   28 1
  64   27   88 1
  65   27   89 1
  66   28   30 1
  67   28   31 1
  68   29   30 1
  69   29   33 1
  70   29   48 1
  71   29   90 1
  72   31   32 2
  73   31   91 1
  74   32   33 1
  75   32   92 1
  76   33   60 1
  77   33   93 1
  78   34   35 1
  79   34   94 1
  80   35   38 2
  81   35   95 1
  82   36   37 1
  83   36   56 2
  84   36   40 1
  85   38   45 1
  86   38   39 1
  87   39   41 1
  88   39   61 1
  89   39   40 1
  90   40   44 1
  91   40   96 1
  92   41   42 1
  93   41   46 1
  94   41   97 1
  95   42   43 1
  96   42   59 1
  97   42   98 1
  98   43   44 2
  99   43   47 1
 100   44   99 1
 101   45   46 1
 102   45  100 1
 103   45  101 1
 104   47  102 1
 105   47  103 1
 106   47  104 1
 107   48   49 1
 108   48   50 1
 109   48  105 1
 110   49   51 1
 111   49  106 1
 112   49  107 1
 113   50  108 1
 114   50  109 1
 115   50  110 1
 116   51  111 1
 117   51  112 1
 118   51  113 1
 119   52   53 1
 120   53  114 1
 121   53  115 1
 122   53  116 1
 123   54  117 1
 124   54  118 1
 125   54  119 1
 126   55  120 1
 127   55  121 1
 128   55  122 1
 129   57  123 1
 130   57  124 1
 131   57  125 1
 132   58  126 1
 133   58  127 1
 134   58  128 1
 135   59  129 1
 136   60  130 1
 137   60  131 1
 138   60  132 1
 139   61  133 1
 140   62  134 1

#	End of record

