#	Name: ASD14200001
#	Creating user name:	WinNT
#	Creation time:	15. 06. 2019 21:31

#	Modifying user name:	WinNT
#	Modification time:	15. 06. 2019 21:31

#	Program:	/corina/corina34_cracker 3.40 0067  02.08.2006

@<TRIPOS>MOLECULE
ASD14200001
  44   47    0    0    0
SMALL
NO_CHARGES


@<TRIPOS>ATOM
   1 C1            -0.0167     1.3805     0.0096 C.ar    
   2 C2             0.0021    -0.0041     0.0020 C.ar    
   3 C3             1.2165    -0.6763    -0.0126 C.ar    
   4 C4             2.3998     0.0334    -0.0171 C.ar    
   5 C5             2.3887     1.4197    -0.0080 C.ar    
   6 C6             1.1770     2.0938     0.0021 C.ar    
   7 N7             1.1196     3.4963    -0.0020 N.pl3   
   8 C8             3.7109     2.1466    -0.0045 C.3     
   9 C9             2.2602     4.1808    -0.2976 C.2     
  10 C10            2.4549     5.6267    -0.6519 C.3     
  11 C11            3.4893     3.6043    -0.3168 C.2     
  12 C12            4.4455     4.5707    -0.6618 C.2     
  13 O13            3.8676     5.7727    -0.8647 O.3     
  14 C14            4.3511     2.0164     1.3535 C.ar    
  15 C15            5.5888     1.4136     1.4792 C.ar    
  16 C16            6.1761     1.2941     2.7249 C.ar    
  17 C17            5.5259     1.7778     3.8448 C.ar    
  18 C18            4.2887     2.3813     3.7190 C.ar    
  19 C19            3.7033     2.5047     2.4728 C.ar    
  20 O20           -1.1639    -0.7021     0.0093 O.3     
  21 C21           -1.0666    -2.1278     0.0007 C.3     
  22 O22            5.6385     4.3533    -0.7655 O.2     
  23 C23           -0.1277     4.2021     0.3017 C.3     
  24 C24           -0.2110     4.4662     1.8064 C.3     
  25 O25            0.8337     5.3621     2.1913 O.3     
  26 H26           -0.9596     1.9071     0.0169 H       
  27 H27            1.2352    -1.7561    -0.0201 H       
  28 H28            3.3417    -0.4950    -0.0275 H       
  29 H29            4.3669     1.7099    -0.7575 H       
  30 H30            1.9078     5.8702    -1.5627 H       
  31 H31            2.1279     6.2649     0.1690 H       
  32 H32            6.0968     1.0358     0.6042 H       
  33 H33            7.1427     0.8226     2.8232 H       
  34 H34            5.9845     1.6838     4.8181 H       
  35 H35            3.7806     2.7589     4.5941 H       
  36 H36            2.7384     2.9796     2.3741 H       
  37 H37           -0.5209    -2.4600     0.8838 H       
  38 H38           -2.0671    -2.5603     0.0078 H       
  39 H39           -0.5377    -2.4505    -0.8961 H       
  40 H40           -0.1486     5.1504    -0.2353 H       
  41 H41           -0.9756     3.5908    -0.0074 H       
  42 H42           -1.1772     4.9111     2.0443 H       
  43 H43           -0.1009     3.5261     2.3469 H       
  44 H44            0.8419     5.5746     3.1346 H       
@<TRIPOS>BOND
   1    1    2 ar
   2    1    6 ar
   3    1   26 1
   4    2    3 ar
   5    2   20 1
   6    3    4 ar
   7    3   27 1
   8    4    5 ar
   9    4   28 1
  10    5    6 ar
  11    5    8 1
  12    6    7 1
  13    7    9 1
  14    7   23 1
  15    8   11 1
  16    8   14 1
  17    8   29 1
  18    9   11 2
  19    9   10 1
  20   10   13 1
  21   10   30 1
  22   10   31 1
  23   11   12 1
  24   12   13 1
  25   12   22 2
  26   14   15 ar
  27   14   19 ar
  28   15   16 ar
  29   15   32 1
  30   16   17 ar
  31   16   33 1
  32   17   18 ar
  33   17   34 1
  34   18   19 ar
  35   18   35 1
  36   19   36 1
  37   20   21 1
  38   21   37 1
  39   21   38 1
  40   21   39 1
  41   23   24 1
  42   23   40 1
  43   23   41 1
  44   24   25 1
  45   24   42 1
  46   24   43 1
  47   25   44 1

#	End of record

