#	Name: ASD13850001
#	Creating user name:	WinNT
#	Creation time:	15. 06. 2019 21:30

#	Modifying user name:	WinNT
#	Modification time:	15. 06. 2019 21:30

#	Program:	/corina/corina34_cracker 3.40 0067  02.08.2006

@<TRIPOS>MOLECULE
ASD13850001
  63   65    0    0    0
SMALL
NO_CHARGES


@<TRIPOS>ATOM
   1 C1            -0.0414     1.9031     0.1073 C.3     
   2 C2            -0.7118     0.5604     0.4030 C.3     
   3 C3            -0.7066    -0.2935    -0.8609 C.3     
   4 C4             0.7286    -0.5562    -1.3369 C.3     
   5 C5             1.5039     0.7376    -1.4677 C.3     
   6 C6             1.4351     1.6748    -0.2631 C.3     
   7 C7             2.0563     2.9979    -0.6730 C.3     
   8 C8             2.9326     0.5519    -1.9548 C.3     
   9 C9             3.5454     1.8980    -2.3520 C.3     
  10 C10            3.4884     2.9064    -1.2018 C.3     
  11 C11            2.4161     5.4432    -0.1047 C.3     
  12 C12            2.0665     4.0523     0.4100 C.2     
  13 O13            3.8226     4.2022    -1.7147 O.3     
  14 C14            3.7094     5.3685    -0.9230 C.3     
  15 O15            3.7649    -0.1218    -1.0216 O.3     
  16 C16            6.5870     1.1657    -4.4912 C.3     
  17 C17            5.1729     1.3882    -4.0200 C.2     
  18 O18            4.9342     1.6973    -2.7358 O.3     
  19 C19            2.1135     1.0875     0.9740 C.3     
  20 C20            4.5138     2.5247    -0.1440 C.3     
  21 C21            4.9150     5.5890    -0.0086 C.3     
  22 O22           -0.7433     2.5354    -0.9610 O.3     
  23 H23            0.9907     1.2976    -2.2989 H       
  24 O24            1.2743     3.5448    -1.7669 O.3     
  25 C25            3.6773     6.5544    -1.8873 C.2     
  26 O26            4.2541     1.2883    -4.7983 O.2     
  27 O27            1.8179     3.8553     1.5653 O.2     
  28 C28            3.7104     6.3481    -3.1805 C.2     
  29 C29            1.3848    -1.5946    -0.4345 C.3     
  30 C30            0.6003    -1.1898    -2.7444 C.3     
  31 H31           -0.0877     2.5325     0.9968 H       
  32 H32           -0.2295     0.0449     1.2230 H       
  33 H33           -1.7553     0.7524     0.6907 H       
  34 H34           -1.1900    -1.2514    -0.6545 H       
  35 H35           -1.2572     0.2151    -1.6533 H       
  36 H36            2.9145    -0.0620    -2.8751 H       
  37 H37            2.9988     2.3037    -3.2072 H       
  38 H38            1.6048     5.8131    -0.7295 H       
  39 H39            2.5591     6.1128     0.7441 H       
  40 H40            4.6754    -0.2442    -1.3235 H       
  41 H41            7.2736     1.2978    -3.6550 H       
  42 H42            6.6839     0.1538    -4.8846 H       
  43 H43            6.8263     1.8847    -5.2747 H       
  44 H44            1.5127     0.2647     1.3616 H       
  45 H45            3.1035     0.7192     0.7050 H       
  46 H46            2.2081     1.8595     1.7375 H       
  47 H47            4.3687     1.4834     0.1436 H       
  48 H48            5.5179     2.6535    -0.5481 H       
  49 H49            4.3891     3.1638     0.7301 H       
  50 H50            4.8683     4.8925     0.8286 H       
  51 H51            5.8333     5.4201    -0.5710 H       
  52 H52            4.9027     6.6117     0.3685 H       
  53 H53           -1.6756     2.7084    -0.7711 H       
  54 H54            1.5988     4.3942    -2.0962 H       
  55 H55            3.6273     7.5622    -1.5023 H       
  56 H56            3.7604     5.3403    -3.5655 H       
  57 H57            3.6876     7.1858    -3.8617 H       
  58 H58            0.7826    -2.5031    -0.4284 H       
  59 H59            2.3827    -1.8226    -0.8089 H       
  60 H60            1.4582    -1.2006     0.5792 H       
  61 H61            0.0849    -0.4968    -3.4093 H       
  62 H62            1.5939    -1.4014    -3.1395 H       
  63 H63            0.0319    -2.1173    -2.6749 H       
@<TRIPOS>BOND
   1    1    2 1
   2    1    6 1
   3    1   22 1
   4    1   31 1
   5    2    3 1
   6    2   32 1
   7    2   33 1
   8    3    4 1
   9    3   34 1
  10    3   35 1
  11    4    5 1
  12    4   29 1
  13    4   30 1
  14    5    6 1
  15    5   23 1
  16    5    8 1
  17    6    7 1
  18    6   19 1
  19    7   10 1
  20    7   24 1
  21    7   12 1
  22    8   15 1
  23    8    9 1
  24    8   36 1
  25    9   10 1
  26    9   18 1
  27    9   37 1
  28   10   13 1
  29   10   20 1
  30   11   12 1
  31   11   14 1
  32   11   38 1
  33   11   39 1
  34   12   27 2
  35   13   14 1
  36   14   21 1
  37   14   25 1
  38   15   40 1
  39   16   17 1
  40   16   41 1
  41   16   42 1
  42   16   43 1
  43   17   18 1
  44   17   26 2
  45   19   44 1
  46   19   45 1
  47   19   46 1
  48   20   47 1
  49   20   48 1
  50   20   49 1
  51   21   50 1
  52   21   51 1
  53   21   52 1
  54   22   53 1
  55   24   54 1
  56   25   28 2
  57   25   55 1
  58   28   56 1
  59   28   57 1
  60   29   58 1
  61   29   59 1
  62   29   60 1
  63   30   61 1
  64   30   62 1
  65   30   63 1

#	End of record

