#	Name: ASD13110081
#	Creating user name:	WinNT
#	Creation time:	15. 06. 2019 21:30

#	Modifying user name:	WinNT
#	Modification time:	15. 06. 2019 21:30

#	Program:	/corina/corina34_cracker 3.40 0067  02.08.2006

@<TRIPOS>MOLECULE
ASD13110081
  45   47    0    0    0
SMALL
NO_CHARGES


@<TRIPOS>ATOM
   1 C1            -0.0169     1.3930     0.0097 C.ar    
   2 C2             0.0021    -0.0041     0.0020 C.ar    
   3 C3             1.2343    -0.6793    -0.0134 C.ar    
   4 C4             2.4197     0.0423    -0.0208 C.ar    
   5 C5             2.3841     1.4204    -0.0131 C.ar    
   6 C6             1.1693     2.0928     0.0021 C.ar    
   7 N7             0.9300    -2.0266    -0.0173 N.pl3   
   8 C8            -0.4258    -2.1352    -0.0047 C.2     
   9 N9            -0.9691    -0.9531     0.0066 N.2     
  10 C10           -1.1877    -3.4354    -0.0034 C.3     
  11 N11           -1.5251    -3.8024     1.3742 N.am    
  12 C12           -2.7853    -3.3464     1.9660 C.3     
  13 C13           -0.6761    -4.5595     2.0971 C.2     
  14 O14            0.3671    -4.9370     1.6072 O.2     
  15 C15           -1.0232    -4.9370     3.5142 C.3     
  16 N16            0.0526    -5.7554     4.0789 N.am    
  17 Cl17           1.1456     3.8286     0.0111 Cl      
  18 C18            1.1084    -5.1642     4.7436 C.ar    
  19 C19            2.1362    -5.9619     5.2820 C.ar    
  20 N20            2.1004    -7.3018     5.1549 N.2     
  21 C21            1.1196    -7.8920     4.5337 C.2     
  22 C22            0.0244    -7.1012     3.9625 C.2     
  23 C23            3.2032    -5.3474     5.9556 C.ar    
  24 C24            3.2374    -3.9899     6.0836 C.ar    
  25 C25            2.2228    -3.2022     5.5523 C.ar    
  26 C26            1.1633    -3.7817     4.8858 C.ar    
  27 O27           -0.8968    -7.6506     3.3858 O.2     
  28 Cl28           2.2897    -1.4765     5.7287 Cl      
  29 H29           -0.9583     1.9222     0.0170 H       
  30 H30            3.3679    -0.4746    -0.0323 H       
  31 H31            3.3073     1.9808    -0.0189 H       
  32 H32            1.5654    -2.7595    -0.0276 H       
  33 H33           -2.1033    -3.3206    -0.5835 H       
  34 H34           -0.5720    -4.2177    -0.4474 H       
  35 H35           -3.5652    -4.0828     1.7720 H       
  36 H36           -2.6588    -3.2260     3.0419 H       
  37 H37           -3.0694    -2.3913     1.5243 H       
  38 H38           -1.1442    -4.0334     4.1116 H       
  39 H39           -1.9537    -5.5046     3.5214 H       
  40 H40            1.1104    -8.9681     4.4427 H       
  41 H41            3.9969    -5.9494     6.3728 H       
  42 H42            4.0607    -3.5225     6.6032 H       
  43 H43            0.3786    -3.1635     4.4752 H       
  44 Cl44           9.0607     8.8286    11.6032 Cl      
  45 H45            9.0607    10.1986    11.6032 H       
@<TRIPOS>BOND
   1    1    2 ar
   2    1    6 ar
   3    1   29 1
   4    2    9 1
   5    2    3 ar
   6    3    4 ar
   7    3    7 1
   8    4    5 ar
   9    4   30 1
  10    5    6 ar
  11    5   31 1
  12    6   17 1
  13    7    8 1
  14    7   32 1
  15    8   10 1
  16    8    9 2
  17   10   11 1
  18   10   33 1
  19   10   34 1
  20   11   12 1
  21   11   13 am
  22   12   35 1
  23   12   36 1
  24   12   37 1
  25   13   14 2
  26   13   15 1
  27   15   16 1
  28   15   38 1
  29   15   39 1
  30   16   18 1
  31   16   22 am
  32   18   26 ar
  33   18   19 ar
  34   19   20 1
  35   19   23 ar
  36   20   21 2
  37   21   22 1
  38   21   40 1
  39   22   27 2
  40   23   24 ar
  41   23   41 1
  42   24   25 ar
  43   24   42 1
  44   25   26 ar
  45   25   28 1
  46   26   43 1
  47   44   45 1

#	End of record

