#	Name: ASD10410089
#	Creating user name:	WinNT
#	Creation time:	15. 06. 2019 21:26

#	Modifying user name:	WinNT
#	Modification time:	15. 06. 2019 21:26

#	Program:	/corina/corina34_cracker 3.40 0067  02.08.2006

@<TRIPOS>MOLECULE
ASD10410089
  69   75    0    0    0
SMALL
NO_CHARGES


@<TRIPOS>ATOM
   1 C1            -0.0584     1.3746    -0.2363 C.ar    
   2 C2            -0.0214     0.0020    -0.0365 C.ar    
   3 C3             1.1912    -0.6317     0.2139 C.ar    
   4 C4             2.3585     0.1065     0.2635 C.ar    
   5 C5             2.3198     1.4806     0.0631 C.ar    
   6 C6             1.1089     2.1121    -0.1866 C.ar    
   7 F7             1.2278    -1.9680     0.4090 F       
   8 N8             3.5022     2.2290     0.1137 N.pl3   
   9 C9             3.6260     3.3892    -0.6492 C.2     
  10 N10            4.6391     4.2208    -0.6088 N.2     
  11 N11            2.7324     3.8284    -1.5436 N.2     
  12 C12            3.1588     4.9497    -2.0834 C.2     
  13 N13            4.3649     5.2470    -1.5274 N.pl3   
  14 C14            5.1650     6.3456    -1.8119 C.ar    
  15 N15            2.5017     5.6909    -3.0456 N.pl3   
  16 N16           -1.2056    -0.7456    -0.0864 N.3     
  17 C17           -2.1604    -0.2886     0.9331 C.3     
  18 C18           -3.4664    -1.0743     0.7937 C.3     
  19 N19           -3.1895    -2.5099     0.9416 N.3     
  20 C20           -2.2348    -2.9670    -0.0779 C.3     
  21 C21           -0.9287    -2.1812     0.0615 C.3     
  22 C22           -4.4309    -3.2936     0.8892 C.3     
  23 N23            4.6508     7.5664    -1.8643 N.ar    
  24 C24            5.4015     8.6222    -2.1344 C.ar    
  25 N25            6.6902     8.5407    -2.3668 N.ar    
  26 C26            7.3116     7.3526    -2.3385 C.ar    
  27 C27            6.5496     6.1928    -2.0476 C.ar    
  28 C28            8.6856     7.2301    -2.5814 C.ar    
  29 C29            9.2717     5.9960    -2.5406 C.ar    
  30 C30            8.5153     4.8489    -2.2589 C.ar    
  31 C31            7.1751     4.9396    -2.0121 C.ar    
  32 O32            9.1243     3.6337    -2.2256 O.3     
  33 O33           10.6044     5.8788    -2.7764 O.3     
  34 C34           -4.1239    -4.8005     1.0466 C.3     
  35 C35           -4.8800    -5.2235     2.3430 C.3     
  36 C36           -6.3882    -5.1672     1.9512 C.3     
  37 C37           -6.6952    -3.6604     1.7939 C.3     
  38 C38           -5.3435    -2.9482     2.1054 C.3     
  39 C39           -4.7523    -3.9113     3.1945 C.3     
  40 H40           -0.9993     1.8659    -0.4352 H       
  41 H41            3.3004    -0.3847     0.4582 H       
  42 H42            1.0794     3.1804    -0.3427 H       
  43 H43            4.2352     1.9401     0.6795 H       
  44 H44            1.6423     5.3940    -3.3835 H       
  45 H45            2.8995     6.5085    -3.3836 H       
  46 H46           -1.7402    -0.4545     1.9251 H       
  47 H47           -2.3589     0.7742     0.7949 H       
  48 H48           -4.1658    -0.7573     1.5673 H       
  49 H49           -3.9005    -0.8869    -0.1884 H       
  50 H50           -2.0363    -4.0298     0.0603 H       
  51 H51           -2.6549    -2.8011    -1.0699 H       
  52 H52           -0.2293    -2.4983    -0.7121 H       
  53 H53           -0.4946    -2.3686     1.0436 H       
  54 H54           -4.9568    -3.1088    -0.0474 H       
  55 H55            4.9322     9.5944    -2.1652 H       
  56 H56            9.2786     8.1059    -2.8002 H       
  57 H57            6.6007     4.0509    -1.7961 H       
  58 H58            9.4625     3.3870    -1.3539 H       
  59 H59           11.1520     5.9502    -1.9826 H       
  60 H60           -4.5008    -5.3567     0.1883 H       
  61 H61           -3.0519    -4.9598     1.1628 H       
  62 H62           -4.5434    -6.1488     2.8105 H       
  63 H63           -6.5559    -5.6896     1.0093 H       
  64 H64           -7.0024    -5.5997     2.7411 H       
  65 H65           -7.0137    -3.4419     0.7746 H       
  66 H66           -7.4602    -3.3520     2.5064 H       
  67 H67           -5.4105    -1.8919     2.3660 H       
  68 H68           -5.3716    -3.9438     4.0910 H       
  69 H69           -3.7143    -3.6754     3.4288 H       
@<TRIPOS>BOND
   1    1    2 ar
   2    1    6 ar
   3    1   40 1
   4    2    3 ar
   5    2   16 1
   6    3    4 ar
   7    3    7 1
   8    4    5 ar
   9    4   41 1
  10    5    6 ar
  11    5    8 1
  12    6   42 1
  13    8    9 1
  14    8   43 1
  15    9   10 2
  16    9   11 1
  17   10   13 1
  18   11   12 2
  19   12   13 1
  20   12   15 1
  21   13   14 1
  22   14   23 ar
  23   14   27 ar
  24   15   44 1
  25   15   45 1
  26   16   17 1
  27   16   21 1
  28   17   18 1
  29   17   46 1
  30   17   47 1
  31   18   19 1
  32   18   48 1
  33   18   49 1
  34   19   20 1
  35   19   22 1
  36   20   21 1
  37   20   50 1
  38   20   51 1
  39   21   52 1
  40   21   53 1
  41   22   34 1
  42   22   38 1
  43   22   54 1
  44   23   24 ar
  45   24   25 ar
  46   24   55 1
  47   25   26 ar
  48   26   27 ar
  49   26   28 ar
  50   27   31 ar
  51   28   29 ar
  52   28   56 1
  53   29   30 ar
  54   29   33 1
  55   30   31 ar
  56   30   32 1
  57   31   57 1
  58   32   58 1
  59   33   59 1
  60   34   35 1
  61   34   60 1
  62   34   61 1
  63   35   36 1
  64   35   39 1
  65   35   62 1
  66   36   37 1
  67   36   63 1
  68   36   64 1
  69   37   38 1
  70   37   65 1
  71   37   66 1
  72   38   39 1
  73   38   67 1
  74   39   68 1
  75   39   69 1

#	End of record

