#	Name: ASD11820002
#	Creating user name:	WinNT
#	Creation time:	15. 06. 2019 21:29

#	Modifying user name:	WinNT
#	Modification time:	15. 06. 2019 21:29

#	Program:	/corina/corina34_cracker 3.40 0067  02.08.2006

@<TRIPOS>MOLECULE
ASD11820002
  33   36    0    0    0
SMALL
NO_CHARGES


@<TRIPOS>ATOM
   1 N1            -0.0166     1.3727     0.0096 N.pl3   
   2 N2             4.9356     0.0753    -3.3636 N.pl3   
   3 C3             3.6402     0.9436    -0.0281 C.3     
   4 C4             2.1371     0.8361    -0.0139 C.2     
   5 C5             4.1361     0.8638    -1.4489 C.2     
   6 C6             4.2419     1.9742    -2.3986 C.ar    
   7 C7             1.3520    -0.4007    -0.0130 C.ar    
   8 C8             0.0021    -0.0041     0.0020 C.ar    
   9 C9             4.7508     1.4212    -3.5880 C.ar    
  10 C10            4.5643    -0.2383    -2.0845 C.2     
  11 C11            1.2638     1.8554    -0.0000 C.2     
  12 C12            1.6791    -1.7577    -0.0230 C.ar    
  13 C13            3.9554     3.3388    -2.3317 C.ar    
  14 C14           -0.9935    -0.9753     0.0059 C.ar    
  15 C15            4.9619     2.2465    -4.6874 C.ar    
  16 C16            0.6848    -2.6953    -0.0197 C.ar    
  17 C17            4.1705     4.1314    -3.4240 C.ar    
  18 C18           -0.6482    -2.3092    -0.0050 C.ar    
  19 C19            4.6716     3.5906    -4.5999 C.ar    
  20 H20            3.9404     1.8961     0.4086 H       
  21 H21            4.0684     0.1266     0.5526 H       
  22 H22            4.6090    -1.2263    -1.6505 H       
  23 H23            1.5319     2.9015     0.0030 H       
  24 H24            5.2747    -0.5571    -4.0163 H       
  25 H25           -0.8180     1.9191     0.0165 H       
  26 H26            3.5643     3.7664    -1.4204 H       
  27 H27            2.7142    -2.0655    -0.0350 H       
  28 H28            5.3525     1.8353    -5.6066 H       
  29 H29           -2.0336    -0.6850     0.0177 H       
  30 H30            3.9487     5.1871    -3.3718 H       
  31 H31            0.9384    -3.7450    -0.0275 H       
  32 H32            4.8366     4.2299    -5.4545 H       
  33 H33           -1.4227    -3.0619    -0.0015 H       
@<TRIPOS>BOND
   1    1    8 1
   2    1   11 1
   3    1   25 1
   4    2    9 1
   5    2   10 1
   6    2   24 1
   7    3    4 1
   8    3    5 1
   9    3   20 1
  10    3   21 1
  11    4    7 1
  12    4   11 2
  13    5    6 1
  14    5   10 2
  15    6    9 ar
  16    6   13 ar
  17    7    8 ar
  18    7   12 ar
  19    8   14 ar
  20    9   15 ar
  21   10   22 1
  22   11   23 1
  23   12   16 ar
  24   12   27 1
  25   13   17 ar
  26   13   26 1
  27   14   18 ar
  28   14   29 1
  29   15   19 ar
  30   15   28 1
  31   16   18 ar
  32   16   31 1
  33   17   19 ar
  34   17   30 1
  35   18   33 1
  36   19   32 1

#	End of record

