#	Name: ASD10420063
#	Creating user name:	WinNT
#	Creation time:	15. 06. 2019 21:27

#	Modifying user name:	WinNT
#	Modification time:	15. 06. 2019 21:27

#	Program:	/corina/corina34_cracker 3.40 0067  02.08.2006

@<TRIPOS>MOLECULE
ASD10420063
  23   23    0    0    0
SMALL
NO_CHARGES


@<TRIPOS>ATOM
   1 C1            -0.0167     1.3806     0.0096 C.ar    
   2 C2             0.0021    -0.0041     0.0020 C.ar    
   3 C3             1.2082    -0.6780    -0.0131 C.ar    
   4 C4             2.3961     0.0295    -0.0202 C.ar    
   5 C5             2.3786     1.4116    -0.0126 C.ar    
   6 C6             1.1733     2.0880     0.0021 C.ar    
   7 C7             1.2290    -2.1849    -0.0214 C.3     
   8 C8             1.0966    -2.6888    -1.4599 C.3     
   9 N9             1.1168    -4.1537    -1.4680 N.pl3   
  10 O10            0.4550    -4.7763    -0.6569 O.2     
  11 O11            1.7954    -4.7489    -2.2858 O.2     
  12 C12           -1.2925    -0.7755     0.0107 C.3     
  13 F13           -1.1955     2.0406     0.0188 F       
  14 H14            3.3384    -0.4981    -0.0313 H       
  15 H15            3.3071     1.9632    -0.0182 H       
  16 H16            1.1599     3.1679     0.0076 H       
  17 H17            2.1694    -2.5376     0.4021 H       
  18 H18            0.3979    -2.5630     0.5740 H       
  19 H19            0.1562    -2.3361    -1.8834 H       
  20 H20            1.9277    -2.3107    -2.0553 H       
  21 H21           -1.6148    -0.9560    -1.0148 H       
  22 H22           -1.1439    -1.7288     0.5180 H       
  23 H23           -2.0550    -0.1998     0.5353 H       
@<TRIPOS>BOND
   1    1    2 ar
   2    1    6 ar
   3    1   13 1
   4    2    3 ar
   5    2   12 1
   6    3    4 ar
   7    3    7 1
   8    4    5 ar
   9    4   14 1
  10    5    6 ar
  11    5   15 1
  12    6   16 1
  13    7    8 1
  14    7   17 1
  15    7   18 1
  16    8    9 1
  17    8   19 1
  18    8   20 1
  19    9   10 2
  20    9   11 2
  21   12   21 1
  22   12   22 1
  23   12   23 1

#	End of record

