#	Name: ASD10090002
#	Creating user name:	WinNT
#	Creation time:	15. 06. 2019 21:24

#	Modifying user name:	WinNT
#	Modification time:	15. 06. 2019 21:24

#	Program:	/corina/corina34_cracker 3.40 0067  02.08.2006

@<TRIPOS>MOLECULE
ASD10090002
 153  154    0    0    0
SMALL
NO_CHARGES


@<TRIPOS>ATOM
   1 N1           -11.0243     1.6846     1.8677 N.3     
   2 C2           -10.0617     0.5678     1.8738 C.3     
   3 C3           -10.0055    -0.0681     0.5087 C.2     
   4 O4           -10.4164     0.5363    -0.4592 O.2     
   5 C5            -8.6817     1.1556     2.2363 C.3     
   6 C6            -9.0450     2.4734     2.9700 C.3     
   7 C7           -10.2989     2.9331     2.1851 C.3     
   8 N8            -9.4986    -1.3084     0.3633 N.am    
   9 C9            -9.4439    -1.9265    -0.9637 C.3     
  10 C10           -8.3472    -2.9597    -0.9919 C.2     
  11 O11           -7.6772    -3.1600    -0.0010 O.2     
  12 C12          -10.7846    -2.5974    -1.2695 C.3     
  13 N13           -8.1109    -3.6612    -2.1182 N.am    
  14 C14           -7.0448    -4.6656    -2.1455 C.3     
  15 C15           -7.3501    -5.6935    -3.2044 C.2     
  16 O16           -8.3589    -5.5967    -3.8706 O.2     
  17 C17           -5.7117    -3.9857    -2.4641 C.3     
  18 C18           -5.3406    -3.0324    -1.3264 C.3     
  19 C19           -4.0075    -2.3526    -1.6450 C.3     
  20 N20           -3.6522    -1.4398    -0.5556 N.pl3   
  21 C21           -2.4872    -0.7126    -0.6204 C.2     
  22 N22           -2.1538     0.1440     0.4020 N.pl3   
  23 N23           -1.6989    -0.8353    -1.6511 N.2     
  24 N24           -6.5021    -6.7205    -3.4110 N.am    
  25 C25           -6.6765    -7.7888    -4.4059 C.3     
  26 C26           -6.6963    -7.1994    -5.7927 C.2     
  27 O27           -6.5768    -6.0021    -5.9445 O.2     
  28 C28           -5.4777    -8.7498    -4.2611 C.3     
  29 C29           -4.9885    -8.4796    -2.8137 C.3     
  30 C30           -5.2428    -6.9551    -2.6812 C.3     
  31 N31           -6.8468    -8.0029    -6.8643 N.am    
  32 C32           -6.8660    -7.4299    -8.2125 C.3     
  33 C33           -6.4329    -8.4746    -9.2085 C.2     
  34 O34           -6.1929    -9.6039    -8.8372 O.2     
  35 C35           -8.2837    -6.9623    -8.5477 C.3     
  36 C36           -9.2585    -8.1297    -8.3812 C.3     
  37 O37           -8.6563    -5.9012    -7.6661 O.3     
  38 N38           -6.3124    -8.1539   -10.5120 N.am    
  39 C39           -5.7820    -9.1352   -11.4618 C.3     
  40 C40           -6.2923    -8.8224   -12.8448 C.2     
  41 O41           -6.8087    -7.7489   -13.0722 O.2     
  42 C42           -4.2531    -9.0752   -11.4566 C.3     
  43 C43           -3.7308    -9.4967   -10.0817 C.3     
  44 O44           -3.7384    -9.9601   -12.4536 O.3     
  45 N45           -6.1750    -9.7358   -13.8289 N.am    
  46 C46           -6.5849    -9.3982   -15.1943 C.3     
  47 C47           -5.7759   -10.2063   -16.1759 C.2     
  48 O48           -5.0077   -11.0549   -15.7752 O.2     
  49 C49           -8.0707    -9.7160   -15.3741 C.3     
  50 C50           -8.3321   -11.1713   -14.9809 C.3     
  51 C51           -9.8394   -11.4335   -14.9689 C.3     
  52 C52           -7.6607   -12.1016   -15.9931 C.3     
  53 N53           -5.9063    -9.9860   -17.4992 N.am    
  54 C54           -5.0350   -10.6847   -18.4473 C.3     
  55 C55           -3.5940   -10.4140   -18.0988 C.2     
  56 O56           -3.3217    -9.7071   -17.1517 O.2     
  57 C57           -5.3036   -12.1891   -18.3736 C.3     
  58 C58           -6.6922   -12.4771   -18.8835 C.2     
  59 N59           -7.1285   -13.7494   -18.9684 N.am    
  60 O60           -7.4170   -11.5638   -19.2174 O.2     
  61 N61           -2.6080   -10.9575   -18.8397 N.am    
  62 C62           -1.2112   -10.6076   -18.5699 C.3     
  63 C63           -0.3094   -11.6862   -19.1124 C.2     
  64 O64           -0.7871   -12.6605   -19.6541 O.2     
  65 C65           -0.8789    -9.2765   -19.2472 C.3     
  66 C66           -1.2160    -9.3642   -20.7370 C.3     
  67 C67           -1.0511    -7.9854   -21.3792 C.3     
  68 C68           -0.2723   -10.3591   -21.4157 C.3     
  69 N69            1.0281   -11.5681   -18.9957 N.am    
  70 C70            1.9049   -12.6166   -19.5231 C.3     
  71 C71            3.2572   -12.0301   -19.8363 C.2     
  72 O72            3.6876   -12.0732   -20.9638 O.2     
  73 C73            2.0589   -13.7251   -18.4798 C.3     
  74 H74          -11.4914     1.7545     0.9760 H       
  75 H75          -10.3583    -0.1734     2.6159 H       
  76 H76           -8.1382     0.4826     2.8994 H       
  77 H77           -8.1025     1.3626     1.3365 H       
  78 H78           -9.2867     2.2842     4.0159 H       
  79 H79           -8.2403     3.2035     2.8828 H       
  80 H80          -10.0062     3.4454     1.2686 H       
  81 H81          -10.9165     3.5840     2.8040 H       
  82 H82           -9.1699    -1.7918     1.1374 H       
  83 H83           -9.2414    -1.1612    -1.7130 H       
  84 H84          -11.5778    -1.8501    -1.2491 H       
  85 H85          -10.7439    -3.0573    -2.2569 H       
  86 H86          -10.9871    -3.3627    -0.5202 H       
  87 H87           -8.6468    -3.5010    -2.9107 H       
  88 H88           -6.9804    -5.1537    -1.1731 H       
  89 H89           -4.9346    -4.7424    -2.5722 H       
  90 H90           -5.8034    -3.4238    -3.3936 H       
  91 H91           -6.1177    -2.2757    -1.2184 H       
  92 H92           -5.2489    -3.5943    -0.3969 H       
  93 H93           -3.2304    -3.1093    -1.7530 H       
  94 H94           -4.0992    -1.7907    -2.5745 H       
  95 H95           -4.2389    -1.3485     0.2115 H       
  96 H96           -2.7404     0.2353     1.1690 H       
  97 H97           -1.3318     0.6571     0.3563 H       
  98 H98           -1.9341    -1.4397    -2.3724 H       
  99 H99           -7.6076    -8.3229    -4.2170 H       
 100 H100          -5.7981    -9.7857    -4.3729 H       
 101 H101          -4.6985    -8.5060    -4.9833 H       
 102 H102          -5.5770    -9.0386    -2.0861 H       
 103 H103          -3.9275    -8.7088    -2.7145 H       
 104 H104          -4.4256    -6.3934    -3.1338 H       
 105 H105          -5.3588    -6.6795    -1.6330 H       
 106 H106          -6.9423    -8.9605    -6.7429 H       
 107 H107          -6.1836    -6.5811    -8.2563 H       
 108 H108          -8.3151    -6.6069    -9.5777 H       
 109 H109          -9.2272    -8.4852    -7.3512 H       
 110 H110         -10.2685    -7.7966    -8.6200 H       
 111 H111          -8.9744    -8.9391    -9.0537 H       
 112 H112          -8.1322    -5.0960    -7.7762 H       
 113 H113          -6.5768    -7.2734   -10.8213 H       
 114 H114          -6.1073   -10.1342   -11.1717 H       
 115 H115          -3.9288    -8.0571   -11.6721 H       
 116 H116          -4.0552   -10.5147    -9.8663 H       
 117 H117          -2.6416    -9.4539   -10.0781 H       
 118 H118          -4.1234    -8.8216    -9.3213 H       
 119 H119          -3.9240    -9.6813   -13.3607 H       
 120 H120          -5.8192   -10.6167   -13.6331 H       
 121 H121          -6.4164    -8.3360   -15.3721 H       
 122 H122          -8.6627    -9.0563   -14.7397 H       
 123 H123          -8.3509    -9.5653   -16.4166 H       
 124 H124          -7.9229   -11.3586   -13.9881 H       
 125 H125         -10.2487   -11.2462   -15.9617 H       
 126 H126         -10.0257   -12.4703   -14.6888 H       
 127 H127         -10.3178   -10.7707   -14.2478 H       
 128 H128          -6.5810   -12.0809   -15.8451 H       
 129 H129          -8.0274   -13.1182   -15.8513 H       
 130 H130          -7.8953   -11.7684   -17.0041 H       
 131 H131          -6.5769    -9.3649   -17.8237 H       
 132 H132          -5.2376   -10.3285   -19.4573 H       
 133 H133          -4.5743   -12.7188   -18.9865 H       
 134 H134          -5.2198   -12.5229   -17.3394 H       
 135 H135          -6.5488   -14.4798   -18.7013 H       
 136 H136          -8.0223   -13.9347   -19.2966 H       
 137 H137          -2.8232   -11.5803   -19.5515 H       
 138 H138          -1.0610   -10.5154   -17.4942 H       
 139 H139          -1.4642    -8.4794   -18.7886 H       
 140 H140           0.1831    -9.0628   -19.1269 H       
 141 H141          -2.2459    -9.7002   -20.8574 H       
 142 H142          -0.0212    -7.6493   -21.2589 H       
 143 H143          -1.2912    -8.0479   -22.4406 H       
 144 H144          -1.7234    -7.2766   -20.8958 H       
 145 H145          -0.5324   -11.3727   -21.1105 H       
 146 H146          -0.3673   -10.2698   -22.4978 H       
 147 H147           0.7551   -10.1436   -21.1221 H       
 148 H148           1.4103   -10.7888   -18.5625 H       
 149 H149           1.4692   -13.0312   -20.4322 H       
 150 H150           3.8416   -11.5713   -19.0525 H       
 151 H151           1.0807   -14.1493   -18.2533 H       
 152 H152           2.7112   -14.5053   -18.8722 H       
 153 H153           2.4945   -13.3105   -17.5708 H       
@<TRIPOS>BOND
   1    1    2 1
   2    1    7 1
   3    1   74 1
   4    2    3 1
   5    2    5 1
   6    2   75 1
   7    3    8 am
   8    3    4 2
   9    5    6 1
  10    5   76 1
  11    5   77 1
  12    6    7 1
  13    6   78 1
  14    6   79 1
  15    7   80 1
  16    7   81 1
  17    8    9 1
  18    8   82 1
  19    9   12 1
  20    9   10 1
  21    9   83 1
  22   10   11 2
  23   10   13 am
  24   12   84 1
  25   12   85 1
  26   12   86 1
  27   13   14 1
  28   13   87 1
  29   14   15 1
  30   14   17 1
  31   14   88 1
  32   15   16 2
  33   15   24 am
  34   17   18 1
  35   17   89 1
  36   17   90 1
  37   18   19 1
  38   18   91 1
  39   18   92 1
  40   19   20 1
  41   19   93 1
  42   19   94 1
  43   20   21 1
  44   20   95 1
  45   21   22 1
  46   21   23 2
  47   22   96 1
  48   22   97 1
  49   23   98 1
  50   24   25 1
  51   24   30 1
  52   25   26 1
  53   25   28 1
  54   25   99 1
  55   26   31 am
  56   26   27 2
  57   28   29 1
  58   28  100 1
  59   28  101 1
  60   29   30 1
  61   29  102 1
  62   29  103 1
  63   30  104 1
  64   30  105 1
  65   31   32 1
  66   31  106 1
  67   32   33 1
  68   32   35 1
  69   32  107 1
  70   33   34 2
  71   33   38 am
  72   35   36 1
  73   35   37 1
  74   35  108 1
  75   36  109 1
  76   36  110 1
  77   36  111 1
  78   37  112 1
  79   38   39 1
  80   38  113 1
  81   39   42 1
  82   39   40 1
  83   39  114 1
  84   40   41 2
  85   40   45 am
  86   42   43 1
  87   42   44 1
  88   42  115 1
  89   43  116 1
  90   43  117 1
  91   43  118 1
  92   44  119 1
  93   45   46 1
  94   45  120 1
  95   46   47 1
  96   46   49 1
  97   46  121 1
  98   47   48 2
  99   47   53 am
 100   49   50 1
 101   49  122 1
 102   49  123 1
 103   50   51 1
 104   50   52 1
 105   50  124 1
 106   51  125 1
 107   51  126 1
 108   51  127 1
 109   52  128 1
 110   52  129 1
 111   52  130 1
 112   53   54 1
 113   53  131 1
 114   54   57 1
 115   54   55 1
 116   54  132 1
 117   55   56 2
 118   55   61 am
 119   57   58 1
 120   57  133 1
 121   57  134 1
 122   58   59 am
 123   58   60 2
 124   59  135 1
 125   59  136 1
 126   61   62 1
 127   61  137 1
 128   62   65 1
 129   62   63 1
 130   62  138 1
 131   63   69 am
 132   63   64 2
 133   65   66 1
 134   65  139 1
 135   65  140 1
 136   66   67 1
 137   66   68 1
 138   66  141 1
 139   67  142 1
 140   67  143 1
 141   67  144 1
 142   68  145 1
 143   68  146 1
 144   68  147 1
 145   69   70 1
 146   69  148 1
 147   70   71 1
 148   70   73 1
 149   70  149 1
 150   71   72 2
 151   71  150 1
 152   73  151 1
 153   73  152 1
 154   73  153 1

#	End of record

