#	Name: ASD10160441
#	Creating user name:	WinNT
#	Creation time:	15. 06. 2019 21:25

#	Modifying user name:	WinNT
#	Modification time:	15. 06. 2019 21:25

#	Program:	/corina/corina34_cracker 3.40 0067  02.08.2006

@<TRIPOS>MOLECULE
ASD10160441
  42   44    0    0    0
SMALL
NO_CHARGES


@<TRIPOS>ATOM
   1 C1             0.2235     1.4262     0.1336 C.2     
   2 C2             0.2070    -0.0442     0.0499 C.ar    
   3 C3             1.3951    -0.7702     0.2030 C.ar    
   4 C4             1.3735    -2.1478     0.1241 C.ar    
   5 C5             0.1764    -2.8132    -0.1065 C.ar    
   6 C6            -1.0062    -2.0951    -0.2592 C.ar    
   7 C7            -0.9961    -0.7206    -0.1769 C.ar    
   8 O8             1.2692     2.0117     0.3357 O.2     
   9 O9            -0.9201     2.1229    -0.0196 O.3     
  10 F10            2.5598    -0.1231     0.4270 F       
  11 O11            0.1597    -4.1679    -0.1838 O.3     
  12 C12            2.0279    -5.3421    -1.0824 C.ar    
  13 C13            1.3314    -4.8323     0.0017 C.ar    
  14 C14            1.8463    -5.0084     1.2831 C.ar    
  15 C15            3.0428    -5.6910     1.4247 C.ar    
  16 C16            3.6849    -6.1739     0.2908 C.ar    
  17 N17            3.1658    -5.9877    -0.9107 N.ar    
  18 O18            4.8586    -6.8446     0.4184 O.3     
  19 C19            5.4702    -7.3164    -0.7839 C.3     
  20 F20            4.6013    -8.1996    -1.4336 F       
  21 F21            5.7463    -6.2318    -1.6233 F       
  22 Cl22           3.7321    -5.9398     2.9984 Cl      
  23 Cl23          -2.4982    -2.9345    -0.5472 Cl      
  24 C24           -0.8302     3.4777     0.0413 C.ar    
  25 C25           -0.3734     4.1938    -1.0557 C.ar    
  26 C26           -0.2834     5.5708    -0.9913 C.ar    
  27 C27           -0.6477     6.2353     0.1651 C.ar    
  28 C28           -1.1029     5.5239     1.2599 C.ar    
  29 C29           -1.2006     4.1473     1.1986 C.ar    
  30 C30           -0.5481     7.7375     0.2327 C.3     
  31 H31            2.2887    -2.7092     0.2416 H       
  32 H32           -1.9153    -0.1653    -0.2915 H       
  33 H33            1.6325    -5.2133    -2.0791 H       
  34 H34            1.3252    -4.6216     2.1463 H       
  35 H35            6.3986    -7.8332    -0.5406 H       
  36 H36           -0.0880     3.6751    -1.9590 H       
  37 H37            0.0721     6.1287    -1.8450 H       
  38 H38           -1.3862     6.0452     2.1623 H       
  39 H39           -1.5608     3.5924     2.0523 H       
  40 H40           -1.4873     8.1792    -0.1002 H       
  41 H41           -0.3470     8.0425     1.2596 H       
  42 H42            0.2621     8.0773    -0.4125 H       
@<TRIPOS>BOND
   1    1    2 1
   2    1    8 2
   3    1    9 1
   4    2    3 ar
   5    2    7 ar
   6    3    4 ar
   7    3   10 1
   8    4    5 ar
   9    4   31 1
  10    5    6 ar
  11    5   11 1
  12    6    7 ar
  13    6   23 1
  14    7   32 1
  15    9   24 1
  16   11   13 1
  17   12   13 ar
  18   12   17 ar
  19   12   33 1
  20   13   14 ar
  21   14   15 ar
  22   14   34 1
  23   15   16 ar
  24   15   22 1
  25   16   17 ar
  26   16   18 1
  27   18   19 1
  28   19   20 1
  29   19   21 1
  30   19   35 1
  31   24   25 ar
  32   24   29 ar
  33   25   26 ar
  34   25   36 1
  35   26   27 ar
  36   26   37 1
  37   27   28 ar
  38   27   30 1
  39   28   29 ar
  40   28   38 1
  41   29   39 1
  42   30   40 1
  43   30   41 1
  44   30   42 1

#	End of record

