#	Name: ASD11710022
#	Creating user name:	WinNT
#	Creation time:	15. 06. 2019 21:29

#	Modifying user name:	WinNT
#	Modification time:	15. 06. 2019 21:29

#	Program:	/corina/corina34_cracker 3.40 0067  02.08.2006

@<TRIPOS>MOLECULE
ASD11710022
  43   44    0    0    0
SMALL
NO_CHARGES


@<TRIPOS>ATOM
   1 N1             0.2642     0.9856     0.1923 N.am    
   2 C2             0.4710    -0.2458    -0.3150 C.2     
   3 C3             1.8216    -0.8456    -0.2725 C.ar    
   4 O4            -0.4530    -0.8633    -0.8074 O.2     
   5 C5             1.9725    -2.2202    -0.0834 C.ar    
   6 C6             2.9513    -0.0404    -0.4270 C.ar    
   7 C7             4.2087    -0.6065    -0.3868 C.ar    
   8 C8             4.3514    -1.9692    -0.1942 C.ar    
   9 C9             3.2356    -2.7736    -0.0452 C.ar    
  10 S10            5.9611    -2.6843    -0.1453 S.o2    
  11 N11            6.4053    -2.7833     1.4469 N.am    
  12 C12            6.5126    -1.6221     2.2156 C.ar    
  13 C13            5.9562    -1.5752     3.4875 C.ar    
  14 C14            7.1810    -0.5133     1.7121 C.ar    
  15 C15            7.2853     0.6333     2.4747 C.ar    
  16 C16            6.7257     0.6783     3.7384 C.ar    
  17 C17            6.0641    -0.4254     4.2448 C.ar    
  18 O18            5.8205    -4.0209    -0.6066 O.2     
  19 O19            6.8372    -1.7420    -0.7484 O.2     
  20 C20            1.3464     1.6797     0.8946 C.3     
  21 C21           -1.0409     1.6325     0.0361 C.3     
  22 C22           -1.6324     1.9275     1.4160 C.3     
  23 C23           -0.8718     2.9421    -0.7368 C.3     
  24 H24            1.1023    -2.8492     0.0330 H       
  25 H25            2.8412     1.0233    -0.5780 H       
  26 H26            5.0836     0.0153    -0.5062 H       
  27 H27            3.3539    -3.8366     0.1048 H       
  28 H28            6.5909    -3.6479     1.8458 H       
  29 H29            5.4394    -2.4369     3.8836 H       
  30 H30            7.6190    -0.5481     0.7254 H       
  31 H31            7.8049     1.4957     2.0838 H       
  32 H32            6.8093     1.5760     4.3331 H       
  33 H33            5.6282    -0.3870     5.2322 H       
  34 H34            1.9692     2.2069     0.1719 H       
  35 H35            0.9222     2.3953     1.5990 H       
  36 H36            1.9530     0.9534     1.4356 H       
  37 H37           -1.7111     0.9708    -0.5125 H       
  38 H38           -0.9622     2.5893     1.9646 H       
  39 H39           -2.6034     2.4088     1.2998 H       
  40 H40           -1.7528     0.9946     1.9666 H       
  41 H41           -0.4505     2.7319    -1.7199 H       
  42 H42           -1.8429     3.4234    -0.8531 H       
  43 H43           -0.2016     3.6038    -0.1882 H       
@<TRIPOS>BOND
   1    1    2 am
   2    1   20 1
   3    1   21 1
   4    2    3 1
   5    2    4 2
   6    3    5 ar
   7    3    6 ar
   8    5    9 ar
   9    5   24 1
  10    6    7 ar
  11    6   25 1
  12    7    8 ar
  13    7   26 1
  14    8    9 ar
  15    8   10 1
  16    9   27 1
  17   10   11 am
  18   10   18 2
  19   10   19 2
  20   11   12 1
  21   11   28 1
  22   12   13 ar
  23   12   14 ar
  24   13   17 ar
  25   13   29 1
  26   14   15 ar
  27   14   30 1
  28   15   16 ar
  29   15   31 1
  30   16   17 ar
  31   16   32 1
  32   17   33 1
  33   20   34 1
  34   20   35 1
  35   20   36 1
  36   21   22 1
  37   21   23 1
  38   21   37 1
  39   22   38 1
  40   22   39 1
  41   22   40 1
  42   23   41 1
  43   23   42 1
  44   23   43 1

#	End of record

