#	Name: ASD10160518
#	Creating user name:	WinNT
#	Creation time:	15. 06. 2019 21:26

#	Modifying user name:	WinNT
#	Modification time:	15. 06. 2019 21:26

#	Program:	/corina/corina34_cracker 3.40 0067  02.08.2006

@<TRIPOS>MOLECULE
ASD10160518
  36   37    0    0    0
SMALL
NO_CHARGES


@<TRIPOS>ATOM
   1 C1             4.7831    -6.5051     1.9502 C.2     
   2 C2             3.5465    -5.8914     1.4343 C.ar    
   3 C3             2.3010    -6.3324     1.8932 C.ar    
   4 C4             1.1525    -5.7591     1.4116 C.ar    
   5 C5             1.2250    -4.7391     0.4662 C.ar    
   6 C6             2.4635    -4.2977     0.0073 C.ar    
   7 C7             3.6160    -4.8628     0.4891 C.ar    
   8 O8             4.7213    -7.3952     2.7752 O.2     
   9 O9             5.9822    -6.0829     1.5030 O.3     
  10 N10            0.0585    -4.1605    -0.0208 N.pl3   
  11 C11           -2.3557    -4.3082     0.0172 C.ar    
  12 C12           -1.1157    -4.9180    -0.1063 C.ar    
  13 C13           -1.0539    -6.2942    -0.3170 C.ar    
  14 C14           -2.2409    -7.0026    -0.3952 C.ar    
  15 C15           -3.4455    -6.3226    -0.2620 C.ar    
  16 N16           -3.4663    -5.0158    -0.0628 N.ar    
  17 O17           -4.6150    -7.0085    -0.3372 O.3     
  18 C18           -6.2855    -5.7682    -1.5667 C.3     
  19 C19           -5.8200    -6.2541    -0.1926 C.3     
  20 C20           -6.9032    -7.1375     0.4298 C.3     
  21 F21           -6.4776    -7.5818     1.6862 F       
  22 F22           -8.0829    -6.3989     0.5713 F       
  23 F23           -7.1395    -8.2394    -0.3991 F       
  24 F24           -6.5218    -6.8701    -2.3956 F       
  25 F25           -7.4652    -5.0296    -1.4252 F       
  26 F26           -5.2951    -4.9604    -2.1358 F       
  27 Cl27          -2.2246    -8.7186    -0.6570 Cl      
  28 H28            2.2440    -7.1239     2.6258 H       
  29 H29            0.1904    -6.0991     1.7655 H       
  30 H30            2.5164    -3.5065    -0.7259 H       
  31 H31            4.5763    -4.5170     0.1361 H       
  32 H32            6.7650    -6.5154     1.8706 H       
  33 H33            0.0581    -3.2320    -0.3013 H       
  34 H34           -2.4123    -3.2428     0.1851 H       
  35 H35           -0.1029    -6.7961    -0.4173 H       
  36 H36           -5.6359    -5.3955     0.4532 H       
@<TRIPOS>BOND
   1    1    2 1
   2    1    8 2
   3    1    9 1
   4    2    3 ar
   5    2    7 ar
   6    3    4 ar
   7    3   28 1
   8    4    5 ar
   9    4   29 1
  10    5    6 ar
  11    5   10 1
  12    6    7 ar
  13    6   30 1
  14    7   31 1
  15    9   32 1
  16   10   12 1
  17   10   33 1
  18   11   12 ar
  19   11   16 ar
  20   11   34 1
  21   12   13 ar
  22   13   14 ar
  23   13   35 1
  24   14   15 ar
  25   14   27 1
  26   15   16 ar
  27   15   17 1
  28   17   19 1
  29   18   19 1
  30   18   24 1
  31   18   25 1
  32   18   26 1
  33   19   20 1
  34   19   36 1
  35   20   21 1
  36   20   22 1
  37   20   23 1

#	End of record

