#	Name: ASD10800057
#	Creating user name:	WinNT
#	Creation time:	15. 06. 2019 21:28

#	Modifying user name:	WinNT
#	Modification time:	15. 06. 2019 21:28

#	Program:	/corina/corina34_cracker 3.40 0067  02.08.2006

@<TRIPOS>MOLECULE
ASD10800057
  60   63    0    0    0
SMALL
NO_CHARGES


@<TRIPOS>ATOM
   1 C1            -0.0168     1.3891     0.0097 C.ar    
   2 C2             0.0021    -0.0041     0.0020 C.ar    
   3 C3             1.1887    -0.7007    -0.0415 C.ar    
   4 C4             2.3744     0.0056    -0.0798 C.ar    
   5 C5             2.3576     1.3822    -0.0587 C.ar    
   6 C6             1.1573     2.1014     0.0023 C.ar    
   7 C7             3.6768     2.1116    -0.1047 C.3     
   8 C8             4.1240     2.4471     1.3195 C.3     
   9 N9             4.6831     1.2609    -0.7449 N.2     
  10 C10            5.2802     1.6628    -1.8326 C.2     
  11 S11            4.9860     3.2008    -2.6509 S.3     
  12 C12            6.1830     2.9386    -3.9963 C.3     
  13 C13            6.7875     1.5606    -3.7045 C.3     
  14 N14            6.2304     0.9664    -2.5107 N.pl3   
  15 C15            5.3777     3.2817     1.2689 C.ar    
  16 C16            5.2888     4.6603     1.2196 C.ar    
  17 C17            6.4388     5.4259     1.1731 C.ar    
  18 C18            7.6778     4.8129     1.1763 C.ar    
  19 C19            7.7668     3.4344     1.2266 C.ar    
  20 C20            6.6168     2.6689     1.2774 C.ar    
  21 C21            6.3418     6.9288     1.1183 C.3     
  22 C22            9.1175     2.7661     1.2296 C.3     
  23 C23            1.3350     3.6008     0.0922 C.3     
  24 C24           -1.3884     2.0079    -0.0075 C.3     
  25 C25            0.0770     4.4733     0.1750 C.3     
  26 C26           -0.6223     4.5349    -1.1798 C.3     
  27 C27           -0.5802     3.2770    -2.0290 C.3     
  28 C28           -1.7281     2.4814    -1.4201 C.3     
  29 H29           -0.9352    -0.5411     0.0322 H       
  30 H30            1.1934    -1.7807    -0.0450 H       
  31 H31            3.3166    -0.5210    -0.1266 H       
  32 H32            3.5629     3.0328    -0.6763 H       
  33 H33            3.3363     3.0051     1.8257 H       
  34 H34            4.3235     1.5245     1.8645 H       
  35 H35            5.6766     2.9357    -4.9615 H       
  36 H36            6.9563     3.7064    -3.9731 H       
  37 H37            6.5978     0.9034    -4.5531 H       
  38 H38            7.8646     1.6662    -3.5748 H       
  39 H39            6.5216     0.0929    -2.2056 H       
  40 H40            4.3208     5.1393     1.2170 H       
  41 H41            8.5763     5.4111     1.1393 H       
  42 H42            6.6863     1.5919     1.3167 H       
  43 H43            6.3344     7.3296     2.1319 H       
  44 H44            7.1985     7.3287     0.5758 H       
  45 H45            5.4225     7.2152     0.6076 H       
  46 H46            9.4598     2.6434     2.2572 H       
  47 H47            9.0404     1.7887     0.7533 H       
  48 H48            9.8292     3.3827     0.6807 H       
  49 H49            1.9306     3.8177     0.9785 H       
  50 H50            1.8886     3.9300    -0.7870 H       
  51 H51           -2.1161     1.2280     0.2758 H       
  52 H52           -1.4779     2.8064     0.7119 H       
  53 H53           -0.5829     4.1267     0.9516 H       
  54 H54            0.3965     5.4938     0.4346 H       
  55 H55           -1.6669     4.7984    -1.0064 H       
  56 H56           -0.1690     5.3473    -1.7521 H       
  57 H57           -0.7885     3.5134    -3.0798 H       
  58 H58            0.3697     2.7565    -1.9502 H       
  59 H59           -1.9343     1.6110    -2.0503 H       
  60 H60           -2.6253     3.1038    -1.3882 H       
@<TRIPOS>BOND
   1    1    2 ar
   2    1    6 ar
   3    1   24 1
   4    2    3 ar
   5    2   29 1
   6    3    4 ar
   7    3   30 1
   8    4    5 ar
   9    4   31 1
  10    5    6 ar
  11    5    7 1
  12    6   23 1
  13    7    8 1
  14    7    9 1
  15    7   32 1
  16    8   15 1
  17    8   33 1
  18    8   34 1
  19    9   10 2
  20   10   11 1
  21   10   14 1
  22   11   12 1
  23   12   13 1
  24   12   35 1
  25   12   36 1
  26   13   14 1
  27   13   37 1
  28   13   38 1
  29   14   39 1
  30   15   16 ar
  31   15   20 ar
  32   16   17 ar
  33   16   40 1
  34   17   18 ar
  35   17   21 1
  36   18   19 ar
  37   18   41 1
  38   19   20 ar
  39   19   22 1
  40   20   42 1
  41   21   43 1
  42   21   44 1
  43   21   45 1
  44   22   46 1
  45   22   47 1
  46   22   48 1
  47   23   25 1
  48   23   49 1
  49   23   50 1
  50   24   28 1
  51   24   51 1
  52   24   52 1
  53   25   26 1
  54   25   53 1
  55   25   54 1
  56   26   27 1
  57   26   55 1
  58   26   56 1
  59   27   28 1
  60   27   57 1
  61   27   58 1
  62   28   59 1
  63   28   60 1

#	End of record

