#	Name: ASD10160472
#	Creating user name:	WinNT
#	Creation time:	15. 06. 2019 21:26

#	Modifying user name:	WinNT
#	Modification time:	15. 06. 2019 21:26

#	Program:	/corina/corina34_cracker 3.40 0067  02.08.2006

@<TRIPOS>MOLECULE
ASD10160472
  38   39    0    0    0
SMALL
NO_CHARGES


@<TRIPOS>ATOM
   1 C1            -2.2157    -2.6165     4.8632 C.2     
   2 C2            -1.6190    -3.0140     3.5816 C.ar    
   3 C3            -2.3752    -2.9481     2.4042 C.ar    
   4 C4            -1.8091    -3.3230     1.2030 C.ar    
   5 C5            -0.4866    -3.7668     1.1629 C.ar    
   6 C6             0.2639    -3.8329     2.3301 C.ar    
   7 C7            -0.2912    -3.4543     3.5321 C.ar    
   8 O8            -1.5593    -2.6742     5.8816 O.2     
   9 O9            -2.5401    -3.2603     0.0580 O.3     
  10 C10           -3.8871    -2.7972     0.1729 C.3     
  11 O11            0.0679    -4.1354    -0.0197 O.3     
  12 C12            2.4295    -3.8458    -0.1430 C.ar    
  13 C13            1.3203    -4.6642    -0.0003 C.ar    
  14 C14            1.5043    -6.0344     0.1637 C.ar    
  15 C15            2.7976    -6.5288     0.1778 C.ar    
  16 C16            3.8612    -5.6468     0.0288 C.ar    
  17 N17            3.6482    -4.3511    -0.1248 N.ar    
  18 O18            5.1333    -6.1211     0.0417 O.3     
  19 C19            6.1837    -5.1652    -0.1161 C.3     
  20 C20            7.4305    -5.6502     0.6264 C.3     
  21 C21            6.5064    -5.0027    -1.6028 C.3     
  22 Cl22           3.0868    -8.2286     0.3796 Cl      
  23 H23           -3.2375    -2.2685     4.8983 H       
  24 H24           -3.3988    -2.6051     2.4367 H       
  25 H25            1.2868    -4.1774     2.2939 H       
  26 H26            0.2963    -3.5018     4.4371 H       
  27 H27           -4.4426    -3.4570     0.8393 H       
  28 H28           -3.8901    -1.7853     0.5780 H       
  29 H29           -4.3561    -2.7960    -0.8111 H       
  30 H30            2.2946    -2.7824    -0.2752 H       
  31 H31            0.6583    -6.6960     0.2776 H       
  32 H32            5.8668    -4.2062     0.2938 H       
  33 H33            7.7474    -6.6092     0.2164 H       
  34 H34            8.2317    -4.9210     0.5060 H       
  35 H35            7.2006    -5.7660     1.6855 H       
  36 H36            6.8233    -5.9616    -2.0127 H       
  37 H37            5.6182    -4.6571    -2.1317 H       
  38 H38            7.3076    -4.2735    -1.7231 H       
@<TRIPOS>BOND
   1    1    2 1
   2    1    8 2
   3    1   23 1
   4    2    3 ar
   5    2    7 ar
   6    3    4 ar
   7    3   24 1
   8    4    5 ar
   9    4    9 1
  10    5    6 ar
  11    5   11 1
  12    6    7 ar
  13    6   25 1
  14    7   26 1
  15    9   10 1
  16   10   27 1
  17   10   28 1
  18   10   29 1
  19   11   13 1
  20   12   13 ar
  21   12   17 ar
  22   12   30 1
  23   13   14 ar
  24   14   15 ar
  25   14   31 1
  26   15   16 ar
  27   15   22 1
  28   16   17 ar
  29   16   18 1
  30   18   19 1
  31   19   20 1
  32   19   21 1
  33   19   32 1
  34   20   33 1
  35   20   34 1
  36   20   35 1
  37   21   36 1
  38   21   37 1
  39   21   38 1

#	End of record

