#	Name: ASD13490056
#	Creating user name:	WinNT
#	Creation time:	15. 06. 2019 21:30

#	Modifying user name:	WinNT
#	Modification time:	15. 06. 2019 21:30

#	Program:	/corina/corina34_cracker 3.40 0067  02.08.2006

@<TRIPOS>MOLECULE
ASD13490056
  61   65    0    0    0
SMALL
NO_CHARGES


@<TRIPOS>ATOM
   1 C1            -0.0167     1.3792     0.0096 C.ar    
   2 C2             0.0021    -0.0041     0.0020 C.ar    
   3 C3             1.2189    -0.6835    -0.0133 C.ar    
   4 C4             2.4111     0.0261    -0.0208 C.ar    
   5 C5             2.3955     1.4060    -0.0128 C.ar    
   6 C6             1.1817     2.0899     0.0020 C.ar    
   7 N7             1.2383    -2.0867    -0.0205 N.pl3   
   8 C8             1.9497    -2.8872    -0.8759 C.2     
   9 C9             1.6798    -4.1614    -0.5331 C.2     
  10 N10            0.8276    -4.1447     0.5024 N.2     
  11 C11            0.5603    -2.9076     0.8223 C.2     
  12 C12            1.1653     3.5741     0.0101 C.2     
  13 C13            2.2476     4.4058     0.0043 C.2     
  14 N14            1.7519     5.6641     0.0153 N.pl3   
  15 N15            0.4673     5.5965     0.0269 N.2     
  16 N16            0.0809     4.3698     0.0188 N.2     
  17 C17            2.2386    -5.3929    -1.1980 C.3     
  18 O18           -1.1656    -0.7002     0.0099 O.3     
  19 C19           -2.3748     0.0612     0.0260 C.3     
  20 C20            2.5444     6.8963     0.0146 C.3     
  21 C21            2.1202     7.7656    -1.1410 C.2     
  22 N22            2.7164     8.9576    -1.3419 N.am    
  23 O23            1.2424     7.3926    -1.8903 O.2     
  24 C24            3.7766     9.4081    -0.4369 C.3     
  25 C25            5.1321     8.9301    -0.9615 C.3     
  26 C26            2.3234     9.7629    -2.4125 C.ar    
  27 C27            2.9563     9.6374    -3.6678 C.ar    
  28 C28            3.9884     8.7085    -3.8734 C.ar    
  29 C29            4.5763     8.6143    -5.0979 C.ar    
  30 C30            4.1685     9.4277    -6.1533 C.ar    
  31 C31            3.1711    10.3393    -5.9901 C.ar    
  32 C32            2.5410    10.4647    -4.7399 C.ar    
  33 C33            1.5070    11.3946    -4.5358 C.ar    
  34 C34            0.9137    11.4941    -3.3146 C.ar    
  35 C35            1.3104    10.6835    -2.2547 C.ar    
  36 F36            5.3517     9.4602    -2.2374 F       
  37 F37            6.1446     9.3603    -0.0972 F       
  38 F38            5.1395     7.5328    -1.0294 F       
  39 H39           -0.9587     1.9073     0.0169 H       
  40 H40            3.3529    -0.5024    -0.0327 H       
  41 H41            3.3248     1.9562    -0.0180 H       
  42 H42            2.6012    -2.5592    -1.6723 H       
  43 H43           -0.0931    -2.5902     1.6215 H       
  44 H44            3.2883     4.1176    -0.0069 H       
  45 H45            3.1669    -5.6822    -0.7054 H       
  46 H46            1.5174    -6.2065    -1.1208 H       
  47 H47            2.4358    -5.1807    -2.2488 H       
  48 H48           -2.3996     0.6848     0.9196 H       
  49 H49           -2.4172     0.6944    -0.8602 H       
  50 H50           -3.2298    -0.6148     0.0308 H       
  51 H51            2.3840     7.4319     0.9502 H       
  52 H52            3.6011     6.6486    -0.0858 H       
  53 H53            3.7709    10.4968    -0.3840 H       
  54 H54            3.6056     8.9951     0.5572 H       
  55 H55            4.3148     8.0720    -3.0643 H       
  56 H56            5.3704     7.8991    -5.2534 H       
  57 H57            4.6513     9.3337    -7.1148 H       
  58 H58            2.8656    10.9634    -6.8169 H       
  59 H59            1.1836    12.0299    -5.3470 H       
  60 H60            0.1202    12.2116    -3.1664 H       
  61 H61            0.8236    10.7824    -1.2957 H       
@<TRIPOS>BOND
   1    1    2 ar
   2    1    6 ar
   3    1   39 1
   4    2    3 ar
   5    2   18 1
   6    3    4 ar
   7    3    7 1
   8    4    5 ar
   9    4   40 1
  10    5    6 ar
  11    5   41 1
  12    6   12 1
  13    7    8 1
  14    7   11 1
  15    8    9 2
  16    8   42 1
  17    9   10 1
  18    9   17 1
  19   10   11 2
  20   11   43 1
  21   12   13 2
  22   12   16 1
  23   13   14 1
  24   13   44 1
  25   14   15 1
  26   14   20 1
  27   15   16 2
  28   17   45 1
  29   17   46 1
  30   17   47 1
  31   18   19 1
  32   19   48 1
  33   19   49 1
  34   19   50 1
  35   20   21 1
  36   20   51 1
  37   20   52 1
  38   21   22 am
  39   21   23 2
  40   22   24 1
  41   22   26 1
  42   24   25 1
  43   24   53 1
  44   24   54 1
  45   25   36 1
  46   25   37 1
  47   25   38 1
  48   26   27 ar
  49   26   35 ar
  50   27   28 ar
  51   27   32 ar
  52   28   29 ar
  53   28   55 1
  54   29   30 ar
  55   29   56 1
  56   30   31 ar
  57   30   57 1
  58   31   32 ar
  59   31   58 1
  60   32   33 ar
  61   33   34 ar
  62   33   59 1
  63   34   35 ar
  64   34   60 1
  65   35   61 1

#	End of record

