#	Name: ASD13010003
#	Creating user name:	WinNT
#	Creation time:	15. 06. 2019 21:30

#	Modifying user name:	WinNT
#	Modification time:	15. 06. 2019 21:30

#	Program:	/corina/corina34_cracker 3.40 0067  02.08.2006

@<TRIPOS>MOLECULE
ASD13010003
  40   43    0    0    0
SMALL
NO_CHARGES


@<TRIPOS>ATOM
   1 C1             2.0608    -0.6883    -2.9355 C.ar    
   2 C2             1.5875    -1.5527    -1.9739 C.ar    
   3 C3             1.9666    -1.4099    -0.6454 C.ar    
   4 C4             2.8163    -0.4093    -0.2686 C.ar    
   5 C5             2.9277     0.3387    -2.5740 C.ar    
   6 N6             3.5594     1.3393    -3.2729 N.pl3   
   7 C7             3.3098     0.4797    -1.2265 C.ar    
   8 C8             4.2119     1.6329    -1.1738 C.2     
   9 N9             4.3284     2.1022    -2.3882 N.2     
  10 C10            3.4516     1.5583    -4.6450 C.ar    
  11 N11            4.8342     2.1398    -0.0320 N.pl3   
  12 C12            5.7345     3.2042    -0.1406 C.ar    
  13 C13            5.2833     4.5133    -0.0207 C.ar    
  14 C14            7.0837     2.9555    -0.3631 C.ar    
  15 C15            7.9706     4.0102    -0.4700 C.ar    
  16 C16            7.5170     5.3115    -0.3558 C.ar    
  17 C17            6.1762     5.5628    -0.1288 C.ar    
  18 Cl18           3.6003     4.8299     0.2638 Cl      
  19 C19            3.2371     1.9940    -7.3735 C.ar    
  20 C20            3.2144     0.6904    -6.8681 C.ar    
  21 C21            3.3211     0.4776    -5.5127 C.ar    
  22 C22            3.4688     2.8576    -5.1443 C.ar    
  23 C23            3.3626     3.0776    -6.4986 C.ar    
  24 C24            3.1231     2.2257    -8.8251 C.2     
  25 O25            3.0092     1.2834    -9.5837 O.2     
  26 O26            3.1451     3.4826    -9.3105 O.3     
  27 Cl27           7.6544     1.3222    -0.5060 Cl      
  28 H28            1.7639    -0.8094    -3.9668 H       
  29 H29            0.9148    -2.3494    -2.2553 H       
  30 H30            1.5857    -2.0961     0.0965 H       
  31 H31            3.1055    -0.3054     0.7667 H       
  32 H32            4.6421     1.7538     0.8369 H       
  33 H33            9.0192     3.8177    -0.6425 H       
  34 H34            8.2124     6.1336    -0.4395 H       
  35 H35            5.8264     6.5803    -0.0357 H       
  36 H36            3.1176    -0.1488    -7.5411 H       
  37 H37            3.3040    -0.5290    -5.1217 H       
  38 H38            3.5654     3.6941    -4.4679 H       
  39 H39            3.3804     4.0857    -6.8857 H       
  40 H40            3.0672     3.5845   -10.2690 H       
@<TRIPOS>BOND
   1    1    2 ar
   2    1    5 ar
   3    1   28 1
   4    2    3 ar
   5    2   29 1
   6    3    4 ar
   7    3   30 1
   8    4    7 ar
   9    4   31 1
  10    5    7 ar
  11    5    6 1
  12    6    9 1
  13    6   10 1
  14    7    8 1
  15    8    9 2
  16    8   11 1
  17   10   22 ar
  18   10   21 ar
  19   11   12 1
  20   11   32 1
  21   12   14 ar
  22   12   13 ar
  23   13   17 ar
  24   13   18 1
  25   14   15 ar
  26   14   27 1
  27   15   16 ar
  28   15   33 1
  29   16   17 ar
  30   16   34 1
  31   17   35 1
  32   19   20 ar
  33   19   23 ar
  34   19   24 1
  35   20   21 ar
  36   20   36 1
  37   21   37 1
  38   22   23 ar
  39   22   38 1
  40   23   39 1
  41   24   25 2
  42   24   26 1
  43   26   40 1

#	End of record

