#	Name: ASD10160102
#	Creating user name:	WinNT
#	Creation time:	15. 06. 2019 21:25

#	Modifying user name:	WinNT
#	Modification time:	15. 06. 2019 21:25

#	Program:	/corina/corina34_cracker 3.40 0067  02.08.2006

@<TRIPOS>MOLECULE
ASD10160102
  36   38    0    0    0
SMALL
NO_CHARGES


@<TRIPOS>ATOM
   1 C1            -0.0838     1.4462    -0.5246 C.2     
   2 C2            -0.0465    -0.0218    -0.3920 C.ar    
   3 C3             1.1452    -0.7178    -0.6263 C.ar    
   4 C4             1.1752    -2.0921    -0.5004 C.ar    
   5 C5             0.0256    -2.7835    -0.1420 C.ar    
   6 C6            -1.1620    -2.0947     0.0920 C.ar    
   7 C7            -1.2000    -0.7224    -0.0261 C.ar    
   8 O8             0.9217     2.0541    -0.8379 O.2     
   9 N9            -1.2336     2.1138    -0.3040 N.am    
  10 S10           -1.2755     3.7625    -0.4529 S.o2    
  11 O11           -2.6145     4.1099    -0.1278 O.2     
  12 O12           -0.1878     4.2140     0.3423 O.2     
  13 C13           -0.9480     4.0667    -2.2110 C.3     
  14 O14            0.0593    -4.1348    -0.0197 O.3     
  15 C15            2.2747    -4.5460     0.8241 C.2     
  16 C16            1.2616    -4.7564    -0.1396 C.2     
  17 C17            1.5052    -5.5915    -1.1914 C.2     
  18 C18            2.7532    -6.2262    -1.2997 C.2     
  19 C19            3.7089    -6.0143    -0.3711 C.2     
  20 N20            3.4806    -5.1811     0.6879 N.pl3   
  21 N21            2.3189    -3.8120     1.9267 N.2     
  22 C22            3.5171    -3.9518     2.4980 C.2     
  23 C23            4.2564    -4.7982     1.7474 C.2     
  24 F24           -2.2775    -2.7728     0.4399 F       
  25 F25            2.2640    -0.0458    -0.9754 F       
  26 H26            2.0939    -2.6303    -0.6812 H       
  27 H27           -2.1206    -0.1890     0.1595 H       
  28 H28           -2.0367     1.6285    -0.0579 H       
  29 H29           -1.7180     3.5840    -2.8128 H       
  30 H30           -0.9570     5.1398    -2.4019 H       
  31 H31            0.0279     3.6589    -2.4746 H       
  32 H32            0.7422    -5.7634    -1.9361 H       
  33 H33            2.9490    -6.8878    -2.1306 H       
  34 H34            4.6644    -6.5086    -0.4655 H       
  35 H35            3.8406    -3.4712     3.4095 H       
  36 H36            5.2693    -5.1148     1.9478 H       
@<TRIPOS>BOND
   1    1    2 1
   2    1    8 2
   3    1    9 am
   4    2    3 ar
   5    2    7 ar
   6    3    4 ar
   7    3   25 1
   8    4    5 ar
   9    4   26 1
  10    5    6 ar
  11    5   14 1
  12    6    7 ar
  13    6   24 1
  14    7   27 1
  15    9   10 am
  16    9   28 1
  17   10   11 2
  18   10   12 2
  19   10   13 1
  20   13   29 1
  21   13   30 1
  22   13   31 1
  23   14   16 1
  24   15   16 1
  25   15   20 1
  26   15   21 2
  27   16   17 2
  28   17   18 1
  29   17   32 1
  30   18   19 2
  31   18   33 1
  32   19   20 1
  33   19   34 1
  34   20   23 1
  35   21   22 1
  36   22   23 2
  37   22   35 1
  38   23   36 1

#	End of record

