#	Name: ASD11710004
#	Creating user name:	WinNT
#	Creation time:	15. 06. 2019 21:29

#	Modifying user name:	WinNT
#	Modification time:	15. 06. 2019 21:29

#	Program:	/corina/corina34_cracker 3.40 0067  02.08.2006

@<TRIPOS>MOLECULE
ASD11710004
  50   52    0    0    0
SMALL
NO_CHARGES


@<TRIPOS>ATOM
   1 C1             3.1439     7.8667     1.1781 C.ar    
   2 C2             2.2441     8.8587     0.8359 C.ar    
   3 C3             1.2547     8.6033    -0.0951 C.ar    
   4 C4             1.1654     7.3560    -0.6842 C.ar    
   5 C5             2.0658     6.3642    -0.3427 C.ar    
   6 C6             3.0543     6.6192     0.5893 C.ar    
   7 C7             1.9681     5.0042    -0.9846 C.3     
   8 N8             2.7795     4.9805    -2.2042 N.am    
   9 C9             4.0742     4.6107    -2.1452 C.2     
  10 C10            4.8633     4.4809    -3.3886 C.ar    
  11 O11            4.5931     4.3840    -1.0696 O.2     
  12 C12            4.6470     5.3599    -4.4511 C.ar    
  13 C13            5.8319     3.4825    -3.5031 C.ar    
  14 C14            6.5652     3.3671    -4.6660 C.ar    
  15 C15            6.3424     4.2387    -5.7172 C.ar    
  16 C16            5.3871     5.2336    -5.6084 C.ar    
  17 S17            7.2841     4.0851    -7.1985 S.o2    
  18 N18            6.4595     3.0548    -8.1990 N.am    
  19 C19            5.1639     3.3719    -8.6135 C.ar    
  20 C20            4.2168     2.3672    -8.7677 C.ar    
  21 C21            4.8179     4.6929    -8.8671 C.ar    
  22 C22            3.5358     5.0029    -9.2769 C.ar    
  23 C23            2.5972     4.0000    -9.4344 C.ar    
  24 C24            2.9369     2.6841    -9.1777 C.ar    
  25 O25            7.2572     5.3601    -7.8251 O.2     
  26 O26            8.4879     3.4197    -6.8415 O.2     
  27 C27            4.5860     0.9331    -8.4882 C.3     
  28 C28            2.1835     5.3586    -3.4879 C.3     
  29 H29            3.9196     8.0677     1.9021 H       
  30 H30            2.3139     9.8333     1.2962 H       
  31 H31            0.5513     9.3781    -0.3619 H       
  32 H32            0.3920     7.1562    -1.4111 H       
  33 H33            3.7580     5.8445     0.8559 H       
  34 H34            2.3336     4.2477    -0.2903 H       
  35 H35            0.9284     4.7948    -1.2358 H       
  36 H36            3.9016     6.1369    -4.3674 H       
  37 H37            6.0073     2.8020    -2.6830 H       
  38 H38            7.3149     2.5950    -4.7558 H       
  39 H39            5.2180     5.9107    -6.4327 H       
  40 H40            6.8762     2.2312    -8.4972 H       
  41 H41            5.5504     5.4768    -8.7436 H       
  42 H42            3.2661     6.0299    -9.4742 H       
  43 H43            1.5952     4.2452    -9.7543 H       
  44 H44            2.2013     1.9031    -9.3017 H       
  45 H45            4.3905     0.7051    -7.4404 H       
  46 H46            3.9903     0.2747    -9.1206 H       
  47 H47            5.6442     0.7822    -8.7016 H       
  48 H48            2.3305     6.4254    -3.6566 H       
  49 H49            2.6601     4.7949    -4.2899 H       
  50 H50            1.1164     5.1369    -3.4725 H       
@<TRIPOS>BOND
   1    1    2 ar
   2    1    6 ar
   3    1   29 1
   4    2    3 ar
   5    2   30 1
   6    3    4 ar
   7    3   31 1
   8    4    5 ar
   9    4   32 1
  10    5    6 ar
  11    5    7 1
  12    6   33 1
  13    7    8 1
  14    7   34 1
  15    7   35 1
  16    8    9 am
  17    8   28 1
  18    9   10 1
  19    9   11 2
  20   10   12 ar
  21   10   13 ar
  22   12   16 ar
  23   12   36 1
  24   13   14 ar
  25   13   37 1
  26   14   15 ar
  27   14   38 1
  28   15   16 ar
  29   15   17 1
  30   16   39 1
  31   17   18 am
  32   17   25 2
  33   17   26 2
  34   18   19 1
  35   18   40 1
  36   19   20 ar
  37   19   21 ar
  38   20   27 1
  39   20   24 ar
  40   21   22 ar
  41   21   41 1
  42   22   23 ar
  43   22   42 1
  44   23   24 ar
  45   23   43 1
  46   24   44 1
  47   27   45 1
  48   27   46 1
  49   27   47 1
  50   28   48 1
  51   28   49 1
  52   28   50 1

#	End of record

