#	Name: ASD10160265
#	Creating user name:	WinNT
#	Creation time:	15. 06. 2019 21:25

#	Modifying user name:	WinNT
#	Modification time:	15. 06. 2019 21:25

#	Program:	/corina/corina34_cracker 3.40 0067  02.08.2006

@<TRIPOS>MOLECULE
ASD10160265
  35   36    0    0    0
SMALL
NO_CHARGES


@<TRIPOS>ATOM
   1 C1             0.3718     1.0991     1.9659 C.2     
   2 C2             0.2891    -0.2785     1.4424 C.ar    
   3 C3             1.3730    -0.8335     0.7562 C.ar    
   4 C4             1.2916    -2.1206     0.2694 C.ar    
   5 C5             0.1314    -2.8662     0.4607 C.ar    
   6 C6            -0.9471    -2.3163     1.1420 C.ar    
   7 C7            -0.8705    -1.0328     1.6367 C.ar    
   8 O8             1.3837     1.7525     1.8004 O.2     
   9 N9            -0.6763     1.6345     2.6225 N.am    
  10 S10           -0.5835     3.1801     3.2098 S.o2    
  11 O11           -1.8355     3.3879     3.8489 O.2     
  12 O12            0.6294     3.2015     3.9499 O.2     
  13 C13           -0.4442     4.2193     1.7295 C.3     
  14 O14            0.0538    -4.1332    -0.0201 O.3     
  15 C15           -1.4009    -5.5727     1.2035 C.ar    
  16 C16           -1.1325    -4.7865     0.0918 C.ar    
  17 C17           -2.0956    -4.6764    -0.9061 C.ar    
  18 C18           -3.2899    -5.3609    -0.7470 C.ar    
  19 C19           -3.4840    -6.1244     0.3887 C.ar    
  20 N20           -2.5503    -6.2078     1.3163 N.ar    
  21 C21           -4.7801    -6.8719     0.5693 C.3     
  22 F22            2.3382    -2.6588    -0.3941 F       
  23 H23            2.2726    -0.2547     0.6073 H       
  24 H24           -1.8455    -2.8976     1.2881 H       
  25 H25           -1.7082    -0.6083     2.1700 H       
  26 H26           -1.4851     1.1146     2.7510 H       
  27 H27           -1.3226     4.0751     1.1004 H       
  28 H28           -0.3772     5.2662     2.0254 H       
  29 H29            0.4508     3.9409     1.1731 H       
  30 H30           -0.6585    -5.6688     1.9820 H       
  31 H31           -1.9170    -4.0721    -1.7832 H       
  32 H32           -4.0603    -5.2981    -1.5013 H       
  33 H33           -4.6894    -7.8670     0.1339 H       
  34 H34           -5.0038    -6.9595     1.6325 H       
  35 H35           -5.5845    -6.3297     0.0722 H       
@<TRIPOS>BOND
   1    1    2 1
   2    1    8 2
   3    1    9 am
   4    2    3 ar
   5    2    7 ar
   6    3    4 ar
   7    3   23 1
   8    4    5 ar
   9    4   22 1
  10    5    6 ar
  11    5   14 1
  12    6    7 ar
  13    6   24 1
  14    7   25 1
  15    9   10 am
  16    9   26 1
  17   10   11 2
  18   10   12 2
  19   10   13 1
  20   13   27 1
  21   13   28 1
  22   13   29 1
  23   14   16 1
  24   15   16 ar
  25   15   20 ar
  26   15   30 1
  27   16   17 ar
  28   17   18 ar
  29   17   31 1
  30   18   19 ar
  31   18   32 1
  32   19   20 ar
  33   19   21 1
  34   21   33 1
  35   21   34 1
  36   21   35 1

#	End of record

