#	Name: ASD10420156
#	Creating user name:	WinNT
#	Creation time:	15. 06. 2019 21:27

#	Modifying user name:	WinNT
#	Modification time:	15. 06. 2019 21:27

#	Program:	/corina/corina34_cracker 3.40 0067  02.08.2006

@<TRIPOS>MOLECULE
ASD10420156
  35   36    0    0    0
SMALL
NO_CHARGES


@<TRIPOS>ATOM
   1 C1            -0.0184     1.5028     0.0103 C.3     
   2 C2             0.0140    -2.8190    -2.5325 C.3     
   3 C3             0.1629    -8.4976     4.9118 C.2     
   4 C4             0.0817    -4.1854     2.4419 C.2     
   5 C5             0.0640    -2.8429     2.4530 C.2     
   6 C6             0.1283    -4.9430     6.1215 C.ar    
   7 C7             0.1462    -6.3229     6.1211 C.ar    
   8 C8             0.1075    -4.2451     4.9300 C.ar    
   9 C9             0.0228    -0.6983     1.1921 C.ar    
  10 C10            0.0377    -2.7827    -0.0343 C.ar    
  11 C11            0.1224    -6.3271     3.7027 C.ar    
  12 C12            0.0021    -0.0041     0.0020 C.ar    
  13 C13            0.0174    -2.0798    -1.2193 C.ar    
  14 C14           -0.0005    -0.6909    -1.2053 C.ar    
  15 C15            0.1433    -7.0258     4.9107 C.ar    
  16 C16            0.1044    -4.9327     3.7123 C.ar    
  17 C17            0.0413    -2.0959     1.1831 C.ar    
  18 O18           -0.0209    -0.0022    -2.3761 O.3     
  19 O19            0.1815    -9.1029     5.9622 O.2     
  20 H20            1.0042     1.8801     0.0026 H       
  21 H21           -0.5455     1.8639    -0.8728 H       
  22 H22           -0.5286     1.8543     0.9071 H       
  23 H23           -1.0143    -3.0102    -2.8392 H       
  24 H24            0.5129    -2.2152    -3.2906 H       
  25 H25            0.5410    -3.7662    -2.4177 H       
  26 H26            0.1607    -9.0384     3.9769 H       
  27 H27            0.0793    -4.7177     1.5022 H       
  28 H28            0.0663    -2.3106     3.3927 H       
  29 H29            0.1261    -4.4061     7.0586 H       
  30 H30            0.1627    -6.8618     7.0569 H       
  31 H31            0.0932    -3.1652     4.9387 H       
  32 H32            0.0293    -0.1633     2.1303 H       
  33 H33            0.0509    -3.8626    -0.0462 H       
  34 H34            0.1201    -6.8635     2.7654 H       
  35 H35            0.8564     0.2089    -2.7236 H       
@<TRIPOS>BOND
   1    1   12 1
   2    1   20 1
   3    1   21 1
   4    1   22 1
   5    2   13 1
   6    2   23 1
   7    2   24 1
   8    2   25 1
   9    3   15 1
  10    3   19 2
  11    3   26 1
  12    4    5 2
  13    4   16 1
  14    4   27 1
  15    5   17 1
  16    5   28 1
  17    6    7 ar
  18    6    8 ar
  19    6   29 1
  20    7   15 ar
  21    7   30 1
  22    8   16 ar
  23    8   31 1
  24    9   12 ar
  25    9   17 ar
  26    9   32 1
  27   10   13 ar
  28   10   17 ar
  29   10   33 1
  30   11   15 ar
  31   11   16 ar
  32   11   34 1
  33   12   14 ar
  34   13   14 ar
  35   14   18 1
  36   18   35 1

#	End of record

