#	Name: ASD11030068
#	Creating user name:	WinNT
#	Creation time:	15. 06. 2019 21:29

#	Modifying user name:	WinNT
#	Modification time:	15. 06. 2019 21:29

#	Program:	/corina/corina34_cracker 3.40 0067  02.08.2006

@<TRIPOS>MOLECULE
ASD11030068
  26   27    0    0    0
SMALL
NO_CHARGES


@<TRIPOS>ATOM
   1 C1            -0.0168     1.3896     0.0097 C.ar    
   2 C2             0.0021    -0.0041     0.0020 C.ar    
   3 C3            -1.1673    -0.7112    -0.0014 C.ar    
   4 C4            -2.3879    -0.0336     0.0027 C.ar    
   5 C5            -2.4133     1.3745     0.0331 C.ar    
   6 C6            -1.2257     2.0780     0.0307 C.ar    
   7 C7            -3.6649    -0.7560    -0.0101 C.2     
   8 C8            -4.7969    -0.0529    -0.2696 C.2     
   9 C9            -4.7107     1.4171    -0.5879 C.3     
  10 O10           -3.6071     2.0141     0.0921 O.3     
  11 N11            1.1808     2.0968     0.0020 N.pl3   
  12 C12            2.4566     1.3767    -0.0140 C.3     
  13 C13           -6.0551    -0.6996    -0.2417 C.2     
  14 O14           -6.1233    -1.8871     0.0151 O.2     
  15 O15           -7.1797     0.0006    -0.4999 O.3     
  16 H16            0.9464    -0.5282    -0.0016 H       
  17 H17           -1.1473    -1.7910    -0.0076 H       
  18 H18           -1.2350     3.1580     0.0372 H       
  19 H19           -3.7032    -1.8182     0.1813 H       
  20 H20           -4.5825     1.5452    -1.6627 H       
  21 H21           -5.6330     1.9071    -0.2756 H       
  22 H22            1.1714     3.0667     0.0073 H       
  23 H23            2.5289     0.7459     0.8720 H       
  24 H24            2.5119     0.7554    -0.9079 H       
  25 H25            3.2781     2.0931    -0.0180 H       
  26 H26           -7.9895    -0.5262    -0.4574 H       
@<TRIPOS>BOND
   1    1    2 ar
   2    1   11 1
   3    1    6 ar
   4    2    3 ar
   5    2   16 1
   6    3    4 ar
   7    3   17 1
   8    4    5 ar
   9    4    7 1
  10    5    6 ar
  11    5   10 1
  12    6   18 1
  13    7    8 2
  14    7   19 1
  15    8    9 1
  16    8   13 1
  17    9   10 1
  18    9   20 1
  19    9   21 1
  20   11   12 1
  21   11   22 1
  22   12   23 1
  23   12   24 1
  24   12   25 1
  25   13   14 2
  26   13   15 1
  27   15   26 1

#	End of record

