#	Name: ASD10160452
#	Creating user name:	WinNT
#	Creation time:	15. 06. 2019 21:26

#	Modifying user name:	WinNT
#	Modification time:	15. 06. 2019 21:26

#	Program:	/corina/corina34_cracker 3.40 0067  02.08.2006

@<TRIPOS>MOLECULE
ASD10160452
  36   37    0    0    0
SMALL
NO_CHARGES


@<TRIPOS>ATOM
   1 C1             2.2956    -2.4937    -4.8889 C.2     
   2 C2             1.7064    -2.9253    -3.6063 C.ar    
   3 C3             2.4573    -2.8504    -2.4299 C.ar    
   4 C4             1.9034    -3.2539    -1.2347 C.ar    
   5 C5             0.5984    -3.7352    -1.1985 C.ar    
   6 C6            -0.1507    -3.8107    -2.3666 C.ar    
   7 C7             0.3946    -3.4042    -3.5643 C.ar    
   8 O8             3.4357    -2.0723    -4.9229 O.2     
   9 N9             1.5719    -2.5717    -6.0232 N.am    
  10 O10            0.0558    -4.1322    -0.0197 O.3     
  11 C11           -2.3131    -3.9131     0.1077 C.ar    
  12 C12           -1.1807    -4.6971    -0.0442 C.ar    
  13 C13           -1.3247    -6.0703    -0.2227 C.ar    
  14 C14           -2.6031    -6.6021    -0.2415 C.ar    
  15 C15           -3.6918    -5.7532    -0.0826 C.ar    
  16 N16           -3.5167    -4.4536     0.0847 N.ar    
  17 O17           -4.9496    -6.2643    -0.0999 O.3     
  18 C18           -6.0273    -5.3411     0.0684 C.3     
  19 C19           -6.4704    -4.8194    -1.2999 C.3     
  20 C20           -7.2015    -6.0467     0.7499 C.3     
  21 Cl21          -2.8427    -8.3074    -0.4612 Cl      
  22 Cl22           2.8348    -3.1622     0.2274 Cl      
  23 H23            3.4704    -2.4772    -2.4578 H       
  24 H24           -1.1633    -4.1849    -2.3345 H       
  25 H25           -0.1900    -3.4592    -4.4708 H       
  26 H26            0.6638    -2.9116    -5.9966 H       
  27 H27            1.9592    -2.2881    -6.8661 H       
  28 H28           -2.2093    -2.8477     0.2511 H       
  29 H29           -0.4598    -6.7056    -0.3440 H       
  30 H30           -5.6972    -4.5060     0.6862 H       
  31 H31           -6.8006    -5.6545    -1.9177 H       
  32 H32           -7.2925    -4.1152    -1.1715 H       
  33 H33           -5.6339    -4.3167    -1.7854 H       
  34 H34           -6.8858    -6.4184     1.7247 H       
  35 H35           -8.0236    -5.3426     0.8783 H       
  36 H36           -7.5316    -6.8818     0.1321 H       
@<TRIPOS>BOND
   1    1    2 1
   2    1    8 2
   3    1    9 am
   4    2    3 ar
   5    2    7 ar
   6    3    4 ar
   7    3   23 1
   8    4    5 ar
   9    4   22 1
  10    5    6 ar
  11    5   10 1
  12    6    7 ar
  13    6   24 1
  14    7   25 1
  15    9   26 1
  16    9   27 1
  17   10   12 1
  18   11   12 ar
  19   11   16 ar
  20   11   28 1
  21   12   13 ar
  22   13   14 ar
  23   13   29 1
  24   14   15 ar
  25   14   21 1
  26   15   16 ar
  27   15   17 1
  28   17   18 1
  29   18   19 1
  30   18   20 1
  31   18   30 1
  32   19   31 1
  33   19   32 1
  34   19   33 1
  35   20   34 1
  36   20   35 1
  37   20   36 1

#	End of record

