#	Name: ASD14290005
#	Creating user name:	WinNT
#	Creation time:	15. 06. 2019 21:31

#	Modifying user name:	WinNT
#	Modification time:	15. 06. 2019 21:31

#	Program:	/corina/corina34_cracker 3.40 0067  02.08.2006

@<TRIPOS>MOLECULE
ASD14290005
  52   53    0    0    0
SMALL
NO_CHARGES


@<TRIPOS>ATOM
   1 O1            -2.8541     0.6815    -1.2137 O.3     
   2 C2            -2.2047    -0.4919    -1.1583 C.2     
   3 O3            -2.3347    -1.2970    -2.0498 O.2     
   4 C4            -1.3135    -0.8052     0.0159 C.3     
   5 C5            -1.0798    -2.3154     0.0902 C.3     
   6 C6            -2.3797    -3.0181     0.4288 C.2     
   7 C7            -3.3487    -3.2345    -0.7197 C.3     
   8 O8            -2.6288    -3.9420    -1.7670 O.3     
   9 C9            -1.3776    -3.5565    -2.0494 C.2     
  10 C10           -0.6054    -2.8230    -1.2472 C.2     
  11 C11           -2.6519    -3.4174     1.6464 C.2     
  12 C12           -1.6599    -3.1819     2.7561 C.3     
  13 O13           -4.4586    -4.0187    -0.2779 O.3     
  14 C14           -5.4830    -4.1817    -1.2608 C.3     
  15 O15           -5.0079    -5.0301    -2.3081 O.3     
  16 C16           -5.9501    -5.2396    -3.3619 C.3     
  17 C17           -5.3257    -6.1348    -4.4341 C.3     
  18 C18           -7.2024    -5.9160    -2.7979 C.3     
  19 C19           -7.7873    -5.0423    -1.6840 C.3     
  20 C20           -6.7165    -4.8156    -0.6124 C.3     
  21 O21           -6.3568    -6.0674    -0.0244 O.3     
  22 C22            0.7092    -2.5088    -1.6677 C.2     
  23 O23            1.1378    -2.9604    -2.7130 O.2     
  24 O24            1.4870    -1.7085    -0.9093 O.3     
  25 C25            2.7738    -1.3708    -1.4310 C.3     
  26 O26           -8.1692    -6.0743    -3.8382 O.3     
  27 O27           -8.1942    -3.7846    -2.2268 O.3     
  28 O28           -4.2251    -5.4546    -5.0408 O.3     
  29 H29           -0.3334    -2.5350     0.8535 H       
  30 H30           -3.4142     0.8373    -1.9865 H       
  31 H31           -0.3580    -0.2953    -0.1070 H       
  32 H32           -1.7909    -0.4658     0.9351 H       
  33 H33           -3.6991    -2.2731    -1.0952 H       
  34 H34           -0.9628    -3.8633    -2.9982 H       
  35 H35           -3.5873    -3.9153     1.8550 H       
  36 H36           -2.0578    -3.5795     3.6897 H       
  37 H37           -0.7222    -3.6840     2.5178 H       
  38 H38           -1.4820    -2.1119     2.8635 H       
  39 H39           -5.7488    -3.2086    -1.6737 H       
  40 H40           -6.2220    -4.2804    -3.8024 H       
  41 H41           -4.9736    -7.0591    -3.9758 H       
  42 H42           -6.0724    -6.3673    -5.1934 H       
  43 H43           -6.9378    -6.8931    -2.3935 H       
  44 H44           -8.6468    -5.5445    -1.2400 H       
  45 H45           -7.1065    -4.1494     0.1571 H       
  46 H46           -5.6814    -5.9988     0.6642 H       
  47 H47            3.3532    -2.2809    -1.5860 H       
  48 H48            2.6553    -0.8494    -2.3809 H       
  49 H49            3.2942    -0.7246    -0.7242 H       
  50 H50           -8.9901    -6.4972    -3.5512 H       
  51 H51           -8.5749    -3.1797    -1.5754 H       
  52 H52           -3.7804    -5.9643    -5.7318 H       
@<TRIPOS>BOND
   1    1    2 1
   2    1   30 1
   3    2    3 2
   4    2    4 1
   5    4    5 1
   6    4   31 1
   7    4   32 1
   8    5    6 1
   9    5   10 1
  10    5   29 1
  11    6    7 1
  12    6   11 2
  13    7    8 1
  14    7   13 1
  15    7   33 1
  16    8    9 1
  17    9   10 2
  18    9   34 1
  19   10   22 1
  20   11   12 1
  21   11   35 1
  22   12   36 1
  23   12   37 1
  24   12   38 1
  25   13   14 1
  26   14   15 1
  27   14   20 1
  28   14   39 1
  29   15   16 1
  30   16   17 1
  31   16   18 1
  32   16   40 1
  33   17   28 1
  34   17   41 1
  35   17   42 1
  36   18   19 1
  37   18   26 1
  38   18   43 1
  39   19   20 1
  40   19   27 1
  41   19   44 1
  42   20   21 1
  43   20   45 1
  44   21   46 1
  45   22   23 2
  46   22   24 1
  47   24   25 1
  48   25   47 1
  49   25   48 1
  50   25   49 1
  51   26   50 1
  52   27   51 1
  53   28   52 1

#	End of record

