#	Name: ASD10160335
#	Creating user name:	WinNT
#	Creation time:	15. 06. 2019 21:25

#	Modifying user name:	WinNT
#	Modification time:	15. 06. 2019 21:25

#	Program:	/corina/corina34_cracker 3.40 0067  02.08.2006

@<TRIPOS>MOLECULE
ASD10160335
  22   22    0    0    0
SMALL
NO_CHARGES


@<TRIPOS>ATOM
   1 C1            -0.0184     1.5028     0.0103 C.2     
   2 C2             0.0021    -0.0041     0.0020 C.3     
   3 C3            -0.0048    -0.5063    -1.4432 C.3     
   4 O4             1.0231     2.1231     0.0037 O.2     
   5 C5             1.2649    -0.5009     0.7086 C.3     
   6 C6            -1.3052     2.2226     0.0203 C.ar    
   7 C7            -1.3182     3.6195     0.0280 C.ar    
   8 C8            -2.5380     4.2808     0.0374 C.ar    
   9 C9            -3.6994     3.5254     0.0388 C.ar    
  10 C10           -3.6116     2.1411     0.0308 C.ar    
  11 N11           -2.4444     1.5376     0.0165 N.ar    
  12 Cl12           0.1692     4.5145     0.0264 Cl      
  13 H13           -0.8780    -0.3822     0.5223 H       
  14 H14            0.8752    -0.1281    -1.9634 H       
  15 H15            0.0100    -1.5962    -1.4492 H       
  16 H16           -0.9045    -0.1523    -1.9466 H       
  17 H17            1.2698    -0.1431     1.7382 H       
  18 H18            1.2797    -1.5908     0.7026 H       
  19 H19            2.1450    -0.1227     0.1883 H       
  20 H20           -2.5811     5.3600     0.0438 H       
  21 H21           -4.6645     4.0100     0.0463 H       
  22 H22           -4.5159     1.5506     0.0319 H       
@<TRIPOS>BOND
   1    1    2 1
   2    1    4 2
   3    1    6 1
   4    2    3 1
   5    2    5 1
   6    2   13 1
   7    3   14 1
   8    3   15 1
   9    3   16 1
  10    5   17 1
  11    5   18 1
  12    5   19 1
  13    6    7 ar
  14    6   11 ar
  15    7    8 ar
  16    7   12 1
  17    8    9 ar
  18    8   20 1
  19    9   10 ar
  20    9   21 1
  21   10   11 ar
  22   10   22 1

#	End of record

