#	Name: ASD10160387
#	Creating user name:	WinNT
#	Creation time:	15. 06. 2019 21:25

#	Modifying user name:	WinNT
#	Modification time:	15. 06. 2019 21:25

#	Program:	/corina/corina34_cracker 3.40 0067  02.08.2006

@<TRIPOS>MOLECULE
ASD10160387
  50   52    0    0    0
SMALL
NO_CHARGES


@<TRIPOS>ATOM
   1 C1            -0.0168     1.3889     0.0097 C.ar    
   2 C2             0.0021    -0.0041     0.0020 C.ar    
   3 C3             1.2158    -0.6614    -0.0131 C.ar    
   4 C4             2.3884     0.1057    -0.0201 C.ar    
   5 C5             2.2879     1.4955    -0.0117 C.ar    
   6 N6             1.1101     2.0839     0.0027 N.ar    
   7 O7             5.0836     0.0406    -0.0456 O.3     
   8 B8             3.7953    -0.5908    -0.0368 Du      
   9 O9             4.0744    -1.9980    -0.0460 O.3     
  10 C10            5.2090    -2.1512     0.8327 C.3     
  11 C11            5.8932    -0.7690     0.8329 C.3     
  12 C12            7.3198    -0.8802     0.2914 C.3     
  13 C13            5.9020    -0.1787     2.2445 C.3     
  14 C14            4.7448    -2.5165     2.2440 C.3     
  15 C15            6.1626    -3.2180     0.2910 C.3     
  16 O16           -1.2044     2.0411     0.0188 O.3     
  17 N17           -2.3616     5.9843     0.7816 N.3     
  18 C18           -2.3744     5.5524    -0.6219 C.3     
  19 C19           -2.3967     4.0236    -0.6864 C.3     
  20 C20           -1.1600     3.4694     0.0264 C.3     
  21 C21           -1.1453     3.9733     1.4722 C.3     
  22 C22           -1.1592     5.5036     1.4742 C.3     
  23 C23           -2.4797     7.4449     0.8841 C.3     
  24 Cl24          -1.4833    -0.9026     0.0119 Cl      
  25 H25            1.2606    -1.7405    -0.0189 H       
  26 H26            3.1854     2.0962    -0.0170 H       
  27 H27            7.7688     0.1119     0.2438 H       
  28 H28            7.9106    -1.5151     0.9518 H       
  29 H29            7.2965    -1.3168    -0.7070 H       
  30 H30            4.8806    -0.1215     2.6207 H       
  31 H31            6.4958    -0.8151     2.9007 H       
  32 H32            6.3358     0.8208     2.2176 H       
  33 H33            4.2130    -3.4676     2.2168 H       
  34 H34            5.6107    -2.6031     2.9003 H       
  35 H35            4.0799    -1.7391     2.6204 H       
  36 H36            6.4957    -2.9344    -0.7073 H       
  37 H37            7.0255    -3.3031     0.9515 H       
  38 H38            5.6459    -4.1766     0.2430 H       
  39 H39           -3.2609     5.9498    -1.1161 H       
  40 H40           -1.4814     5.9242    -1.1243 H       
  41 H41           -3.2964     3.6518    -0.1962 H       
  42 H42           -2.3903     3.7032    -1.7282 H       
  43 H43           -0.2607     3.8086    -0.4877 H       
  44 H44           -2.0253     3.6007     1.9964 H       
  45 H45           -0.2449     3.6169     1.9726 H       
  46 H46           -0.2719     5.8755     0.9619 H       
  47 H47           -1.1633     5.8654     2.5023 H       
  48 H48           -3.4159     7.7667     0.4279 H       
  49 H49           -2.4676     7.7376     1.9340 H       
  50 H50           -1.6431     7.9143     0.3664 H       
@<TRIPOS>BOND
   1    1    2 ar
   2    1    6 ar
   3    1   16 1
   4    2    3 ar
   5    2   24 1
   6    3    4 ar
   7    3   25 1
   8    4    5 ar
   9    4    8 1
  10    5    6 ar
  11    5   26 1
  12    7    8 1
  13    7   11 1
  14    8    9 1
  15    9   10 1
  16   10   11 1
  17   10   14 1
  18   10   15 1
  19   11   12 1
  20   11   13 1
  21   12   27 1
  22   12   28 1
  23   12   29 1
  24   13   30 1
  25   13   31 1
  26   13   32 1
  27   14   33 1
  28   14   34 1
  29   14   35 1
  30   15   36 1
  31   15   37 1
  32   15   38 1
  33   16   20 1
  34   17   18 1
  35   17   22 1
  36   17   23 1
  37   18   19 1
  38   18   39 1
  39   18   40 1
  40   19   20 1
  41   19   41 1
  42   19   42 1
  43   20   21 1
  44   20   43 1
  45   21   22 1
  46   21   44 1
  47   21   45 1
  48   22   46 1
  49   22   47 1
  50   23   48 1
  51   23   49 1
  52   23   50 1

#	End of record

