clometocillin
  CDK     0628171802

 45 47  0  0  0  0  0  0  0  0999 V2000
   -0.8939    0.5526   -0.8152 N   0  0  0  0  0  0  0  0  0  0  0  0
   -0.9498    1.7696   -0.2073 C   0  0  0  0  0  0  0  0  0  0  0  0
   -1.9380   -0.4144   -0.7476 C   0  0  1  0  0  0  0  0  0  0  0  0
    0.2329    2.6583   -0.2018 C   0  0  1  0  0  0  0  0  0  0  0  0
   -1.9914    2.1404    0.3864 O   0  0  0  0  0  0  0  0  0  0  0  0
   -3.1822   -0.1908   -1.6666 C   0  0  2  0  0  0  0  0  0  0  0  0
   -1.7098   -1.6085   -1.5547 C   0  0  0  0  0  0  0  0  0  0  0  0
    1.3135    1.9315    0.4291 O   0  0  0  0  0  0  0  0  0  0  0  0
    0.5550    3.1122   -1.5887 C   0  0  0  0  0  0  0  0  0  0  0  0
   -2.7725   -1.3709   -2.3169 N   0  0  0  0  0  0  0  0  0  0  0  0
   -3.2074    0.8489   -3.1630 S   0  0  0  0  0  0  0  0  0  0  0  0
   -0.8038   -2.4708   -1.5763 O   0  0  0  0  0  0  0  0  0  0  0  0
    2.4396    2.7239    0.8524 C   0  0  0  0  0  0  0  0  0  0  0  0
    1.3748    2.3384   -2.4444 C   0  0  0  0  0  0  0  0  0  0  0  0
    0.0549    4.3443   -2.0694 C   0  0  0  0  0  0  0  0  0  0  0  0
   -3.2462   -1.8298   -3.5732 C   0  0  2  0  0  0  0  0  0  0  0  0
   -3.2618   -0.4986   -4.4228 C   0  0  1  0  0  0  0  0  0  0  0  0
    1.7182    2.7919   -3.7344 C   0  0  0  0  0  0  0  0  0  0  0  0
    0.3795    4.7970   -3.3592 C   0  0  0  0  0  0  0  0  0  0  0  0
   -4.5236   -2.5565   -3.3636 C   0  0  0  0  0  0  0  0  0  0  0  0
    2.7404    1.8190   -4.6774 Cl  0  0  0  0  0  0  0  0  0  0  0  0
    1.2154    4.0315   -4.1967 C   0  0  0  0  0  0  0  0  0  0  0  0
   -4.6076   -3.8801   -3.6309 O   0  0  0  0  0  0  0  0  0  0  0  0
   -5.5419   -1.9991   -2.8953 O   0  0  0  0  0  0  0  0  0  0  0  0
    1.5876    4.6461   -5.7341 Cl  0  0  0  0  0  0  0  0  0  0  0  0
   -4.1527   -0.3023   -1.1775 H   0  0  0  0  0  0  0  0  0  0  0  0
   -4.4996   -0.3041   -5.3515 C   0  0  0  0  0  0  0  0  0  0  0  0
   -1.9608   -0.3770   -5.2747 C   0  0  0  0  0  0  0  0  0  0  0  0
   -0.0826    0.3160   -1.2915 H   0  0  0  0  0  0  0  0  0  0  0  0
   -2.1986   -0.6908    0.2773 H   0  0  0  0  0  0  0  0  0  0  0  0
   -0.0014    3.5292    0.4242 H   0  0  0  0  0  0  0  0  0  0  0  0
    2.1498    3.3948    1.6640 H   0  0  0  0  0  0  0  0  0  0  0  0
    3.2148    2.0505    1.2186 H   0  0  0  0  0  0  0  0  0  0  0  0
    2.8581    3.3081    0.0301 H   0  0  0  0  0  0  0  0  0  0  0  0
    1.7364    1.4369   -2.1208 H   0  0  0  0  0  0  0  0  0  0  0  0
   -0.5485    4.9227   -1.4785 H   0  0  0  0  0  0  0  0  0  0  0  0
   -2.5269   -2.5422   -3.9903 H   0  0  0  0  0  0  0  0  0  0  0  0
    0.0030    5.6939   -3.6781 H   0  0  0  0  0  0  0  0  0  0  0  0
   -5.4376   -4.3724   -3.4530 H   0  0  0  0  0  0  0  0  0  0  0  0
   -5.4211   -0.2338   -4.7749 H   0  0  0  0  0  0  0  0  0  0  0  0
   -4.5917   -1.1390   -6.0495 H   0  0  0  0  0  0  0  0  0  0  0  0
   -4.4102    0.6174   -5.9293 H   0  0  0  0  0  0  0  0  0  0  0  0
   -1.0734   -0.4639   -4.6442 H   0  0  0  0  0  0  0  0  0  0  0  0
   -1.9245   -1.1713   -6.0244 H   0  0  0  0  0  0  0  0  0  0  0  0
   -1.9166    0.5837   -5.7924 H   0  0  0  0  0  0  0  0  0  0  0  0
  1  2  1  0  0  0  0 
  2  4  1  0  0  0  0 
  2  5  2  0  0  0  0 
  3  1  1  0  0  0  0 
  6  3  1  0  0  0  0 
  3  7  1  0  0  0  0 
  4  8  1  0  0  0  0 
  4  9  1  0  0  0  0 
  6 10  1  0  0  0  0 
  6 11  1  0  0  0  0 
  6 26  1  0  0  0  0 
  7 10  1  0  0  0  0 
  7 12  2  0  0  0  0 
  8 13  1  0  0  0  0 
  9 14  2  0  0  0  0 
  9 15  1  0  0  0  0 
 16 10  1  0  0  0  0 
 11 17  1  0  0  0  0 
 14 18  1  0  0  0  0 
 15 19  2  0  0  0  0 
 16 17  1  0  0  0  0 
 16 20  1  0  0  0  0 
 18 21  1  0  0  0  0 
 18 22  2  0  0  0  0 
 19 22  1  0  0  0  0 
 20 23  1  0  0  0  0 
 20 24  2  0  0  0  0 
 22 25  1  0  0  0  0 
 17 27  1  0  0  0  0 
 17 28  1  0  0  0  0 
  1 29  1  0  0  0  0 
  3 30  1  0  0  0  0 
  4 31  1  0  0  0  0 
 13 32  1  0  0  0  0 
 13 33  1  0  0  0  0 
 13 34  1  0  0  0  0 
 14 35  1  0  0  0  0 
 15 36  1  0  0  0  0 
 16 37  1  0  0  0  0 
 19 38  1  0  0  0  0 
 23 39  1  0  0  0  0 
 27 40  1  0  0  0  0 
 27 41  1  0  0  0  0 
 27 42  1  0  0  0  0 
 28 43  1  0  0  0  0 
 28 44  1  0  0  0  0 
 28 45  1  0  0  0  0 
M  END
> <cdk:Title>
clometocillin

> <Conformer>
1

> <SuperDrugID>
SD000616

$$$$
