anileridine
  CDK     0628171801

 54 56  0  0  0  0  0  0  0  0999 V2000
   -2.0862    0.8163   -1.0776 C   0  0  0  0  0  0  0  0  0  0  0  0
   -1.5547   -0.1623   -0.2816 O   0  0  0  0  0  0  0  0  0  0  0  0
   -2.0000    2.0146   -0.7102 O   0  0  0  0  0  0  0  0  0  0  0  0
   -2.7822    0.4912   -2.3700 C   0  0  1  0  0  0  0  0  0  0  0  0
   -0.7764    0.0134    0.9125 C   0  0  1  0  0  0  0  0  0  0  0  0
   -1.9420    1.1766   -3.5196 C   0  0  2  0  0  0  0  0  0  0  0  0
   -2.8276   -1.0609   -2.6766 C   0  0  1  0  0  0  0  0  0  0  0  0
   -4.2185    0.9917   -2.2638 C   0  0  0  0  0  0  0  0  0  0  0  0
    0.6562    0.4765    0.5832 C   0  0  0  0  0  0  0  0  0  0  0  0
   -0.5830    0.4812   -3.7825 C   0  0  1  0  0  0  0  0  0  0  0  0
   -1.4726   -1.6987   -3.1139 C   0  0  1  0  0  0  0  0  0  0  0  0
   -5.0776    0.4803   -1.2510 C   0  0  0  0  0  0  0  0  0  0  0  0
   -4.7893    1.9494   -3.1500 C   0  0  0  0  0  0  0  0  0  0  0  0
   -0.7880   -0.9388   -4.2090 N   0  0  1  0  0  0  0  0  0  0  0  0
   -6.4299    0.8640   -1.1588 C   0  0  0  0  0  0  0  0  0  0  0  0
   -6.1440    2.3205   -3.0746 C   0  0  0  0  0  0  0  0  0  0  0  0
   -1.3905   -1.1793   -5.5690 C   0  0  2  0  0  0  0  0  0  0  0  0
   -6.9674    1.7753   -2.0802 C   0  0  0  0  0  0  0  0  0  0  0  0
   -0.7101   -0.4351   -6.7530 C   0  0  1  0  0  0  0  0  0  0  0  0
   -1.3527   -0.7480   -8.0577 C   0  0  0  0  0  0  0  0  0  0  0  0
   -2.6527   -0.2686   -8.3415 C   0  0  0  0  0  0  0  0  0  0  0  0
   -0.6903   -1.5270   -9.0330 C   0  0  0  0  0  0  0  0  0  0  0  0
   -3.2875   -0.5824   -9.5556 C   0  0  0  0  0  0  0  0  0  0  0  0
   -1.3250   -1.8431  -10.2500 C   0  0  0  0  0  0  0  0  0  0  0  0
   -2.6298   -1.3784  -10.5116 C   0  0  0  0  0  0  0  0  0  0  0  0
   -3.2588   -1.6927  -11.6621 N   0  0  0  0  0  0  0  0  0  0  0  0
   -1.2612    0.7277    1.5824 H   0  0  0  0  0  0  0  0  0  0  0  0
   -0.7225   -0.9486    1.4260 H   0  0  0  0  0  0  0  0  0  0  0  0
   -1.7633    2.2328   -3.2988 H   0  0  0  0  0  0  0  0  0  0  0  0
   -2.4927    1.1447   -4.4600 H   0  0  0  0  0  0  0  0  0  0  0  0
   -3.1907   -1.6157   -1.8082 H   0  0  0  0  0  0  0  0  0  0  0  0
   -3.5505   -1.2452   -3.4754 H   0  0  0  0  0  0  0  0  0  0  0  0
    1.2391    0.5749    1.4995 H   0  0  0  0  0  0  0  0  0  0  0  0
    1.1414   -0.2525   -0.0679 H   0  0  0  0  0  0  0  0  0  0  0  0
    0.6384    1.4413    0.0779 H   0  0  0  0  0  0  0  0  0  0  0  0
   -0.0141    1.0429   -4.5229 H   0  0  0  0  0  0  0  0  0  0  0  0
    0.0244    0.5061   -2.8726 H   0  0  0  0  0  0  0  0  0  0  0  0
   -0.7978   -1.7464   -2.2559 H   0  0  0  0  0  0  0  0  0  0  0  0
   -1.6433   -2.7360   -3.4174 H   0  0  0  0  0  0  0  0  0  0  0  0
   -4.7240   -0.1887   -0.5631 H   0  0  0  0  0  0  0  0  0  0  0  0
   -4.2382    2.4005   -3.8784 H   0  0  0  0  0  0  0  0  0  0  0  0
   -7.0229    0.4723   -0.4252 H   0  0  0  0  0  0  0  0  0  0  0  0
   -6.5296    2.9856   -3.7484 H   0  0  0  0  0  0  0  0  0  0  0  0
   -2.4536   -0.9268   -5.5638 H   0  0  0  0  0  0  0  0  0  0  0  0
   -1.3259   -2.2524   -5.7781 H   0  0  0  0  0  0  0  0  0  0  0  0
   -7.9529    2.0438   -2.0306 H   0  0  0  0  0  0  0  0  0  0  0  0
   -0.7816    0.6435   -6.6127 H   0  0  0  0  0  0  0  0  0  0  0  0
    0.3511   -0.6969   -6.7616 H   0  0  0  0  0  0  0  0  0  0  0  0
   -3.1448    0.3149   -7.6640 H   0  0  0  0  0  0  0  0  0  0  0  0
    0.2582   -1.8734   -8.8598 H   0  0  0  0  0  0  0  0  0  0  0  0
   -4.2309   -0.2326   -9.7374 H   0  0  0  0  0  0  0  0  0  0  0  0
   -0.8325   -2.4178  -10.9358 H   0  0  0  0  0  0  0  0  0  0  0  0
   -4.1630   -1.3762  -11.8240 H   0  0  0  0  0  0  0  0  0  0  0  0
   -2.8144   -2.2383  -12.3297 H   0  0  0  0  0  0  0  0  0  0  0  0
  1  2  1  0  0  0  0 
  1  3  2  0  0  0  0 
  1  4  1  0  0  0  0 
  2  5  1  0  0  0  0 
  4  6  1  0  0  0  0 
  4  7  1  0  0  0  0 
  4  8  1  0  0  0  0 
  5  9  1  0  0  0  0 
  6 10  1  0  0  0  0 
  7 11  1  0  0  0  0 
  8 12  2  0  0  0  0 
  8 13  1  0  0  0  0 
 10 14  1  0  0  0  0 
 11 14  1  0  0  0  0 
 12 15  1  0  0  0  0 
 13 16  2  0  0  0  0 
 14 17  1  0  0  0  0 
 15 18  2  0  0  0  0 
 16 18  1  0  0  0  0 
 17 19  1  0  0  0  0 
 19 20  1  0  0  0  0 
 20 21  2  0  0  0  0 
 20 22  1  0  0  0  0 
 21 23  1  0  0  0  0 
 22 24  2  0  0  0  0 
 23 25  2  0  0  0  0 
 24 25  1  0  0  0  0 
 25 26  1  0  0  0  0 
  5 27  1  0  0  0  0 
  5 28  1  0  0  0  0 
  6 29  1  0  0  0  0 
  6 30  1  0  0  0  0 
  7 31  1  0  0  0  0 
  7 32  1  0  0  0  0 
  9 33  1  0  0  0  0 
  9 34  1  0  0  0  0 
  9 35  1  0  0  0  0 
 10 36  1  0  0  0  0 
 10 37  1  0  0  0  0 
 11 38  1  0  0  0  0 
 11 39  1  0  0  0  0 
 12 40  1  0  0  0  0 
 13 41  1  0  0  0  0 
 15 42  1  0  0  0  0 
 16 43  1  0  0  0  0 
 17 44  1  0  0  0  0 
 17 45  1  0  0  0  0 
 18 46  1  0  0  0  0 
 19 47  1  0  0  0  0 
 19 48  1  0  0  0  0 
 21 49  1  0  0  0  0 
 22 50  1  0  0  0  0 
 23 51  1  0  0  0  0 
 24 52  1  0  0  0  0 
 26 53  1  0  0  0  0 
 26 54  1  0  0  0  0 
M  END
> <cdk:Title>
anileridine

> <Conformer>
1

> <SuperDrugID>
SD000182

$$$$
