dimetofrine
  CDK     0628171802

 33 33  0  0  0  0  0  0  0  0999 V2000
   -0.9995    1.9713   -1.4298 C   0  0  1  0  0  0  0  0  0  0  0  0
    0.3557    1.2296   -1.2915 C   0  0  1  0  0  0  0  0  0  0  0  0
   -0.7830    3.2471   -2.0364 O   0  0  0  0  0  0  0  0  0  0  0  0
   -1.9899    1.1637   -2.2010 C   0  0  0  0  0  0  0  0  0  0  0  0
    0.1854   -0.0650   -0.5911 N   0  0  1  0  0  0  0  0  0  0  0  0
   -2.8535    0.2647   -1.5332 C   0  0  0  0  0  0  0  0  0  0  0  0
   -2.0502    1.2251   -3.6135 C   0  0  0  0  0  0  0  0  0  0  0  0
    1.4274   -0.8382   -0.4112 C   0  0  0  0  0  0  0  0  0  0  0  0
   -3.7267   -0.5787   -2.2500 C   0  0  0  0  0  0  0  0  0  0  0  0
   -2.9320    0.4002   -4.3412 C   0  0  0  0  0  0  0  0  0  0  0  0
   -4.5018   -1.4871   -1.5785 O   0  0  0  0  0  0  0  0  0  0  0  0
   -3.7894   -0.4812   -3.6540 C   0  0  0  0  0  0  0  0  0  0  0  0
   -2.9466    0.4605   -5.7094 O   0  0  0  0  0  0  0  0  0  0  0  0
   -3.8499   -2.7663   -1.4485 C   0  0  0  0  0  0  0  0  0  0  0  0
   -4.6616   -1.2536   -4.3462 O   0  0  0  0  0  0  0  0  0  0  0  0
   -2.0061   -0.4559   -6.3022 C   0  0  0  0  0  0  0  0  0  0  0  0
   -1.3902    2.1799   -0.4291 H   0  0  0  0  0  0  0  0  0  0  0  0
    0.7765    1.0623   -2.2869 H   0  0  0  0  0  0  0  0  0  0  0  0
    1.0470    1.8623   -0.7257 H   0  0  0  0  0  0  0  0  0  0  0  0
   -0.1120    3.6931   -1.4766 H   0  0  0  0  0  0  0  0  0  0  0  0
   -0.1771    0.1435    0.3415 H   0  0  0  0  0  0  0  0  0  0  0  0
   -2.8398    0.2010   -0.5126 H   0  0  0  0  0  0  0  0  0  0  0  0
   -1.4436    1.8639   -4.1298 H   0  0  0  0  0  0  0  0  0  0  0  0
    1.1835   -1.7585    0.1187 H   0  0  0  0  0  0  0  0  0  0  0  0
    2.1538   -0.2770    0.1797 H   0  0  0  0  0  0  0  0  0  0  0  0
    1.8633   -1.1000   -1.3772 H   0  0  0  0  0  0  0  0  0  0  0  0
   -4.5247   -3.4384   -0.9210 H   0  0  0  0  0  0  0  0  0  0  0  0
   -3.6298   -3.2103   -2.4232 H   0  0  0  0  0  0  0  0  0  0  0  0
   -2.9267   -2.6895   -0.8679 H   0  0  0  0  0  0  0  0  0  0  0  0
   -5.4774   -0.7150   -4.4155 H   0  0  0  0  0  0  0  0  0  0  0  0
   -2.0662   -0.3499   -7.3841 H   0  0  0  0  0  0  0  0  0  0  0  0
   -0.9804   -0.2313   -5.9964 H   0  0  0  0  0  0  0  0  0  0  0  0
   -2.2418   -1.4939   -6.0516 H   0  0  0  0  0  0  0  0  0  0  0  0
  1  2  1  0  0  0  0 
  1  3  1  0  0  0  0 
  1  4  1  0  0  0  0 
  2  5  1  0  0  0  0 
  4  6  2  0  0  0  0 
  4  7  1  0  0  0  0 
  5  8  1  0  0  0  0 
  6  9  1  0  0  0  0 
  7 10  2  0  0  0  0 
  9 11  1  0  0  0  0 
  9 12  2  0  0  0  0 
 10 12  1  0  0  0  0 
 10 13  1  0  0  0  0 
 11 14  1  0  0  0  0 
 12 15  1  0  0  0  0 
 13 16  1  0  0  0  0 
  1 17  1  0  0  0  0 
  2 18  1  0  0  0  0 
  2 19  1  0  0  0  0 
  3 20  1  0  0  0  0 
  5 21  1  0  0  0  0 
  6 22  1  0  0  0  0 
  7 23  1  0  0  0  0 
  8 24  1  0  0  0  0 
  8 25  1  0  0  0  0 
  8 26  1  0  0  0  0 
 14 27  1  0  0  0  0 
 14 28  1  0  0  0  0 
 14 29  1  0  0  0  0 
 15 30  1  0  0  0  0 
 16 31  1  0  0  0  0 
 16 32  1  0  0  0  0 
 16 33  1  0  0  0  0 
M  END
> <cdk:Title>
dimetofrine

> <Conformer>
1

> <SuperDrugID>
SD000808

$$$$
