pyrantel
  CDK     0628171801

 28 29  0  0  0  0  0  0  0  0999 V2000
    4.0686    1.6571    0.1295 C   0  0  0  0  0  0  0  0  0  0  0  0
    3.2467    0.6411   -0.1969 C   0  0  0  0  0  0  0  0  0  0  0  0
    5.4090    1.6563   -0.1160 C   0  0  0  0  0  0  0  0  0  0  0  0
    1.8707    0.6565   -0.0384 C   0  0  0  0  0  0  0  0  0  0  0  0
    6.0509    2.7002   -0.7310 N   0  0  0  0  0  0  0  0  0  0  0  0
    6.0759    0.6262    0.2863 N   0  0  0  0  0  0  0  0  0  0  0  0
    0.9948   -0.4123   -0.2926 C   0  0  0  0  0  0  0  0  0  0  0  0
    0.8545    2.0089    0.4425 S   0  0  0  0  0  0  0  0  0  0  0  0
    5.3404    3.7201   -1.4765 C   0  0  0  0  0  0  0  0  0  0  0  0
    7.5003    2.8233   -0.6624 C   0  0  2  0  0  0  0  0  0  0  0  0
    7.4463    0.4314    0.1227 C   0  0  1  0  0  0  0  0  0  0  0  0
   -0.3751   -0.1359   -0.1247 C   0  0  0  0  0  0  0  0  0  0  0  0
   -0.6712    1.1684    0.2756 C   0  0  0  0  0  0  0  0  0  0  0  0
    8.1889    1.7792    0.2600 C   0  0  2  0  0  0  0  0  0  0  0  0
    3.6926    2.4762    0.5525 H   0  0  0  0  0  0  0  0  0  0  0  0
    3.6434   -0.1784   -0.5994 H   0  0  0  0  0  0  0  0  0  0  0  0
    1.3221   -1.3354   -0.5887 H   0  0  0  0  0  0  0  0  0  0  0  0
    5.9472    4.1231   -2.2919 H   0  0  0  0  0  0  0  0  0  0  0  0
    4.4296    3.3321   -1.9390 H   0  0  0  0  0  0  0  0  0  0  0  0
    5.0732    4.5413   -0.8084 H   0  0  0  0  0  0  0  0  0  0  0  0
    7.7699    3.8217   -0.3079 H   0  0  0  0  0  0  0  0  0  0  0  0
    7.9063    2.7067   -1.6717 H   0  0  0  0  0  0  0  0  0  0  0  0
    7.8003   -0.2739    0.8751 H   0  0  0  0  0  0  0  0  0  0  0  0
    7.6320    0.0051   -0.8678 H   0  0  0  0  0  0  0  0  0  0  0  0
   -1.1022   -0.8364   -0.2878 H   0  0  0  0  0  0  0  0  0  0  0  0
   -1.5988    1.5613    0.4401 H   0  0  0  0  0  0  0  0  0  0  0  0
    8.1314    2.1129    1.3009 H   0  0  0  0  0  0  0  0  0  0  0  0
    9.2427    1.6652   -0.0064 H   0  0  0  0  0  0  0  0  0  0  0  0
  1  2  2  0  0  0  0 
  1  3  1  0  0  0  0 
  2  4  1  0  0  0  0 
  3  5  1  0  0  0  0 
  3  6  2  0  0  0  0 
  4  7  2  0  0  0  0 
  4  8  1  0  0  0  0 
  5  9  1  0  0  0  0 
  5 10  1  0  0  0  0 
  6 11  1  0  0  0  0 
  7 12  1  0  0  0  0 
  8 13  1  0  0  0  0 
 10 14  1  0  0  0  0 
 11 14  1  0  0  0  0 
 12 13  2  0  0  0  0 
  1 15  1  0  0  0  0 
  2 16  1  0  0  0  0 
  7 17  1  0  0  0  0 
  9 18  1  0  0  0  0 
  9 19  1  0  0  0  0 
  9 20  1  0  0  0  0 
 10 21  1  0  0  0  0 
 10 22  1  0  0  0  0 
 11 23  1  0  0  0  0 
 11 24  1  0  0  0  0 
 12 25  1  0  0  0  0 
 13 26  1  0  0  0  0 
 14 27  1  0  0  0  0 
 14 28  1  0  0  0  0 
M  END
> <cdk:Title>
pyrantel

> <Conformer>
1

> <SuperDrugID>
SD002612

$$$$
