atracurium
  CDK     0628171801

139144  0  0  0  0  0  0  0  0999 V2000
   18.5778    2.0469   -6.5730 C   0  0  1  0  0  0  0  0  0  0  0  0
   17.5787    1.8183   -5.3691 C   0  0  1  0  0  0  0  0  0  0  0  0
   20.0232    1.9462   -6.2271 C   0  0  0  0  0  0  0  0  0  0  0  0
   17.8159    2.9014   -4.3378 C   0  0  0  0  0  0  0  0  0  0  0  0
   16.0797    1.6710   -5.7187 N   0  0  2  0  0  0  0  0  0  0  0  0
   20.6205    0.6846   -5.9958 C   0  0  0  0  0  0  0  0  0  0  0  0
   20.8200    3.1068   -6.1062 C   0  0  0  0  0  0  0  0  0  0  0  0
   16.9423    4.0205   -4.2390 C   0  0  0  0  0  0  0  0  0  0  0  0
   18.9108    2.8215   -3.4420 C   0  0  0  0  0  0  0  0  0  0  0  0
   15.3300    1.1167   -4.4944 C   0  0  2  0  0  0  0  0  0  0  0  0
   15.8663    0.7022   -6.8697 C   0  0  0  0  0  0  0  0  0  0  0  0
   15.5606    3.0296   -6.1465 C   0  0  1  0  0  0  0  0  0  0  0  0
   21.9788    0.5821   -5.6315 C   0  0  0  0  0  0  0  0  0  0  0  0
   22.1683    3.0112   -5.7211 C   0  0  0  0  0  0  0  0  0  0  0  0
   17.2072    5.0345   -3.2870 C   0  0  0  0  0  0  0  0  0  0  0  0
   15.7160    4.1400   -5.0720 C   0  0  2  0  0  0  0  0  0  0  0  0
   19.1898    3.8500   -2.5203 C   0  0  0  0  0  0  0  0  0  0  0  0
   13.7703    1.0286   -4.5155 C   0  0  2  0  0  0  0  0  0  0  0  0
   22.5307   -0.6503   -5.4068 O   0  0  0  0  0  0  0  0  0  0  0  0
   22.7482    1.7553   -5.4643 C   0  0  0  0  0  0  0  0  0  0  0  0
   18.3208    4.9580   -2.4302 C   0  0  0  0  0  0  0  0  0  0  0  0
   20.2884    3.7395   -1.7077 O   0  0  0  0  0  0  0  0  0  0  0  0
   13.2075    0.5089   -3.2546 C   0  0  0  0  0  0  0  0  0  0  0  0
   23.2219   -1.1785   -6.5526 C   0  0  0  0  0  0  0  0  0  0  0  0
   24.0636    1.6918   -5.0878 O   0  0  0  0  0  0  0  0  0  0  0  0
   18.5686    5.9838   -1.5548 O   0  0  0  0  0  0  0  0  0  0  0  0
   21.4186    4.5052   -2.1636 C   0  0  0  0  0  0  0  0  0  0  0  0
   12.5081   -0.6592   -3.2834 O   0  0  0  0  0  0  0  0  0  0  0  0
   13.3632    1.1454   -2.1854 O   0  0  0  0  0  0  0  0  0  0  0  0
   24.2415    1.6454   -3.6609 C   0  0  0  0  0  0  0  0  0  0  0  0
   18.1178    5.7312   -0.2128 C   0  0  0  0  0  0  0  0  0  0  0  0
   11.8390   -1.2921   -2.1862 C   0  0  1  0  0  0  0  0  0  0  0  0
   11.0901   -2.5573   -2.6740 C   0  0  1  0  0  0  0  0  0  0  0  0
   10.1257   -2.2746   -3.8609 C   0  0  2  0  0  0  0  0  0  0  0  0
    9.3614   -3.5399   -4.3406 C   0  0  1  0  0  0  0  0  0  0  0  0
    8.4164   -3.2519   -5.5323 C   0  0  1  0  0  0  0  0  0  0  0  0
    7.7019   -4.4385   -5.9188 O   0  0  0  0  0  0  0  0  0  0  0  0
    6.7867   -4.5247   -6.9346 C   0  0  0  0  0  0  0  0  0  0  0  0
    6.1962   -5.8273   -7.3045 C   0  0  1  0  0  0  0  0  0  0  0  0
    6.4653   -3.5082   -7.5934 O   0  0  0  0  0  0  0  0  0  0  0  0
    4.6294   -5.8464   -7.2700 C   0  0  2  0  0  0  0  0  0  0  0  0
    3.8717   -7.1533   -7.5695 N   0  0  2  0  0  0  0  0  0  0  0  0
    4.2075   -7.5676   -8.9917 C   0  0  0  0  0  0  0  0  0  0  0  0
    2.3501   -6.9187   -7.3886 C   0  0  1  0  0  0  0  0  0  0  0  0
    4.2930   -8.2837   -6.6507 C   0  0  1  0  0  0  0  0  0  0  0  0
    1.3755   -8.0069   -7.9992 C   0  0  2  0  0  0  0  0  0  0  0  0
    1.9649   -6.7179   -5.9390 C   0  0  0  0  0  0  0  0  0  0  0  0
    3.9997   -8.0299   -5.1491 C   0  0  1  0  0  0  0  0  0  0  0  0
   -0.0724   -7.6435   -8.0508 C   0  0  0  0  0  0  0  0  0  0  0  0
    2.7295   -7.3018   -4.8908 C   0  0  0  0  0  0  0  0  0  0  0  0
    0.8158   -5.9628   -5.5935 C   0  0  0  0  0  0  0  0  0  0  0  0
   -0.5424   -6.6830   -8.9784 C   0  0  0  0  0  0  0  0  0  0  0  0
   -1.0057   -8.2445   -7.1751 C   0  0  0  0  0  0  0  0  0  0  0  0
    2.2981   -7.1640   -3.5497 C   0  0  0  0  0  0  0  0  0  0  0  0
    0.3707   -5.8584   -4.2607 C   0  0  0  0  0  0  0  0  0  0  0  0
   -1.9018   -6.3060   -9.0122 C   0  0  0  0  0  0  0  0  0  0  0  0
   -2.3584   -7.8582   -7.1909 C   0  0  0  0  0  0  0  0  0  0  0  0
    1.1232   -6.4592   -3.2295 C   0  0  0  0  0  0  0  0  0  0  0  0
   -0.7712   -5.1488   -3.9898 O   0  0  0  0  0  0  0  0  0  0  0  0
   -2.3267   -5.3658   -9.9123 O   0  0  0  0  0  0  0  0  0  0  0  0
   -2.8088   -6.8735   -8.0895 C   0  0  0  0  0  0  0  0  0  0  0  0
    0.7014   -6.4159   -1.9264 O   0  0  0  0  0  0  0  0  0  0  0  0
   -1.9341   -5.9717   -3.7839 C   0  0  0  0  0  0  0  0  0  0  0  0
   -2.8435   -5.9365  -11.1277 C   0  0  0  0  0  0  0  0  0  0  0  0
   -4.1305   -6.5088   -8.0768 O   0  0  0  0  0  0  0  0  0  0  0  0
    1.0551   -5.2087   -1.2321 C   0  0  0  0  0  0  0  0  0  0  0  0
   -4.3934   -5.3486   -7.2663 C   0  0  0  0  0  0  0  0  0  0  0  0
   18.4186    1.3075   -7.3558 H   0  0  0  0  0  0  0  0  0  0  0  0
   18.3762    3.0201   -7.0252 H   0  0  0  0  0  0  0  0  0  0  0  0
   17.8847    0.8634   -4.9225 H   0  0  0  0  0  0  0  0  0  0  0  0
   20.0667   -0.1692   -6.0939 H   0  0  0  0  0  0  0  0  0  0  0  0
   20.4186    4.0326   -6.2799 H   0  0  0  0  0  0  0  0  0  0  0  0
   19.5307    2.0092   -3.4624 H   0  0  0  0  0  0  0  0  0  0  0  0
   15.5753    1.7051   -3.6072 H   0  0  0  0  0  0  0  0  0  0  0  0
   15.7015    0.1086   -4.2771 H   0  0  0  0  0  0  0  0  0  0  0  0
   14.8103    0.5379   -7.0849 H   0  0  0  0  0  0  0  0  0  0  0  0
   16.3178   -0.2709   -6.6607 H   0  0  0  0  0  0  0  0  0  0  0  0
   16.2862    1.0647   -7.8092 H   0  0  0  0  0  0  0  0  0  0  0  0
   16.0967    3.3724   -7.0363 H   0  0  0  0  0  0  0  0  0  0  0  0
   14.5105    2.9786   -6.4504 H   0  0  0  0  0  0  0  0  0  0  0  0
   22.7262    3.8610   -5.6160 H   0  0  0  0  0  0  0  0  0  0  0  0
   16.5830    5.8432   -3.2114 H   0  0  0  0  0  0  0  0  0  0  0  0
   15.7054    5.1132   -5.5722 H   0  0  0  0  0  0  0  0  0  0  0  0
   14.8516    4.1045   -4.4038 H   0  0  0  0  0  0  0  0  0  0  0  0
   13.4452    0.3762   -5.3252 H   0  0  0  0  0  0  0  0  0  0  0  0
   13.3243    2.0090   -4.6802 H   0  0  0  0  0  0  0  0  0  0  0  0
   23.6564   -2.1383   -6.2727 H   0  0  0  0  0  0  0  0  0  0  0  0
   22.5361   -1.3453   -7.3875 H   0  0  0  0  0  0  0  0  0  0  0  0
   24.0357   -0.5224   -6.8747 H   0  0  0  0  0  0  0  0  0  0  0  0
   22.2558    4.3055   -1.4944 H   0  0  0  0  0  0  0  0  0  0  0  0
   21.7161    4.2202   -3.1743 H   0  0  0  0  0  0  0  0  0  0  0  0
   21.2141    5.5775   -2.1382 H   0  0  0  0  0  0  0  0  0  0  0  0
   25.3124    1.6361   -3.4568 H   0  0  0  0  0  0  0  0  0  0  0  0
   23.8112    2.5218   -3.1703 H   0  0  0  0  0  0  0  0  0  0  0  0
   23.8057    0.7385   -3.2340 H   0  0  0  0  0  0  0  0  0  0  0  0
   18.3451    6.6098    0.3925 H   0  0  0  0  0  0  0  0  0  0  0  0
   17.0377    5.5659   -0.1800 H   0  0  0  0  0  0  0  0  0  0  0  0
   18.6354    4.8742    0.2262 H   0  0  0  0  0  0  0  0  0  0  0  0
   12.5755   -1.5742   -1.4276 H   0  0  0  0  0  0  0  0  0  0  0  0
   11.1264   -0.5910   -1.7408 H   0  0  0  0  0  0  0  0  0  0  0  0
   11.8304   -3.3039   -2.9755 H   0  0  0  0  0  0  0  0  0  0  0  0
   10.5213   -2.9674   -1.8346 H   0  0  0  0  0  0  0  0  0  0  0  0
   10.7015   -1.8759   -4.7016 H   0  0  0  0  0  0  0  0  0  0  0  0
    9.4023   -1.5125   -3.5553 H   0  0  0  0  0  0  0  0  0  0  0  0
   10.0805   -4.3045   -4.6492 H   0  0  0  0  0  0  0  0  0  0  0  0
    8.7680   -3.9394   -3.5139 H   0  0  0  0  0  0  0  0  0  0  0  0
    7.7007   -2.4723   -5.2565 H   0  0  0  0  0  0  0  0  0  0  0  0
    9.0086   -2.9038   -6.3843 H   0  0  0  0  0  0  0  0  0  0  0  0
    6.5590   -6.0367   -8.3110 H   0  0  0  0  0  0  0  0  0  0  0  0
    6.5986   -6.5894   -6.6368 H   0  0  0  0  0  0  0  0  0  0  0  0
    4.2892   -5.0767   -7.9733 H   0  0  0  0  0  0  0  0  0  0  0  0
    4.3492   -5.4743   -6.2815 H   0  0  0  0  0  0  0  0  0  0  0  0
    3.7936   -8.5421   -9.2545 H   0  0  0  0  0  0  0  0  0  0  0  0
    3.8336   -6.8414   -9.7176 H   0  0  0  0  0  0  0  0  0  0  0  0
    5.2807   -7.6757   -9.1499 H   0  0  0  0  0  0  0  0  0  0  0  0
    2.1131   -5.9903   -7.9238 H   0  0  0  0  0  0  0  0  0  0  0  0
    3.7673   -9.2038   -6.9240 H   0  0  0  0  0  0  0  0  0  0  0  0
    5.3552   -8.5210   -6.7614 H   0  0  0  0  0  0  0  0  0  0  0  0
    1.5025   -8.9388   -7.4437 H   0  0  0  0  0  0  0  0  0  0  0  0
    1.6415   -8.2263   -9.0306 H   0  0  0  0  0  0  0  0  0  0  0  0
    3.9831   -8.9953   -4.6345 H   0  0  0  0  0  0  0  0  0  0  0  0
    4.8180   -7.4445   -4.7219 H   0  0  0  0  0  0  0  0  0  0  0  0
    0.2739   -5.4923   -6.3209 H   0  0  0  0  0  0  0  0  0  0  0  0
    0.1066   -6.2518   -9.6396 H   0  0  0  0  0  0  0  0  0  0  0  0
   -0.7044   -8.9586   -6.5066 H   0  0  0  0  0  0  0  0  0  0  0  0
    2.8402   -7.5881   -2.7913 H   0  0  0  0  0  0  0  0  0  0  0  0
   -3.0164   -8.2877   -6.5368 H   0  0  0  0  0  0  0  0  0  0  0  0
   -2.7901   -5.3148   -3.6267 H   0  0  0  0  0  0  0  0  0  0  0  0
   -2.1420   -6.5984   -4.6527 H   0  0  0  0  0  0  0  0  0  0  0  0
   -1.8287   -6.6051   -2.9010 H   0  0  0  0  0  0  0  0  0  0  0  0
   -3.1843   -5.1207  -11.7657 H   0  0  0  0  0  0  0  0  0  0  0  0
   -2.0698   -6.4895  -11.6672 H   0  0  0  0  0  0  0  0  0  0  0  0
   -3.6967   -6.5943  -10.9378 H   0  0  0  0  0  0  0  0  0  0  0  0
    0.6867   -5.2883   -0.2086 H   0  0  0  0  0  0  0  0  0  0  0  0
    2.1392   -5.0743   -1.1944 H   0  0  0  0  0  0  0  0  0  0  0  0
    0.5900   -4.3337   -1.6934 H   0  0  0  0  0  0  0  0  0  0  0  0
   -5.4674   -5.1611   -7.2851 H   0  0  0  0  0  0  0  0  0  0  0  0
   -4.0961   -5.5040   -6.2262 H   0  0  0  0  0  0  0  0  0  0  0  0
   -3.8877   -4.4638   -7.6609 H   0  0  0  0  0  0  0  0  0  0  0  0
  1  2  1  0  0  0  0 
  1  3  1  0  0  0  0 
  2  4  1  0  0  0  0 
  2  5  1  0  0  0  0 
  3  6  2  0  0  0  0 
  3  7  1  0  0  0  0 
  4  8  2  0  0  0  0 
  4  9  1  0  0  0  0 
  5 10  1  0  0  0  0 
  5 11  1  0  0  0  0 
  5 12  1  0  0  0  0 
  6 13  1  0  0  0  0 
  7 14  2  0  0  0  0 
  8 15  1  0  0  0  0 
  8 16  1  0  0  0  0 
  9 17  2  0  0  0  0 
 10 18  1  0  0  0  0 
 12 16  1  0  0  0  0 
 13 19  1  0  0  0  0 
 13 20  2  0  0  0  0 
 14 20  1  0  0  0  0 
 15 21  2  0  0  0  0 
 17 21  1  0  0  0  0 
 17 22  1  0  0  0  0 
 18 23  1  0  0  0  0 
 19 24  1  0  0  0  0 
 20 25  1  0  0  0  0 
 21 26  1  0  0  0  0 
 22 27  1  0  0  0  0 
 23 28  1  0  0  0  0 
 23 29  2  0  0  0  0 
 25 30  1  0  0  0  0 
 26 31  1  0  0  0  0 
 28 32  1  0  0  0  0 
 32 33  1  0  0  0  0 
 33 34  1  0  0  0  0 
 34 35  1  0  0  0  0 
 35 36  1  0  0  0  0 
 36 37  1  0  0  0  0 
 37 38  1  0  0  0  0 
 38 39  1  0  0  0  0 
 38 40  2  0  0  0  0 
 39 41  1  0  0  0  0 
 41 42  1  0  0  0  0 
 42 43  1  0  0  0  0 
 42 44  1  0  0  0  0 
 42 45  1  0  0  0  0 
 44 46  1  0  0  0  0 
 44 47  1  0  0  0  0 
 45 48  1  0  0  0  0 
 46 49  1  0  0  0  0 
 47 50  2  0  0  0  0 
 47 51  1  0  0  0  0 
 48 50  1  0  0  0  0 
 49 52  2  0  0  0  0 
 49 53  1  0  0  0  0 
 50 54  1  0  0  0  0 
 51 55  2  0  0  0  0 
 52 56  1  0  0  0  0 
 53 57  2  0  0  0  0 
 54 58  2  0  0  0  0 
 55 58  1  0  0  0  0 
 55 59  1  0  0  0  0 
 56 60  1  0  0  0  0 
 56 61  2  0  0  0  0 
 57 61  1  0  0  0  0 
 58 62  1  0  0  0  0 
 59 63  1  0  0  0  0 
 60 64  1  0  0  0  0 
 61 65  1  0  0  0  0 
 62 66  1  0  0  0  0 
 65 67  1  0  0  0  0 
  1 68  1  0  0  0  0 
  1 69  1  0  0  0  0 
  2 70  1  0  0  0  0 
  6 71  1  0  0  0  0 
  7 72  1  0  0  0  0 
  9 73  1  0  0  0  0 
 10 74  1  0  0  0  0 
 10 75  1  0  0  0  0 
 11 76  1  0  0  0  0 
 11 77  1  0  0  0  0 
 11 78  1  0  0  0  0 
 12 79  1  0  0  0  0 
 12 80  1  0  0  0  0 
 14 81  1  0  0  0  0 
 15 82  1  0  0  0  0 
 16 83  1  0  0  0  0 
 16 84  1  0  0  0  0 
 18 85  1  0  0  0  0 
 18 86  1  0  0  0  0 
 24 87  1  0  0  0  0 
 24 88  1  0  0  0  0 
 24 89  1  0  0  0  0 
 27 90  1  0  0  0  0 
 27 91  1  0  0  0  0 
 27 92  1  0  0  0  0 
 30 93  1  0  0  0  0 
 30 94  1  0  0  0  0 
 30 95  1  0  0  0  0 
 31 96  1  0  0  0  0 
 31 97  1  0  0  0  0 
 31 98  1  0  0  0  0 
 32 99  1  0  0  0  0 
 32100  1  0  0  0  0 
 33101  1  0  0  0  0 
 33102  1  0  0  0  0 
 34103  1  0  0  0  0 
 34104  1  0  0  0  0 
 35105  1  0  0  0  0 
 35106  1  0  0  0  0 
 36107  1  0  0  0  0 
 36108  1  0  0  0  0 
 39109  1  0  0  0  0 
 39110  1  0  0  0  0 
 41111  1  0  0  0  0 
 41112  1  0  0  0  0 
 43113  1  0  0  0  0 
 43114  1  0  0  0  0 
 43115  1  0  0  0  0 
 44116  1  0  0  0  0 
 45117  1  0  0  0  0 
 45118  1  0  0  0  0 
 46119  1  0  0  0  0 
 46120  1  0  0  0  0 
 48121  1  0  0  0  0 
 48122  1  0  0  0  0 
 51123  1  0  0  0  0 
 52124  1  0  0  0  0 
 53125  1  0  0  0  0 
 54126  1  0  0  0  0 
 57127  1  0  0  0  0 
 63128  1  0  0  0  0 
 63129  1  0  0  0  0 
 63130  1  0  0  0  0 
 64131  1  0  0  0  0 
 64132  1  0  0  0  0 
 64133  1  0  0  0  0 
 66134  1  0  0  0  0 
 66135  1  0  0  0  0 
 66136  1  0  0  0  0 
 67137  1  0  0  0  0 
 67138  1  0  0  0  0 
 67139  1  0  0  0  0 
M  CHG  1   5   1
M  CHG  1  42   1
M  END
> <cdk:Title>
atracurium

> <Conformer>
1

> <SuperDrugID>
SD000215

$$$$
