rifapentine
  CDK     0628171801

127132  0  0  0  0  0  0  0  0999 V2000
    0.5835   -6.8158   -8.5688 C   0  0  0  0  0  0  0  0  0  0  0  0
    1.0527   -8.0898   -9.0096 C   0  0  0  0  0  0  0  0  0  0  0  0
    0.2498   -9.2447   -8.8880 C   0  0  0  0  0  0  0  0  0  0  0  0
   -1.0246   -9.0950   -8.3201 C   0  0  0  0  0  0  0  0  0  0  0  0
   -1.5071   -7.8662   -7.8757 C   0  0  0  0  0  0  0  0  0  0  0  0
   -0.6980   -6.6983   -7.9358 C   0  0  0  0  0  0  0  0  0  0  0  0
   -1.0986   -5.4331   -7.4274 C   0  0  0  0  0  0  0  0  0  0  0  0
   -0.3543   -4.2507   -7.6855 C   0  0  0  0  0  0  0  0  0  0  0  0
    0.8801   -4.3803   -8.3674 C   0  0  0  0  0  0  0  0  0  0  0  0
    1.3610   -5.6486   -8.7571 C   0  0  0  0  0  0  0  0  0  0  0  0
   -0.8768   -3.0243   -7.2682 C   0  0  0  0  0  0  0  0  0  0  0  0
   -2.1937   -5.3261   -6.6312 O   0  0  0  0  0  0  0  0  0  0  0  0
    1.6602   -3.3332   -8.7310 N   0  0  0  0  0  0  0  0  0  0  0  0
    2.5782   -5.7086   -9.3642 O   0  0  0  0  0  0  0  0  0  0  0  0
    2.2794   -8.2635   -9.5703 O   0  0  0  0  0  0  0  0  0  0  0  0
    0.7133  -10.5693   -9.3760 C   0  0  0  0  0  0  0  0  0  0  0  0
   -1.9040  -10.1144   -8.1710 O   0  0  0  0  0  0  0  0  0  0  0  0
   -3.1824   -9.4753   -8.0055 C   0  0  2  0  0  0  0  0  0  0  0  0
   -2.8402   -8.1247   -7.5421 C   0  0  0  0  0  0  0  0  0  0  0  0
   -3.7053   -7.3471   -7.0802 O   0  0  0  0  0  0  0  0  0  0  0  0
   -4.0011  -10.2999   -6.9820 C   0  0  0  0  0  0  0  0  0  0  0  0
   -3.8910   -9.2542   -9.2533 O   0  0  0  0  0  0  0  0  0  0  0  0
   -3.7402  -10.2101  -10.1764 C   0  0  0  0  0  0  0  0  0  0  0  0
   -2.8442  -10.0840  -11.1705 C   0  0  0  0  0  0  0  0  0  0  0  0
   -2.6067  -11.1107  -12.1783 C   0  0  1  0  0  0  0  0  0  0  0  0
   -2.9127  -10.6682  -13.6808 C   0  0  2  0  0  0  0  0  0  0  0  0
   -1.2211  -11.4772  -12.0021 O   0  0  0  0  0  0  0  0  0  0  0  0
   -0.8449  -12.7974  -12.4272 C   0  0  0  0  0  0  0  0  0  0  0  0
   -1.6927   -9.9475  -14.5433 C   0  0  2  0  0  0  0  0  0  0  0  0
   -1.0930   -8.5339  -14.1815 C   0  0  1  0  0  0  0  0  0  0  0  0
   -2.1700   -9.9516  -15.9438 O   0  0  0  0  0  0  0  0  0  0  0  0
   -1.8701  -10.6464  -17.1310 C   0  0  0  0  0  0  0  0  0  0  0  0
   -0.8216  -11.6717  -17.2657 C   0  0  0  0  0  0  0  0  0  0  0  0
   -2.5523  -10.3626  -18.1410 O   0  0  0  0  0  0  0  0  0  0  0  0
    0.1808   -8.2448  -15.0850 C   0  0  1  0  0  0  0  0  0  0  0  0
   -2.1727   -7.4193  -14.2442 C   0  0  0  0  0  0  0  0  0  0  0  0
    0.7171   -6.7718  -15.2626 C   0  0  2  0  0  0  0  0  0  0  0  0
    1.2378   -9.0981  -14.6362 O   0  0  0  0  0  0  0  0  0  0  0  0
    1.7788   -6.7033  -16.4094 C   0  0  0  0  0  0  0  0  0  0  0  0
    1.2158   -6.0814  -13.9345 C   0  0  2  0  0  0  0  0  0  0  0  0
    1.2442   -4.5023  -13.9522 C   0  0  2  0  0  0  0  0  0  0  0  0
    2.5200   -6.5755  -13.6081 O   0  0  0  0  0  0  0  0  0  0  0  0
    1.9186   -3.9226  -12.7798 C   0  0  0  0  0  0  0  0  0  0  0  0
   -0.1826   -3.8764  -14.0864 C   0  0  0  0  0  0  0  0  0  0  0  0
    2.3106   -2.6326  -12.7435 C   0  0  0  0  0  0  0  0  0  0  0  0
    2.9207   -1.9845  -11.7135 C   0  0  0  0  0  0  0  0  0  0  0  0
    2.5622   -1.9299  -10.4073 C   0  0  0  0  0  0  0  0  0  0  0  0
    3.3864   -1.1207   -9.5075 C   0  0  0  0  0  0  0  0  0  0  0  0
    1.4787   -2.6294   -9.8823 C   0  0  0  0  0  0  0  0  0  0  0  0
    0.3881   -2.6859  -10.5027 O   0  0  0  0  0  0  0  0  0  0  0  0
   -4.3667  -10.0466  -13.7653 C   0  0  0  0  0  0  0  0  0  0  0  0
   -0.1651   -2.0130   -6.9110 N   0  0  0  0  0  0  0  0  0  0  0  0
   -0.4941   -0.8462   -6.4558 N   0  0  0  0  0  0  0  0  0  0  0  0
    0.5584    0.1199   -6.2760 C   0  0  1  0  0  0  0  0  0  0  0  0
    0.5866    0.6102   -4.8036 C   0  0  1  0  0  0  0  0  0  0  0  0
   -0.7565    1.1134   -4.3501 N   0  0  1  0  0  0  0  0  0  0  0  0
   -1.8208    0.0860   -4.5996 C   0  0  2  0  0  0  0  0  0  0  0  0
   -1.8228   -0.4188   -6.0646 C   0  0  1  0  0  0  0  0  0  0  0  0
   -0.7566    1.6633   -2.9422 C   0  0  2  0  0  0  0  0  0  0  0  0
   -2.1246    2.1833   -2.4278 C   0  0  2  0  0  0  0  0  0  0  0  0
   -1.8025    3.1059   -1.2400 C   0  0  1  0  0  0  0  0  0  0  0  0
   -0.4270    3.7184   -1.5670 C   0  0  2  0  0  0  0  0  0  0  0  0
    0.1349    2.9198   -2.7660 C   0  0  2  0  0  0  0  0  0  0  0  0
   -1.8643   -2.9502   -7.2269 H   0  0  0  0  0  0  0  0  0  0  0  0
   -2.1495   -6.1100   -6.0467 H   0  0  0  0  0  0  0  0  0  0  0  0
    2.4731   -3.1880   -8.2232 H   0  0  0  0  0  0  0  0  0  0  0  0
    3.2227   -5.5572   -8.6431 H   0  0  0  0  0  0  0  0  0  0  0  0
    2.2806   -7.6926  -10.3645 H   0  0  0  0  0  0  0  0  0  0  0  0
    0.9929  -10.4939  -10.4269 H   0  0  0  0  0  0  0  0  0  0  0  0
   -0.0508  -11.3452   -9.2947 H   0  0  0  0  0  0  0  0  0  0  0  0
    1.5802  -10.8929   -8.8026 H   0  0  0  0  0  0  0  0  0  0  0  0
   -4.1226  -11.3209   -7.3463 H   0  0  0  0  0  0  0  0  0  0  0  0
   -3.4812  -10.3326   -6.0212 H   0  0  0  0  0  0  0  0  0  0  0  0
   -4.9912   -9.8633   -6.8346 H   0  0  0  0  0  0  0  0  0  0  0  0
   -4.3091  -11.0198  -10.1060 H   0  0  0  0  0  0  0  0  0  0  0  0
   -2.2962   -9.2557  -11.2104 H   0  0  0  0  0  0  0  0  0  0  0  0
   -3.2431  -11.9774  -11.9477 H   0  0  0  0  0  0  0  0  0  0  0  0
   -3.1432  -11.6765  -14.1408 H   0  0  0  0  0  0  0  0  0  0  0  0
    0.2393  -12.8774  -12.3491 H   0  0  0  0  0  0  0  0  0  0  0  0
   -1.1307  -12.9849  -13.4640 H   0  0  0  0  0  0  0  0  0  0  0  0
   -1.2954  -13.5520  -11.7790 H   0  0  0  0  0  0  0  0  0  0  0  0
   -0.8630  -10.6515  -14.4737 H   0  0  0  0  0  0  0  0  0  0  0  0
   -0.7515   -8.5759  -13.1427 H   0  0  0  0  0  0  0  0  0  0  0  0
   -0.1381  -11.3937  -18.0704 H   0  0  0  0  0  0  0  0  0  0  0  0
   -0.2443  -11.7844  -16.3508 H   0  0  0  0  0  0  0  0  0  0  0  0
   -1.2820  -12.6313  -17.5090 H   0  0  0  0  0  0  0  0  0  0  0  0
   -0.0608   -8.5787  -16.0970 H   0  0  0  0  0  0  0  0  0  0  0  0
   -1.7489   -6.4452  -14.0206 H   0  0  0  0  0  0  0  0  0  0  0  0
   -2.6419   -7.3817  -15.2283 H   0  0  0  0  0  0  0  0  0  0  0  0
   -2.9330   -7.5817  -13.4880 H   0  0  0  0  0  0  0  0  0  0  0  0
   -0.1256   -6.2041  -15.6529 H   0  0  0  0  0  0  0  0  0  0  0  0
    1.9184   -9.0693  -15.3407 H   0  0  0  0  0  0  0  0  0  0  0  0
    2.0726   -5.6739  -16.6184 H   0  0  0  0  0  0  0  0  0  0  0  0
    2.6740   -7.2716  -16.1518 H   0  0  0  0  0  0  0  0  0  0  0  0
    1.3710   -7.1155  -17.3356 H   0  0  0  0  0  0  0  0  0  0  0  0
    0.5639   -6.3836  -13.1098 H   0  0  0  0  0  0  0  0  0  0  0  0
    1.8273   -4.1936  -14.8252 H   0  0  0  0  0  0  0  0  0  0  0  0
    2.4203   -7.5431  -13.4971 H   0  0  0  0  0  0  0  0  0  0  0  0
    2.0757   -4.5017  -11.9864 H   0  0  0  0  0  0  0  0  0  0  0  0
   -0.1637   -2.7920  -13.9654 H   0  0  0  0  0  0  0  0  0  0  0  0
   -0.8501   -4.2815  -13.3257 H   0  0  0  0  0  0  0  0  0  0  0  0
   -0.6118   -4.0668  -15.0696 H   0  0  0  0  0  0  0  0  0  0  0  0
    2.1529   -2.0798  -13.5557 H   0  0  0  0  0  0  0  0  0  0  0  0
    3.7264   -1.4650  -11.9856 H   0  0  0  0  0  0  0  0  0  0  0  0
    3.4581   -0.1008   -9.8892 H   0  0  0  0  0  0  0  0  0  0  0  0
    4.3928   -1.5418   -9.4439 H   0  0  0  0  0  0  0  0  0  0  0  0
    2.9808   -1.0555   -8.4969 H   0  0  0  0  0  0  0  0  0  0  0  0
   -5.1058  -10.7543  -13.3812 H   0  0  0  0  0  0  0  0  0  0  0  0
   -4.4605   -9.1378  -13.1783 H   0  0  0  0  0  0  0  0  0  0  0  0
   -4.6249   -9.8207  -14.8004 H   0  0  0  0  0  0  0  0  0  0  0  0
    1.5435   -0.2861   -6.5318 H   0  0  0  0  0  0  0  0  0  0  0  0
    0.3733    0.9724   -6.9390 H   0  0  0  0  0  0  0  0  0  0  0  0
    0.9207   -0.2106   -4.1598 H   0  0  0  0  0  0  0  0  0  0  0  0
    1.3303    1.4058   -4.7459 H   0  0  0  0  0  0  0  0  0  0  0  0
   -2.8098    0.5105   -4.4175 H   0  0  0  0  0  0  0  0  0  0  0  0
   -1.6859   -0.7653   -3.9238 H   0  0  0  0  0  0  0  0  0  0  0  0
   -2.1427    0.3904   -6.7272 H   0  0  0  0  0  0  0  0  0  0  0  0
   -2.5755   -1.2035   -6.1341 H   0  0  0  0  0  0  0  0  0  0  0  0
   -0.4099    0.8846   -2.2509 H   0  0  0  0  0  0  0  0  0  0  0  0
   -2.7734    1.3627   -2.1082 H   0  0  0  0  0  0  0  0  0  0  0  0
   -2.6317    2.7548   -3.2128 H   0  0  0  0  0  0  0  0  0  0  0  0
   -2.5702    3.8758   -1.1209 H   0  0  0  0  0  0  0  0  0  0  0  0
   -1.7452    2.5187   -0.3174 H   0  0  0  0  0  0  0  0  0  0  0  0
    0.2378    3.6398   -0.7015 H   0  0  0  0  0  0  0  0  0  0  0  0
   -0.5328    4.7752   -1.8297 H   0  0  0  0  0  0  0  0  0  0  0  0
    0.0864    3.5370   -3.6702 H   0  0  0  0  0  0  0  0  0  0  0  0
    1.1767    2.6387   -2.5870 H   0  0  0  0  0  0  0  0  0  0  0  0
  1  2  2  0  0  0  0 
  2  3  1  0  0  0  0 
  3  4  2  0  0  0  0 
  5  6  2  0  0  0  0 
  7  8  2  0  0  0  0 
  8  9  1  0  0  0  0 
  9 10  2  0  0  0  0 
  1  6  1  0  0  0  0 
  1 10  1  0  0  0  0 
  6  7  1  0  0  0  0 
  8 11  1  0  0  0  0 
  7 12  1  0  0  0  0 
  9 13  1  0  0  0  0 
 10 14  1  0  0  0  0 
  2 15  1  0  0  0  0 
  3 16  1  0  0  0  0 
  4 17  1  0  0  0  0 
  4  5  1  0  0  0  0 
  5 19  1  0  0  0  0 
 17 18  1  0  0  0  0 
 18 19  1  0  0  0  0 
 19 20  2  0  0  0  0 
 18 21  1  0  0  0  0 
 18 22  1  0  0  0  0 
 22 23  1  0  0  0  0 
 23 24  2  0  0  0  0 
 24 25  1  0  0  0  0 
 25 26  1  0  0  0  0 
 25 27  1  0  0  0  0 
 27 28  1  0  0  0  0 
 26 29  1  0  0  0  0 
 29 30  1  0  0  0  0 
 29 31  1  0  0  0  0 
 31 32  1  0  0  0  0 
 32 33  1  0  0  0  0 
 32 34  2  0  0  0  0 
 30 35  1  0  0  0  0 
 30 36  1  0  0  0  0 
 35 37  1  0  0  0  0 
 35 38  1  0  0  0  0 
 37 39  1  0  0  0  0 
 37 40  1  0  0  0  0 
 40 41  1  0  0  0  0 
 40 42  1  0  0  0  0 
 41 43  1  0  0  0  0 
 41 44  1  0  0  0  0 
 43 45  2  0  0  0  0 
 45 46  1  0  0  0  0 
 46 47  2  0  0  0  0 
 47 48  1  0  0  0  0 
 47 49  1  0  0  0  0 
 49 50  2  0  0  0  0 
 49 13  1  0  0  0  0 
 26 51  1  0  0  0  0 
 11 52  2  0  0  0  0 
 52 53  1  0  0  0  0 
 54 55  1  0  0  0  0 
 55 56  1  0  0  0  0 
 56 57  1  0  0  0  0 
 57 58  1  0  0  0  0 
 53 54  1  0  0  0  0 
 53 58  1  0  0  0  0 
 56 59  1  0  0  0  0 
 60 61  1  0  0  0  0 
 61 62  1  0  0  0  0 
 62 63  1  0  0  0  0 
 59 60  1  0  0  0  0 
 59 63  1  0  0  0  0 
 11 64  1  0  0  0  0 
 12 65  1  0  0  0  0 
 13 66  1  0  0  0  0 
 14 67  1  0  0  0  0 
 15 68  1  0  0  0  0 
 16 69  1  0  0  0  0 
 16 70  1  0  0  0  0 
 16 71  1  0  0  0  0 
 21 72  1  0  0  0  0 
 21 73  1  0  0  0  0 
 21 74  1  0  0  0  0 
 23 75  1  0  0  0  0 
 24 76  1  0  0  0  0 
 25 77  1  0  0  0  0 
 26 78  1  0  0  0  0 
 28 79  1  0  0  0  0 
 28 80  1  0  0  0  0 
 28 81  1  0  0  0  0 
 29 82  1  0  0  0  0 
 30 83  1  0  0  0  0 
 33 84  1  0  0  0  0 
 33 85  1  0  0  0  0 
 33 86  1  0  0  0  0 
 35 87  1  0  0  0  0 
 36 88  1  0  0  0  0 
 36 89  1  0  0  0  0 
 36 90  1  0  0  0  0 
 37 91  1  0  0  0  0 
 38 92  1  0  0  0  0 
 39 93  1  0  0  0  0 
 39 94  1  0  0  0  0 
 39 95  1  0  0  0  0 
 40 96  1  0  0  0  0 
 41 97  1  0  0  0  0 
 42 98  1  0  0  0  0 
 43 99  1  0  0  0  0 
 44100  1  0  0  0  0 
 44101  1  0  0  0  0 
 44102  1  0  0  0  0 
 45103  1  0  0  0  0 
 46104  1  0  0  0  0 
 48105  1  0  0  0  0 
 48106  1  0  0  0  0 
 48107  1  0  0  0  0 
 51108  1  0  0  0  0 
 51109  1  0  0  0  0 
 51110  1  0  0  0  0 
 54111  1  0  0  0  0 
 54112  1  0  0  0  0 
 55113  1  0  0  0  0 
 55114  1  0  0  0  0 
 57115  1  0  0  0  0 
 57116  1  0  0  0  0 
 58117  1  0  0  0  0 
 58118  1  0  0  0  0 
 59119  1  0  0  0  0 
 60120  1  0  0  0  0 
 60121  1  0  0  0  0 
 61122  1  0  0  0  0 
 61123  1  0  0  0  0 
 62124  1  0  0  0  0 
 62125  1  0  0  0  0 
 63126  1  0  0  0  0 
 63127  1  0  0  0  0 
M  END
> <cdk:Title>
rifapentine

> <Conformer>
1

> <SuperDrugID>
SD002139

$$$$
