ponatinib
  CDK     0628171802

 66 70  0  0  0  0  0  0  0  0999 V2000
   -1.8150   -1.1364   -1.3721 N   0  0  0  0  0  0  0  0  0  0  0  0
   -2.8889   -0.8781   -2.1489 C   0  0  0  0  0  0  0  0  0  0  0  0
   -3.9701   -1.7731   -2.1597 C   0  0  0  0  0  0  0  0  0  0  0  0
   -3.8801   -2.9154   -1.3383 C   0  0  0  0  0  0  0  0  0  0  0  0
   -2.7284   -3.1095   -0.5477 C   0  0  0  0  0  0  0  0  0  0  0  0
   -1.7228   -2.1950   -0.6012 N   0  0  0  0  0  0  0  0  0  0  0  0
   -2.7220    0.2685   -2.8317 N   0  0  0  0  0  0  0  0  0  0  0  0
   -1.5108    0.7353   -2.4781 C   0  0  0  0  0  0  0  0  0  0  0  0
   -0.9339   -0.1451   -1.5636 C   0  0  0  0  0  0  0  0  0  0  0  0
    0.2397   -0.0496   -1.0189 C   0  0  0  0  0  0  0  0  0  0  0  0
    1.3209   -0.0156   -0.5140 C   0  0  0  0  0  0  0  0  0  0  0  0
    2.5048   -0.0113    0.0357 C   0  0  0  0  0  0  0  0  0  0  0  0
    3.2658    1.1786   -0.0308 C   0  0  0  0  0  0  0  0  0  0  0  0
    4.5644    1.2507    0.5290 C   0  0  0  0  0  0  0  0  0  0  0  0
    5.0718    0.0989    1.1746 C   0  0  0  0  0  0  0  0  0  0  0  0
    4.3247   -1.0866    1.2442 C   0  0  0  0  0  0  0  0  0  0  0  0
    3.0355   -1.1710    0.6684 C   0  0  0  0  0  0  0  0  0  0  0  0
    2.2885   -2.4594    0.7311 C   0  0  0  0  0  0  0  0  0  0  0  0
    5.3600    2.4285    0.4286 C   0  0  0  0  0  0  0  0  0  0  0  0
    4.7876    3.6549    0.2129 N   0  0  0  0  0  0  0  0  0  0  0  0
    6.6058    2.3016    0.5045 O   0  0  0  0  0  0  0  0  0  0  0  0
    5.3853    4.8799    0.0658 C   0  0  0  0  0  0  0  0  0  0  0  0
    6.6731    5.2030    0.5371 C   0  0  0  0  0  0  0  0  0  0  0  0
    7.2336    6.4566    0.2772 C   0  0  0  0  0  0  0  0  0  0  0  0
    6.5204    7.4516   -0.4340 C   0  0  0  0  0  0  0  0  0  0  0  0
    5.1883    7.1728   -0.8793 C   0  0  0  0  0  0  0  0  0  0  0  0
    4.6515    5.8843   -0.6026 C   0  0  0  0  0  0  0  0  0  0  0  0
    7.2514    8.7320   -0.7000 C   0  0  2  0  0  0  0  0  0  0  0  0
    7.8872    8.8745   -2.0592 N   0  0  1  0  0  0  0  0  0  0  0  0
    8.9715    9.9074   -2.0534 C   0  0  1  0  0  0  0  0  0  0  0  0
    9.5328   10.1776   -3.4681 C   0  0  1  0  0  0  0  0  0  0  0  0
    9.9624    8.9064   -4.1206 N   0  0  1  0  0  0  0  0  0  0  0  0
    8.8541    7.9097   -4.1797 C   0  0  2  0  0  0  0  0  0  0  0  0
    8.3154    7.6181   -2.7571 C   0  0  1  0  0  0  0  0  0  0  0  0
   10.6280    9.1305   -5.4342 C   0  0  0  0  0  0  0  0  0  0  0  0
    4.3565    8.1999   -1.5960 C   0  0  1  0  0  0  0  0  0  0  0  0
    5.0629    8.6308   -2.7294 F   0  0  0  0  0  0  0  0  0  0  0  0
    3.2178    7.6396   -2.2111 F   0  0  0  0  0  0  0  0  0  0  0  0
    4.0585    9.2089   -0.6160 F   0  0  0  0  0  0  0  0  0  0  0  0
   -4.7902   -1.6059   -2.7442 H   0  0  0  0  0  0  0  0  0  0  0  0
   -4.6397   -3.5969   -1.3152 H   0  0  0  0  0  0  0  0  0  0  0  0
   -2.6416   -3.9261    0.0601 H   0  0  0  0  0  0  0  0  0  0  0  0
   -1.0864    1.5966   -2.8335 H   0  0  0  0  0  0  0  0  0  0  0  0
    2.8761    1.9974   -0.5125 H   0  0  0  0  0  0  0  0  0  0  0  0
    6.0014    0.1065    1.6027 H   0  0  0  0  0  0  0  0  0  0  0  0
    4.7401   -1.8946    1.7162 H   0  0  0  0  0  0  0  0  0  0  0  0
    2.0542   -2.7975   -0.2794 H   0  0  0  0  0  0  0  0  0  0  0  0
    2.8565   -3.2514    1.2232 H   0  0  0  0  0  0  0  0  0  0  0  0
    1.3571   -2.3208    1.2819 H   0  0  0  0  0  0  0  0  0  0  0  0
    3.8231    3.6590    0.1169 H   0  0  0  0  0  0  0  0  0  0  0  0
    7.2238    4.5401    1.0817 H   0  0  0  0  0  0  0  0  0  0  0  0
    8.1865    6.6301    0.6098 H   0  0  0  0  0  0  0  0  0  0  0  0
    3.6987    5.6547   -0.8962 H   0  0  0  0  0  0  0  0  0  0  0  0
    8.0091    8.8708    0.0777 H   0  0  0  0  0  0  0  0  0  0  0  0
    6.5704    9.5716   -0.5616 H   0  0  0  0  0  0  0  0  0  0  0  0
    8.5906   10.8516   -1.6555 H   0  0  0  0  0  0  0  0  0  0  0  0
    9.7924    9.5766   -1.4082 H   0  0  0  0  0  0  0  0  0  0  0  0
    8.7705   10.6811   -4.0707 H   0  0  0  0  0  0  0  0  0  0  0  0
   10.3886   10.8513   -3.3672 H   0  0  0  0  0  0  0  0  0  0  0  0
    9.2179    6.9709   -4.6057 H   0  0  0  0  0  0  0  0  0  0  0  0
    8.0395    8.2767   -4.8131 H   0  0  0  0  0  0  0  0  0  0  0  0
    9.0867    7.1071   -2.1716 H   0  0  0  0  0  0  0  0  0  0  0  0
    7.4658    6.9392   -2.8749 H   0  0  0  0  0  0  0  0  0  0  0  0
    9.9507    9.6095   -6.1459 H   0  0  0  0  0  0  0  0  0  0  0  0
   10.9701    8.1843   -5.8578 H   0  0  0  0  0  0  0  0  0  0  0  0
   11.5074    9.7652   -5.3046 H   0  0  0  0  0  0  0  0  0  0  0  0
  1  2  1  0  0  0  0 
  1  6  1  0  0  0  0 
  2  3  1  0  0  0  0 
  3  4  2  0  0  0  0 
  4  5  1  0  0  0  0 
  5  6  2  0  0  0  0 
  7  8  1  0  0  0  0 
  8  9  2  0  0  0  0 
  1  9  1  0  0  0  0 
  2  7  2  0  0  0  0 
  9 10  1  0  0  0  0 
 10 11  3  0  0  0  0 
 11 12  1  0  0  0  0 
 13 14  1  0  0  0  0 
 14 15  2  0  0  0  0 
 15 16  1  0  0  0  0 
 16 17  2  0  0  0  0 
 12 13  2  0  0  0  0 
 12 17  1  0  0  0  0 
 17 18  1  0  0  0  0 
 14 19  1  0  0  0  0 
 19 20  1  0  0  0  0 
 19 21  2  0  0  0  0 
 20 22  1  0  0  0  0 
 23 24  1  0  0  0  0 
 24 25  2  0  0  0  0 
 25 26  1  0  0  0  0 
 26 27  2  0  0  0  0 
 22 23  2  0  0  0  0 
 22 27  1  0  0  0  0 
 25 28  1  0  0  0  0 
 28 29  1  0  0  0  0 
 30 31  1  0  0  0  0 
 31 32  1  0  0  0  0 
 32 33  1  0  0  0  0 
 33 34  1  0  0  0  0 
 29 30  1  0  0  0  0 
 29 34  1  0  0  0  0 
 32 35  1  0  0  0  0 
 26 36  1  0  0  0  0 
 37 36  1  0  0  0  0 
 36 38  1  0  0  0  0 
 36 39  1  0  0  0  0 
  3 40  1  0  0  0  0 
  4 41  1  0  0  0  0 
  5 42  1  0  0  0  0 
  8 43  1  0  0  0  0 
 13 44  1  0  0  0  0 
 15 45  1  0  0  0  0 
 16 46  1  0  0  0  0 
 18 47  1  0  0  0  0 
 18 48  1  0  0  0  0 
 18 49  1  0  0  0  0 
 20 50  1  0  0  0  0 
 23 51  1  0  0  0  0 
 24 52  1  0  0  0  0 
 27 53  1  0  0  0  0 
 28 54  1  0  0  0  0 
 28 55  1  0  0  0  0 
 30 56  1  0  0  0  0 
 30 57  1  0  0  0  0 
 31 58  1  0  0  0  0 
 31 59  1  0  0  0  0 
 33 60  1  0  0  0  0 
 33 61  1  0  0  0  0 
 34 62  1  0  0  0  0 
 34 63  1  0  0  0  0 
 35 64  1  0  0  0  0 
 35 65  1  0  0  0  0 
 35 66  1  0  0  0  0 
M  END
> <cdk:Title>
ponatinib

> <Conformer>
1

> <SuperDrugID>
SD003726

$$$$
