dolasetron
  CDK     0628171801

 44 48  0  0  0  0  0  0  0  0999 V2000
   -3.9886    1.6699   -0.0670 O   0  0  0  0  0  0  0  0  0  0  0  0
   -4.8517    2.6614    0.3301 C   0  0  0  0  0  0  0  0  0  0  0  0
   -5.8926    2.3668    0.9629 O   0  0  0  0  0  0  0  0  0  0  0  0
   -4.5772    4.0058    0.0067 C   0  0  0  0  0  0  0  0  0  0  0  0
   -5.4020    5.1326    0.1278 C   0  0  0  0  0  0  0  0  0  0  0  0
   -4.6706    6.2265   -0.3432 C   0  0  0  0  0  0  0  0  0  0  0  0
   -3.4578    5.8062   -0.7272 N   0  0  0  0  0  0  0  0  0  0  0  0
   -3.3781    4.4789   -0.5359 C   0  0  0  0  0  0  0  0  0  0  0  0
   -5.2205    7.5197   -0.3842 C   0  0  0  0  0  0  0  0  0  0  0  0
   -6.5493    7.7007    0.0536 C   0  0  0  0  0  0  0  0  0  0  0  0
   -7.2942    6.6033    0.5433 C   0  0  0  0  0  0  0  0  0  0  0  0
   -6.7245    5.3111    0.5908 C   0  0  0  0  0  0  0  0  0  0  0  0
   -4.1535    0.2565    0.1621 C   0  0  2  0  0  0  0  0  0  0  0  0
   -3.7298   -0.1437    1.6058 C   0  0  1  0  0  0  0  0  0  0  0  0
   -2.2026   -0.4083    1.7707 C   0  0  1  0  0  0  0  0  0  0  0  0
   -1.7808   -1.4643    0.7728 N   0  0  1  0  0  0  0  0  0  0  0  0
   -1.9221   -0.8872   -0.6191 C   0  0  1  0  0  0  0  0  0  0  0  0
   -3.4219   -0.5875   -0.9223 C   0  0  2  0  0  0  0  0  0  0  0  0
   -0.9483    0.3422   -0.8004 C   0  0  2  0  0  0  0  0  0  0  0  0
   -0.1881    0.6001    0.5400 C   0  0  1  0  0  0  0  0  0  0  0  0
   -1.2654    0.8595    1.6447 C   0  0  1  0  0  0  0  0  0  0  0  0
    0.5196   -0.6630    0.8918 C   0  0  0  0  0  0  0  0  0  0  0  0
   -0.3455   -1.8644    1.0187 C   0  0  2  0  0  0  0  0  0  0  0  0
    1.7593   -0.7210    1.0599 O   0  0  0  0  0  0  0  0  0  0  0  0
   -1.6247   -1.6593   -1.3373 H   0  0  0  0  0  0  0  0  0  0  0  0
   -2.0756   -0.8157    2.7813 H   0  0  0  0  0  0  0  0  0  0  0  0
   -2.7550    6.3667   -1.0922 H   0  0  0  0  0  0  0  0  0  0  0  0
   -2.5582    3.9103   -0.7590 H   0  0  0  0  0  0  0  0  0  0  0  0
   -4.6743    8.3095   -0.7333 H   0  0  0  0  0  0  0  0  0  0  0  0
   -6.9773    8.6304    0.0109 H   0  0  0  0  0  0  0  0  0  0  0  0
   -8.2558    6.7474    0.8619 H   0  0  0  0  0  0  0  0  0  0  0  0
   -7.2732    4.5288    0.9530 H   0  0  0  0  0  0  0  0  0  0  0  0
   -5.2215    0.0396    0.0495 H   0  0  0  0  0  0  0  0  0  0  0  0
   -4.0545    0.6173    2.3194 H   0  0  0  0  0  0  0  0  0  0  0  0
   -4.2556   -1.0679    1.8653 H   0  0  0  0  0  0  0  0  0  0  0  0
   -3.5115   -0.0932   -1.8931 H   0  0  0  0  0  0  0  0  0  0  0  0
   -3.9388   -1.5497   -1.0035 H   0  0  0  0  0  0  0  0  0  0  0  0
   -1.4902    1.2455   -1.0915 H   0  0  0  0  0  0  0  0  0  0  0  0
   -0.2220    0.1347   -1.5937 H   0  0  0  0  0  0  0  0  0  0  0  0
    0.5051    1.4424    0.4528 H   0  0  0  0  0  0  0  0  0  0  0  0
   -1.8319    1.7579    1.3940 H   0  0  0  0  0  0  0  0  0  0  0  0
   -0.7672    1.0608    2.5974 H   0  0  0  0  0  0  0  0  0  0  0  0
   -0.0321   -2.6180    0.2928 H   0  0  0  0  0  0  0  0  0  0  0  0
   -0.2317   -2.2998    2.0141 H   0  0  0  0  0  0  0  0  0  0  0  0
  1  2  1  0  0  0  0 
  2  3  2  0  0  0  0 
  2  4  1  0  0  0  0 
  4  5  1  0  0  0  0 
  4  8  2  0  0  0  0 
  5  6  1  0  0  0  0 
  5 12  2  0  0  0  0 
  6  7  1  0  0  0  0 
  6  9  2  0  0  0  0 
  8  7  1  0  0  0  0 
  9 10  1  0  0  0  0 
 11 10  2  0  0  0  0 
 12 11  1  0  0  0  0 
 13  1  1  0  0  0  0 
 13 14  1  0  0  0  0 
 13 18  1  0  0  0  0 
 15 14  1  0  0  0  0 
 16 15  1  0  0  0  0 
 15 21  1  0  0  0  0 
 15 26  1  0  0  0  0 
 16 23  1  0  0  0  0 
 17 16  1  0  0  0  0 
 17 19  1  0  0  0  0 
 17 25  1  0  0  0  0 
 17 18  1  0  0  0  0 
 19 20  1  0  0  0  0 
 20 22  1  0  0  0  0 
 21 20  1  0  0  0  0 
 22 24  2  0  0  0  0 
 23 22  1  0  0  0  0 
  7 27  1  0  0  0  0 
  8 28  1  0  0  0  0 
  9 29  1  0  0  0  0 
 10 30  1  0  0  0  0 
 11 31  1  0  0  0  0 
 12 32  1  0  0  0  0 
 13 33  1  0  0  0  0 
 14 34  1  0  0  0  0 
 14 35  1  0  0  0  0 
 18 36  1  0  0  0  0 
 18 37  1  0  0  0  0 
 19 38  1  0  0  0  0 
 19 39  1  0  0  0  0 
 20 40  1  0  0  0  0 
 21 41  1  0  0  0  0 
 21 42  1  0  0  0  0 
 23 43  1  0  0  0  0 
 23 44  1  0  0  0  0 
M  END
> <cdk:Title>
dolasetron

> <Conformer>
1

> <SuperDrugID>
SD003301

$$$$
