iopromide
  CDK     0628171801

 56 56  0  0  0  0  0  0  0  0999 V2000
   -4.0577    2.2355   -4.0955 C   0  0  0  0  0  0  0  0  0  0  0  0
   -3.7174    1.9432   -5.4131 N   0  0  0  0  0  0  0  0  0  0  0  0
   -4.2679    3.4172   -3.7293 O   0  0  0  0  0  0  0  0  0  0  0  0
   -4.1533    1.2891   -3.0497 C   0  0  0  0  0  0  0  0  0  0  0  0
   -3.4471    3.0258   -6.3480 C   0  0  2  0  0  0  0  0  0  0  0  0
   -3.5742    0.5871   -5.9025 C   0  0  0  0  0  0  0  0  0  0  0  0
   -5.3394    0.5419   -2.8492 C   0  0  0  0  0  0  0  0  0  0  0  0
   -3.0497    1.1036   -2.1837 C   0  0  0  0  0  0  0  0  0  0  0  0
   -2.0541    3.6844   -6.1146 C   0  0  2  0  0  0  0  0  0  0  0  0
   -6.9607    0.8681   -4.0871 I   0  0  0  0  0  0  0  0  0  0  0  0
   -5.4144   -0.4050   -1.7966 C   0  0  0  0  0  0  0  0  0  0  0  0
   -1.2898    2.1420   -2.4835 I   0  0  0  0  0  0  0  0  0  0  0  0
   -3.1376    0.1876   -1.1124 C   0  0  0  0  0  0  0  0  0  0  0  0
   -1.8113    4.9173   -7.0185 C   0  0  1  0  0  0  0  0  0  0  0  0
   -1.0122    2.7386   -6.3492 O   0  0  0  0  0  0  0  0  0  0  0  0
   -6.5763   -1.1785   -1.6084 C   0  0  0  0  0  0  0  0  0  0  0  0
   -4.3065   -0.5801   -0.9315 C   0  0  0  0  0  0  0  0  0  0  0  0
   -2.0957    0.0355   -0.2527 N   0  0  0  0  0  0  0  0  0  0  0  0
   -2.6510    6.0018   -6.6347 O   0  0  0  0  0  0  0  0  0  0  0  0
   -6.9480   -2.0583   -2.5736 N   0  0  0  0  0  0  0  0  0  0  0  0
   -7.2353   -1.0409   -0.5504 O   0  0  0  0  0  0  0  0  0  0  0  0
   -4.3411   -1.9686    0.5950 I   0  0  0  0  0  0  0  0  0  0  0  0
   -1.7639    0.9355    0.7154 C   0  0  0  0  0  0  0  0  0  0  0  0
   -8.0783   -2.9284   -2.4996 C   0  0  2  0  0  0  0  0  0  0  0  0
   -0.5452    0.7145    1.5096 C   0  0  2  0  0  0  0  0  0  0  0  0
   -2.4676    1.9521    0.9322 O   0  0  0  0  0  0  0  0  0  0  0  0
   -8.3490   -3.6507   -3.8453 C   0  0  2  0  0  0  0  0  0  0  0  0
    0.5721    0.6638    0.6046 O   0  0  0  0  0  0  0  0  0  0  0  0
   -7.2147   -4.6014   -4.2992 C   0  0  1  0  0  0  0  0  0  0  0  0
   -8.5859   -2.6822   -4.8682 O   0  0  0  0  0  0  0  0  0  0  0  0
    1.8459    0.4942    1.2458 C   0  0  0  0  0  0  0  0  0  0  0  0
   -6.9787   -5.6149   -3.3267 O   0  0  0  0  0  0  0  0  0  0  0  0
   -4.2294    3.7864   -6.2691 H   0  0  0  0  0  0  0  0  0  0  0  0
   -3.4891    2.6741   -7.3829 H   0  0  0  0  0  0  0  0  0  0  0  0
   -4.1930    0.4483   -6.7915 H   0  0  0  0  0  0  0  0  0  0  0  0
   -3.8763   -0.1794   -5.1889 H   0  0  0  0  0  0  0  0  0  0  0  0
   -2.5343    0.3931   -6.1711 H   0  0  0  0  0  0  0  0  0  0  0  0
   -1.9675    4.0088   -5.0748 H   0  0  0  0  0  0  0  0  0  0  0  0
   -0.7726    5.2438   -6.9253 H   0  0  0  0  0  0  0  0  0  0  0  0
   -2.0050    4.6707   -8.0647 H   0  0  0  0  0  0  0  0  0  0  0  0
   -1.1250    2.0562   -5.6547 H   0  0  0  0  0  0  0  0  0  0  0  0
   -1.5542   -0.7662   -0.3344 H   0  0  0  0  0  0  0  0  0  0  0  0
   -2.3929    6.7405   -7.2248 H   0  0  0  0  0  0  0  0  0  0  0  0
   -6.3930   -2.1008   -3.3679 H   0  0  0  0  0  0  0  0  0  0  0  0
   -8.9653   -2.3443   -2.2389 H   0  0  0  0  0  0  0  0  0  0  0  0
   -7.9163   -3.6691   -1.7115 H   0  0  0  0  0  0  0  0  0  0  0  0
   -0.6470   -0.2311    2.0494 H   0  0  0  0  0  0  0  0  0  0  0  0
   -0.4119    1.5260    2.2335 H   0  0  0  0  0  0  0  0  0  0  0  0
   -9.2589   -4.2470   -3.7306 H   0  0  0  0  0  0  0  0  0  0  0  0
   -7.5015   -5.0885   -5.2339 H   0  0  0  0  0  0  0  0  0  0  0  0
   -6.2918   -4.0432   -4.4713 H   0  0  0  0  0  0  0  0  0  0  0  0
   -9.3618   -2.1674   -4.5595 H   0  0  0  0  0  0  0  0  0  0  0  0
    2.0959    1.3650    1.8563 H   0  0  0  0  0  0  0  0  0  0  0  0
    2.6025    0.3932    0.4684 H   0  0  0  0  0  0  0  0  0  0  0  0
    1.8676   -0.4069    1.8635 H   0  0  0  0  0  0  0  0  0  0  0  0
   -6.2769   -6.1773   -3.7150 H   0  0  0  0  0  0  0  0  0  0  0  0
  1  2  1  0  0  0  0 
  1  3  2  0  0  0  0 
  1  4  1  0  0  0  0 
  2  5  1  0  0  0  0 
  2  6  1  0  0  0  0 
  4  7  2  0  0  0  0 
  4  8  1  0  0  0  0 
  5  9  1  0  0  0  0 
  7 10  1  0  0  0  0 
  7 11  1  0  0  0  0 
  8 12  1  0  0  0  0 
  8 13  2  0  0  0  0 
  9 14  1  0  0  0  0 
  9 15  1  0  0  0  0 
 11 16  1  0  0  0  0 
 11 17  2  0  0  0  0 
 13 17  1  0  0  0  0 
 13 18  1  0  0  0  0 
 14 19  1  0  0  0  0 
 16 20  1  0  0  0  0 
 16 21  2  0  0  0  0 
 17 22  1  0  0  0  0 
 18 23  1  0  0  0  0 
 20 24  1  0  0  0  0 
 23 25  1  0  0  0  0 
 23 26  2  0  0  0  0 
 24 27  1  0  0  0  0 
 25 28  1  0  0  0  0 
 27 29  1  0  0  0  0 
 27 30  1  0  0  0  0 
 28 31  1  0  0  0  0 
 29 32  1  0  0  0  0 
  5 33  1  0  0  0  0 
  5 34  1  0  0  0  0 
  6 35  1  0  0  0  0 
  6 36  1  0  0  0  0 
  6 37  1  0  0  0  0 
  9 38  1  0  0  0  0 
 14 39  1  0  0  0  0 
 14 40  1  0  0  0  0 
 15 41  1  0  0  0  0 
 18 42  1  0  0  0  0 
 19 43  1  0  0  0  0 
 20 44  1  0  0  0  0 
 24 45  1  0  0  0  0 
 24 46  1  0  0  0  0 
 25 47  1  0  0  0  0 
 25 48  1  0  0  0  0 
 27 49  1  0  0  0  0 
 29 50  1  0  0  0  0 
 29 51  1  0  0  0  0 
 30 52  1  0  0  0  0 
 31 53  1  0  0  0  0 
 31 54  1  0  0  0  0 
 31 55  1  0  0  0  0 
 32 56  1  0  0  0  0 
M  END
> <cdk:Title>
iopromide

> <Conformer>
1

> <SuperDrugID>
SD001299

$$$$
