salicylic acid
  CDK     0628171801

 16 16  0  0  0  0  0  0  0  0999 V2000
   -3.4514    0.5621    0.5303 O   0  0  0  0  0  0  0  0  0  0  0  0
   -3.4755    1.9177    0.5432 C   0  0  0  0  0  0  0  0  0  0  0  0
   -4.6120    2.4398    0.4713 O   0  0  0  0  0  0  0  0  0  0  0  0
   -2.2760    2.6881    0.6093 C   0  0  0  0  0  0  0  0  0  0  0  0
   -1.0151    2.0440    0.5057 C   0  0  0  0  0  0  0  0  0  0  0  0
    0.1837    2.7809    0.5229 C   0  0  0  0  0  0  0  0  0  0  0  0
    0.1502    4.1784    0.6530 C   0  0  0  0  0  0  0  0  0  0  0  0
   -1.0842    4.8354    0.7793 C   0  0  0  0  0  0  0  0  0  0  0  0
   -2.2870    4.1029    0.7617 C   0  0  0  0  0  0  0  0  0  0  0  0
   -3.4332    4.8140    0.9098 O   0  0  0  0  0  0  0  0  0  0  0  0
   -4.2848    0.0497    0.4644 H   0  0  0  0  0  0  0  0  0  0  0  0
   -0.9493    1.0277    0.4057 H   0  0  0  0  0  0  0  0  0  0  0  0
    1.0828    2.3019    0.4380 H   0  0  0  0  0  0  0  0  0  0  0  0
    1.0212    4.7160    0.6654 H   0  0  0  0  0  0  0  0  0  0  0  0
   -1.1040    5.8517    0.8942 H   0  0  0  0  0  0  0  0  0  0  0  0
   -3.9204    4.3573    1.6280 H   0  0  0  0  0  0  0  0  0  0  0  0
  1  2  1  0  0  0  0 
  2  3  2  0  0  0  0 
  2  4  1  0  0  0  0 
  4  5  2  0  0  0  0 
  5  6  1  0  0  0  0 
  6  7  2  0  0  0  0 
  7  8  1  0  0  0  0 
  8  9  2  0  0  0  0 
  4  9  1  0  0  0  0 
  9 10  1  0  0  0  0 
  1 11  1  0  0  0  0 
  5 12  1  0  0  0  0 
  6 13  1  0  0  0  0 
  7 14  1  0  0  0  0 
  8 15  1  0  0  0  0 
 10 16  1  0  0  0  0 
M  END
> <cdk:Title>
salicylic acid

> <Conformer>
1

> <SuperDrugID>
SD002175

$$$$
