pimeclone
  CDK     0628171801

 35 36  0  0  0  0  0  0  0  0999 V2000
   -2.2469   -1.4532   -1.0145 O   0  0  0  0  0  0  0  0  0  0  0  0
   -2.8023   -0.6281   -1.7759 C   0  0  0  0  0  0  0  0  0  0  0  0
   -3.9276   -1.0702   -2.6335 C   0  0  2  0  0  0  0  0  0  0  0  0
   -3.6333   -0.7545   -4.1254 C   0  0  1  0  0  0  0  0  0  0  0  0
   -3.1379    0.7025   -4.3423 C   0  0  1  0  0  0  0  0  0  0  0  0
   -1.9548    1.0450   -3.3928 C   0  0  1  0  0  0  0  0  0  0  0  0
   -2.3285    0.7809   -1.8993 C   0  0  2  0  0  0  0  0  0  0  0  0
   -1.1670    1.1830   -0.9297 C   0  0  1  0  0  0  0  0  0  0  0  0
   -1.4194    0.9481    0.5358 N   0  0  2  0  0  0  0  0  0  0  0  0
   -2.5776    1.7203    1.0977 C   0  0  2  0  0  0  0  0  0  0  0  0
   -2.8467    1.3855    2.5866 C   0  0  1  0  0  0  0  0  0  0  0  0
   -1.5727    1.5820    3.4406 C   0  0  1  0  0  0  0  0  0  0  0  0
   -0.3881    0.7814    2.8494 C   0  0  2  0  0  0  0  0  0  0  0  0
   -0.1726    1.1295    1.3538 C   0  0  2  0  0  0  0  0  0  0  0  0
   -4.8360   -0.5493   -2.3197 H   0  0  0  0  0  0  0  0  0  0  0  0
   -4.1031   -2.1442   -2.5221 H   0  0  0  0  0  0  0  0  0  0  0  0
   -2.8669   -1.4456   -4.4874 H   0  0  0  0  0  0  0  0  0  0  0  0
   -4.5391   -0.9191   -4.7162 H   0  0  0  0  0  0  0  0  0  0  0  0
   -2.8213    0.8282   -5.3807 H   0  0  0  0  0  0  0  0  0  0  0  0
   -3.9616    1.3979   -4.1573 H   0  0  0  0  0  0  0  0  0  0  0  0
   -1.0843    0.4459   -3.6758 H   0  0  0  0  0  0  0  0  0  0  0  0
   -1.6914    2.0982   -3.5294 H   0  0  0  0  0  0  0  0  0  0  0  0
   -3.1760    1.4345   -1.6777 H   0  0  0  0  0  0  0  0  0  0  0  0
   -0.2820    0.6163   -1.2345 H   0  0  0  0  0  0  0  0  0  0  0  0
   -0.9376    2.2428   -1.0847 H   0  0  0  0  0  0  0  0  0  0  0  0
   -3.4950    1.4800    0.5594 H   0  0  0  0  0  0  0  0  0  0  0  0
   -2.3993    2.7946    0.9938 H   0  0  0  0  0  0  0  0  0  0  0  0
   -3.6413    2.0304    2.9686 H   0  0  0  0  0  0  0  0  0  0  0  0
   -3.1855    0.3489    2.6706 H   0  0  0  0  0  0  0  0  0  0  0  0
   -1.3154    2.6459    3.4688 H   0  0  0  0  0  0  0  0  0  0  0  0
   -1.7636    1.2537    4.4661 H   0  0  0  0  0  0  0  0  0  0  0  0
   -0.5866   -0.2900    2.9475 H   0  0  0  0  0  0  0  0  0  0  0  0
    0.5194    1.0111    3.4146 H   0  0  0  0  0  0  0  0  0  0  0  0
    0.1794    2.1635    1.2770 H   0  0  0  0  0  0  0  0  0  0  0  0
    0.6204    0.4775    0.9765 H   0  0  0  0  0  0  0  0  0  0  0  0
  1  2  2  0  0  0  0 
  2  3  1  0  0  0  0 
  3  4  1  0  0  0  0 
  4  5  1  0  0  0  0 
  5  6  1  0  0  0  0 
  7  6  1  0  0  0  0 
  7  2  1  0  0  0  0 
  7  8  1  0  0  0  0 
  8  9  1  0  0  0  0 
  9 10  1  0  0  0  0 
 10 11  1  0  0  0  0 
 11 12  1  0  0  0  0 
 12 13  1  0  0  0  0 
 13 14  1  0  0  0  0 
  9 14  1  0  0  0  0 
  3 15  1  0  0  0  0 
  3 16  1  0  0  0  0 
  4 17  1  0  0  0  0 
  4 18  1  0  0  0  0 
  5 19  1  0  0  0  0 
  5 20  1  0  0  0  0 
  6 21  1  0  0  0  0 
  6 22  1  0  0  0  0 
  7 23  1  0  0  0  0 
  8 24  1  0  0  0  0 
  8 25  1  0  0  0  0 
 10 26  1  0  0  0  0 
 10 27  1  0  0  0  0 
 11 28  1  0  0  0  0 
 11 29  1  0  0  0  0 
 12 30  1  0  0  0  0 
 12 31  1  0  0  0  0 
 13 32  1  0  0  0  0 
 13 33  1  0  0  0  0 
 14 34  1  0  0  0  0 
 14 35  1  0  0  0  0 
M  END
> <cdk:Title>
pimeclone

> <Conformer>
1

> <SuperDrugID>
SD003257

$$$$
