cethexonium
  CDK     0628171801

 76 76  0  0  0  0  0  0  0  0999 V2000
   -0.4257   -0.0378    0.3233 N   0  0  1  0  0  0  0  0  0  0  0  0
   -1.3924    0.8430   -0.4853 C   0  0  1  0  0  0  0  0  0  0  0  0
   -0.6817    0.2522    1.7915 C   0  0  0  0  0  0  0  0  0  0  0  0
   -0.8335   -1.4857    0.0955 C   0  0  0  0  0  0  0  0  0  0  0  0
    1.0611    0.2094   -0.0530 C   0  0  2  0  0  0  0  0  0  0  0  0
   -1.2979    0.7785   -2.0431 C   0  0  2  0  0  0  0  0  0  0  0  0
    2.1564   -0.7040    0.6259 C   0  0  1  0  0  0  0  0  0  0  0  0
    1.5233    1.7112    0.0898 C   0  0  2  0  0  0  0  0  0  0  0  0
   -2.2845    1.7965   -2.7525 C   0  0  1  0  0  0  0  0  0  0  0  0
    1.9544   -2.0909    0.3586 O   0  0  0  0  0  0  0  0  0  0  0  0
    3.6015   -0.4042    0.1274 C   0  0  2  0  0  0  0  0  0  0  0  0
    2.9549    1.9828   -0.4332 C   0  0  2  0  0  0  0  0  0  0  0  0
   -2.1697    1.6445   -4.2892 C   0  0  1  0  0  0  0  0  0  0  0  0
    3.9865    1.0855    0.2859 C   0  0  2  0  0  0  0  0  0  0  0  0
   -3.0803    2.6183   -5.0765 C   0  0  2  0  0  0  0  0  0  0  0  0
   -2.9509    2.3962   -6.6055 C   0  0  2  0  0  0  0  0  0  0  0  0
   -3.8653    3.3356   -7.4275 C   0  0  2  0  0  0  0  0  0  0  0  0
   -3.7329    3.0915   -8.9536 C   0  0  2  0  0  0  0  0  0  0  0  0
   -4.6554    4.0322   -9.7699 C   0  0  1  0  0  0  0  0  0  0  0  0
   -4.5464    3.8141  -11.3013 C   0  0  2  0  0  0  0  0  0  0  0  0
   -5.4810    4.7732  -12.0846 C   0  0  2  0  0  0  0  0  0  0  0  0
   -5.3928    4.5796  -13.6191 C   0  0  2  0  0  0  0  0  0  0  0  0
   -6.3315    5.5444  -14.3917 C   0  0  1  0  0  0  0  0  0  0  0  0
   -6.2401    5.3472  -15.9275 C   0  0  1  0  0  0  0  0  0  0  0  0
   -7.1722    6.3037  -16.7167 C   0  0  2  0  0  0  0  0  0  0  0  0
   -7.0692    6.0944  -18.2436 C   0  0  0  0  0  0  0  0  0  0  0  0
   -2.4316    0.5977   -0.2302 H   0  0  0  0  0  0  0  0  0  0  0  0
   -1.2891    1.8920   -0.1909 H   0  0  0  0  0  0  0  0  0  0  0  0
   -0.0331   -0.3382    2.4411 H   0  0  0  0  0  0  0  0  0  0  0  0
   -1.7120    0.0193    2.0838 H   0  0  0  0  0  0  0  0  0  0  0  0
   -0.5224    1.3043    2.0361 H   0  0  0  0  0  0  0  0  0  0  0  0
   -0.4156   -2.1646    0.8409 H   0  0  0  0  0  0  0  0  0  0  0  0
   -1.9170   -1.6305    0.1567 H   0  0  0  0  0  0  0  0  0  0  0  0
   -0.5116   -1.8431   -0.8840 H   0  0  0  0  0  0  0  0  0  0  0  0
    1.1676   -0.0374   -1.1132 H   0  0  0  0  0  0  0  0  0  0  0  0
   -1.3938   -0.2990   -2.3494 H   0  0  0  0  0  0  0  0  0  0  0  0
   -0.3003    1.0963   -2.3465 H   0  0  0  0  0  0  0  0  0  0  0  0
    2.1359   -0.5627    1.7067 H   0  0  0  0  0  0  0  0  0  0  0  0
    1.4837    2.0204    1.1352 H   0  0  0  0  0  0  0  0  0  0  0  0
    0.8725    2.3768   -0.4708 H   0  0  0  0  0  0  0  0  0  0  0  0
   -3.3103    1.5799   -2.4404 H   0  0  0  0  0  0  0  0  0  0  0  0
   -2.0306    2.8205   -2.4615 H   0  0  0  0  0  0  0  0  0  0  0  0
    2.6838   -2.5561    0.8207 H   0  0  0  0  0  0  0  0  0  0  0  0
    3.6887   -0.6820   -0.9289 H   0  0  0  0  0  0  0  0  0  0  0  0
    4.3174   -1.0132    0.6881 H   0  0  0  0  0  0  0  0  0  0  0  0
    3.2117    3.0340   -0.2688 H   0  0  0  0  0  0  0  0  0  0  0  0
    2.9936    1.7968   -1.5111 H   0  0  0  0  0  0  0  0  0  0  0  0
   -1.1302    1.8181   -4.5843 H   0  0  0  0  0  0  0  0  0  0  0  0
   -2.4342    0.6171   -4.5575 H   0  0  0  0  0  0  0  0  0  0  0  0
    4.9806    1.2561   -0.1385 H   0  0  0  0  0  0  0  0  0  0  0  0
    4.0226    1.3453    1.3482 H   0  0  0  0  0  0  0  0  0  0  0  0
   -2.8002    3.6472   -4.8336 H   0  0  0  0  0  0  0  0  0  0  0  0
   -4.1197    2.4660   -4.7727 H   0  0  0  0  0  0  0  0  0  0  0  0
   -3.2102    1.3595   -6.8380 H   0  0  0  0  0  0  0  0  0  0  0  0
   -1.9121    2.5634   -6.9034 H   0  0  0  0  0  0  0  0  0  0  0  0
   -3.6020    4.3735   -7.2058 H   0  0  0  0  0  0  0  0  0  0  0  0
   -4.9044    3.1732   -7.1282 H   0  0  0  0  0  0  0  0  0  0  0  0
   -3.9947    2.0529   -9.1776 H   0  0  0  0  0  0  0  0  0  0  0  0
   -2.6948    3.2563   -9.2581 H   0  0  0  0  0  0  0  0  0  0  0  0
   -5.6915    3.8638   -9.4603 H   0  0  0  0  0  0  0  0  0  0  0  0
   -4.3933    5.0694   -9.5394 H   0  0  0  0  0  0  0  0  0  0  0  0
   -4.8116    2.7790  -11.5356 H   0  0  0  0  0  0  0  0  0  0  0  0
   -3.5117    3.9819  -11.6142 H   0  0  0  0  0  0  0  0  0  0  0  0
   -5.2134    5.8051  -11.8414 H   0  0  0  0  0  0  0  0  0  0  0  0
   -6.5124    4.6026  -11.7641 H   0  0  0  0  0  0  0  0  0  0  0  0
   -5.6613    3.5482  -13.8642 H   0  0  0  0  0  0  0  0  0  0  0  0
   -4.3618    4.7508  -13.9412 H   0  0  0  0  0  0  0  0  0  0  0  0
   -7.3636    5.3743  -14.0711 H   0  0  0  0  0  0  0  0  0  0  0  0
   -6.0640    6.5770  -14.1482 H   0  0  0  0  0  0  0  0  0  0  0  0
   -5.2070    5.5168  -16.2451 H   0  0  0  0  0  0  0  0  0  0  0  0
   -6.5068    4.3138  -16.1680 H   0  0  0  0  0  0  0  0  0  0  0  0
   -6.9097    7.3400  -16.4865 H   0  0  0  0  0  0  0  0  0  0  0  0
   -8.2085    6.1380  -16.4094 H   0  0  0  0  0  0  0  0  0  0  0  0
   -7.7388    6.7849  -18.7589 H   0  0  0  0  0  0  0  0  0  0  0  0
   -6.0484    6.2794  -18.5837 H   0  0  0  0  0  0  0  0  0  0  0  0
   -7.3518    5.0731  -18.5063 H   0  0  0  0  0  0  0  0  0  0  0  0
  1  2  1  0  0  0  0 
  1  3  1  0  0  0  0 
  1  4  1  0  0  0  0 
  1  5  1  0  0  0  0 
  2  6  1  0  0  0  0 
  5  7  1  0  0  0  0 
  5  8  1  0  0  0  0 
  6  9  1  0  0  0  0 
  7 10  1  0  0  0  0 
  7 11  1  0  0  0  0 
  8 12  1  0  0  0  0 
  9 13  1  0  0  0  0 
 11 14  1  0  0  0  0 
 12 14  1  0  0  0  0 
 13 15  1  0  0  0  0 
 15 16  1  0  0  0  0 
 16 17  1  0  0  0  0 
 17 18  1  0  0  0  0 
 18 19  1  0  0  0  0 
 19 20  1  0  0  0  0 
 20 21  1  0  0  0  0 
 21 22  1  0  0  0  0 
 22 23  1  0  0  0  0 
 23 24  1  0  0  0  0 
 24 25  1  0  0  0  0 
 25 26  1  0  0  0  0 
  2 27  1  0  0  0  0 
  2 28  1  0  0  0  0 
  3 29  1  0  0  0  0 
  3 30  1  0  0  0  0 
  3 31  1  0  0  0  0 
  4 32  1  0  0  0  0 
  4 33  1  0  0  0  0 
  4 34  1  0  0  0  0 
  5 35  1  0  0  0  0 
  6 36  1  0  0  0  0 
  6 37  1  0  0  0  0 
  7 38  1  0  0  0  0 
  8 39  1  0  0  0  0 
  8 40  1  0  0  0  0 
  9 41  1  0  0  0  0 
  9 42  1  0  0  0  0 
 10 43  1  0  0  0  0 
 11 44  1  0  0  0  0 
 11 45  1  0  0  0  0 
 12 46  1  0  0  0  0 
 12 47  1  0  0  0  0 
 13 48  1  0  0  0  0 
 13 49  1  0  0  0  0 
 14 50  1  0  0  0  0 
 14 51  1  0  0  0  0 
 15 52  1  0  0  0  0 
 15 53  1  0  0  0  0 
 16 54  1  0  0  0  0 
 16 55  1  0  0  0  0 
 17 56  1  0  0  0  0 
 17 57  1  0  0  0  0 
 18 58  1  0  0  0  0 
 18 59  1  0  0  0  0 
 19 60  1  0  0  0  0 
 19 61  1  0  0  0  0 
 20 62  1  0  0  0  0 
 20 63  1  0  0  0  0 
 21 64  1  0  0  0  0 
 21 65  1  0  0  0  0 
 22 66  1  0  0  0  0 
 22 67  1  0  0  0  0 
 23 68  1  0  0  0  0 
 23 69  1  0  0  0  0 
 24 70  1  0  0  0  0 
 24 71  1  0  0  0  0 
 25 72  1  0  0  0  0 
 25 73  1  0  0  0  0 
 26 74  1  0  0  0  0 
 26 75  1  0  0  0  0 
 26 76  1  0  0  0  0 
M  CHG  1   1   1
M  END
> <cdk:Title>
cethexonium

> <Conformer>
1

> <SuperDrugID>
SD002675

$$$$
