nordazepam
  CDK     0628171802

 30 32  0  0  0  0  0  0  0  0999 V2000
    2.9012    6.4606    0.9559 Cl  0  0  0  0  0  0  0  0  0  0  0  0
    3.7320    5.1489    0.2810 C   0  0  0  0  0  0  0  0  0  0  0  0
    3.2296    3.8429    0.4263 C   0  0  0  0  0  0  0  0  0  0  0  0
    4.9288    5.3612   -0.4215 C   0  0  0  0  0  0  0  0  0  0  0  0
    3.9108    2.7191   -0.1138 C   0  0  0  0  0  0  0  0  0  0  0  0
    5.6314    4.2682   -0.9513 C   0  0  0  0  0  0  0  0  0  0  0  0
    3.3463    1.4301    0.0340 C   0  0  0  0  0  0  0  0  0  0  0  0
    5.1524    2.9497   -0.7878 C   0  0  0  0  0  0  0  0  0  0  0  0
    4.0645    0.3770    0.2398 N   0  0  0  0  0  0  0  0  0  0  0  0
    1.9638    1.1933   -0.0297 C   0  0  0  0  0  0  0  0  0  0  0  0
    5.9560    1.9777   -1.3195 N   0  0  0  0  0  0  0  0  0  0  0  0
    5.4401    0.2445    0.3724 C   0  0  1  0  0  0  0  0  0  0  0  0
    1.1610    1.7676   -1.0498 C   0  0  0  0  0  0  0  0  0  0  0  0
    1.3239    0.3631    0.9283 C   0  0  0  0  0  0  0  0  0  0  0  0
    6.1130    0.7144   -0.8518 C   0  0  0  0  0  0  0  0  0  0  0  0
   -0.2261    1.5275   -1.1029 C   0  0  0  0  0  0  0  0  0  0  0  0
   -0.0633    0.1313    0.8809 C   0  0  0  0  0  0  0  0  0  0  0  0
    6.8758   -0.0527   -1.4825 O   0  0  0  0  0  0  0  0  0  0  0  0
   -0.8393    0.7130   -0.1350 C   0  0  0  0  0  0  0  0  0  0  0  0
    2.3544    3.7207    0.9443 H   0  0  0  0  0  0  0  0  0  0  0  0
    5.2983    6.3073   -0.5442 H   0  0  0  0  0  0  0  0  0  0  0  0
    6.5112    4.4433   -1.4461 H   0  0  0  0  0  0  0  0  0  0  0  0
    6.5044    2.2264   -2.0813 H   0  0  0  0  0  0  0  0  0  0  0  0
    5.7890    0.8301    1.2270 H   0  0  0  0  0  0  0  0  0  0  0  0
    5.6722   -0.8054    0.5657 H   0  0  0  0  0  0  0  0  0  0  0  0
    1.5799    2.3574   -1.7733 H   0  0  0  0  0  0  0  0  0  0  0  0
    1.8641   -0.0783    1.6778 H   0  0  0  0  0  0  0  0  0  0  0  0
   -0.7896    1.9441   -1.8477 H   0  0  0  0  0  0  0  0  0  0  0  0
   -0.5072   -0.4655    1.5831 H   0  0  0  0  0  0  0  0  0  0  0  0
   -1.8473    0.5420   -0.1690 H   0  0  0  0  0  0  0  0  0  0  0  0
  1  2  1  0  0  0  0 
  2  3  2  0  0  0  0 
  2  4  1  0  0  0  0 
  3  5  1  0  0  0  0 
  4  6  2  0  0  0  0 
  5  7  1  0  0  0  0 
  5  8  2  0  0  0  0 
  6  8  1  0  0  0  0 
  7  9  2  0  0  0  0 
  7 10  1  0  0  0  0 
  8 11  1  0  0  0  0 
  9 12  1  0  0  0  0 
 10 13  2  0  0  0  0 
 10 14  1  0  0  0  0 
 11 15  1  0  0  0  0 
 12 15  1  0  0  0  0 
 13 16  1  0  0  0  0 
 14 17  2  0  0  0  0 
 15 18  2  0  0  0  0 
 16 19  2  0  0  0  0 
 17 19  1  0  0  0  0 
  3 20  1  0  0  0  0 
  4 21  1  0  0  0  0 
  6 22  1  0  0  0  0 
 11 23  1  0  0  0  0 
 12 24  1  0  0  0  0 
 12 25  1  0  0  0  0 
 13 26  1  0  0  0  0 
 14 27  1  0  0  0  0 
 16 28  1  0  0  0  0 
 17 29  1  0  0  0  0 
 19 30  1  0  0  0  0 
M  END
> <cdk:Title>
nordazepam

> <Conformer>
1

> <SuperDrugID>
SD000720

$$$$
