Spiramycin II
  CDK     0628171801

138141  0  0  0  0  0  0  0  0999 V2000
    3.0065   -2.7333    3.4339 O   0  0  0  0  0  0  0  0  0  0  0  0
    2.5163   -1.4262    3.0276 C   0  0  2  0  0  0  0  0  0  0  0  0
    2.2860   -3.4515    4.4650 C   0  0  1  0  0  0  0  0  0  0  0  0
    1.5545   -1.6170    1.7814 C   0  0  1  0  0  0  0  0  0  0  0  0
    3.7892   -0.5291    2.7333 C   0  0  1  0  0  0  0  0  0  0  0  0
    2.1411   -4.9606    4.0822 C   0  0  2  0  0  0  0  0  0  0  0  0
    3.0980   -3.2705    5.6406 O   0  0  0  0  0  0  0  0  0  0  0  0
    1.1840   -3.0161    1.6223 O   0  0  0  0  0  0  0  0  0  0  0  0
    0.2652   -0.7026    1.7210 C   0  0  2  0  0  0  0  0  0  0  0  0
    3.4554    0.9041    2.1848 C   0  0  2  0  0  0  0  0  0  0  0  0
    4.9056   -0.5415    3.8509 C   0  0  2  0  0  0  0  0  0  0  0  0
    0.7918   -5.3808    4.2953 O   0  0  0  0  0  0  0  0  0  0  0  0
    3.1411   -5.8555    4.8967 C   0  0  1  0  0  0  0  0  0  0  0  0
    2.7642   -4.0837    6.7754 C   0  0  1  0  0  0  0  0  0  0  0  0
    1.3037   -3.5879    0.3031 C   0  0  0  0  0  0  0  0  0  0  0  0
    0.3036    0.4367    2.6042 O   0  0  0  0  0  0  0  0  0  0  0  0
   -1.1227   -1.4091    1.8200 C   0  0  1  0  0  0  0  0  0  0  0  0
    4.6145    1.6288    1.6222 C   0  0  0  0  0  0  0  0  0  0  0  0
    4.5883   -0.2852    5.3717 C   0  0  1  0  0  0  0  0  0  0  0  0
    4.5987   -5.5971    4.5286 N   0  0  2  0  0  0  0  0  0  0  0  0
    2.8168   -5.6156    6.4241 C   0  0  1  0  0  0  0  0  0  0  0  0
    3.7116   -3.6734    7.9284 C   0  0  0  0  0  0  0  0  0  0  0  0
   -0.2747    1.6575    2.3641 C   0  0  0  0  0  0  0  0  0  0  0  0
   -1.4185   -2.1674    3.0525 C   0  0  0  0  0  0  0  0  0  0  0  0
    4.9865    2.7332    2.0791 O   0  0  0  0  0  0  0  0  0  0  0  0
    5.8967   -0.4932    6.1990 C   0  0  0  0  0  0  0  0  0  0  0  0
    3.9105    1.0760    5.7806 C   0  0  1  0  0  0  0  0  0  0  0  0
    4.9204   -5.7220    3.0677 C   0  0  0  0  0  0  0  0  0  0  0  0
    5.6045   -6.3544    5.3446 C   0  0  0  0  0  0  0  0  0  0  0  0
    1.5345   -6.1432    6.8413 O   0  0  0  0  0  0  0  0  0  0  0  0
   -0.1054    2.7441    3.3368 C   0  0  0  0  0  0  0  0  0  0  0  0
   -0.9282    1.8759    1.3157 O   0  0  0  0  0  0  0  0  0  0  0  0
   -1.5145   -3.4167    2.9927 O   0  0  0  0  0  0  0  0  0  0  0  0
   -1.6407   -1.5071    4.2289 O   0  0  0  0  0  0  0  0  0  0  0  0
    4.4695    2.0886    4.9266 O   0  0  0  0  0  0  0  0  0  0  0  0
    2.4509    1.0438    5.7289 C   0  0  0  0  0  0  0  0  0  0  0  0
    1.3214   -7.5535    7.0480 C   0  0  1  0  0  0  0  0  0  0  0  0
   -2.0995   -2.0820    5.4715 C   0  0  2  0  0  0  0  0  0  0  0  0
    4.5080    3.4570    5.3618 C   0  0  2  0  0  0  0  0  0  0  0  0
    1.7097    0.2595    6.5340 C   0  0  0  0  0  0  0  0  0  0  0  0
    2.2723   -8.1870    8.1044 C   0  0  1  0  0  0  0  0  0  0  0  0
   -0.0433   -7.5528    7.5179 O   0  0  0  0  0  0  0  0  0  0  0  0
   -3.6291   -2.3340    5.3855 C   0  0  0  0  0  0  0  0  0  0  0  0
   -1.7469   -1.1210    6.6405 C   0  0  2  0  0  0  0  0  0  0  0  0
    3.7373    4.1902    4.3875 O   0  0  0  0  0  0  0  0  0  0  0  0
    6.0072    3.8580    5.3660 C   0  0  1  0  0  0  0  0  0  0  0  0
    0.3615    0.1466    6.4308 C   0  0  0  0  0  0  0  0  0  0  0  0
    1.7952   -9.5886    8.5852 C   0  0  1  0  0  0  0  0  0  0  0  0
   -0.6188   -8.8061    7.9383 C   0  0  2  0  0  0  0  0  0  0  0  0
   -0.3081   -0.9636    6.7884 C   0  0  0  0  0  0  0  0  0  0  0  0
    3.8302    5.6301    4.4778 C   0  0  2  0  0  0  0  0  0  0  0  0
    6.1930    5.3923    5.3680 C   0  0  1  0  0  0  0  0  0  0  0  0
    2.1475  -10.7147    7.5685 C   0  0  0  0  0  0  0  0  0  0  0  0
    2.5391   -9.9187    9.7629 O   0  0  0  0  0  0  0  0  0  0  0  0
    0.2646   -9.5205    9.0165 C   0  0  2  0  0  0  0  0  0  0  0  0
   -1.0923   -9.6548    6.7285 C   0  0  0  0  0  0  0  0  0  0  0  0
    2.8557    6.2130    3.4255 C   0  0  0  0  0  0  0  0  0  0  0  0
    5.3187    6.0688    4.2677 C   0  0  2  0  0  0  0  0  0  0  0  0
    0.0380   -8.7467   10.2735 O   0  0  0  0  0  0  0  0  0  0  0  0
    5.5133    7.5590    4.1522 N   0  0  2  0  0  0  0  0  0  0  0  0
    6.7241    7.9674    3.3782 C   0  0  0  0  0  0  0  0  0  0  0  0
    5.3391    8.3604    5.3984 C   0  0  0  0  0  0  0  0  0  0  0  0
    1.2923   -3.0224    4.6475 H   0  0  0  0  0  0  0  0  0  0  0  0
    1.3921   -8.0804    6.0940 H   0  0  0  0  0  0  0  0  0  0  0  0
    4.0734    3.6074    6.3555 H   0  0  0  0  0  0  0  0  0  0  0  0
    0.2731   -0.2944    0.7042 H   0  0  0  0  0  0  0  0  0  0  0  0
    1.9716   -0.9627    3.8495 H   0  0  0  0  0  0  0  0  0  0  0  0
    2.1654   -1.3463    0.9101 H   0  0  0  0  0  0  0  0  0  0  0  0
    4.2758   -1.0250    1.8842 H   0  0  0  0  0  0  0  0  0  0  0  0
    2.2838   -5.0910    3.0100 H   0  0  0  0  0  0  0  0  0  0  0  0
    2.9712    1.5047    2.9478 H   0  0  0  0  0  0  0  0  0  0  0  0
    2.7509    0.8357    1.3583 H   0  0  0  0  0  0  0  0  0  0  0  0
    5.7072    0.1448    3.5589 H   0  0  0  0  0  0  0  0  0  0  0  0
    5.3554   -1.5410    3.7996 H   0  0  0  0  0  0  0  0  0  0  0  0
    0.7619   -6.3048    3.9686 H   0  0  0  0  0  0  0  0  0  0  0  0
    2.9245   -6.8995    4.6557 H   0  0  0  0  0  0  0  0  0  0  0  0
    1.7558   -3.7968    7.0941 H   0  0  0  0  0  0  0  0  0  0  0  0
    0.7337   -3.0191   -0.4352 H   0  0  0  0  0  0  0  0  0  0  0  0
    0.9137   -4.6052    0.3331 H   0  0  0  0  0  0  0  0  0  0  0  0
    2.3525   -3.6278   -0.0004 H   0  0  0  0  0  0  0  0  0  0  0  0
   -1.9134   -0.6613    1.7133 H   0  0  0  0  0  0  0  0  0  0  0  0
   -1.2244   -2.0784    0.9614 H   0  0  0  0  0  0  0  0  0  0  0  0
    5.1229    1.2314    0.8286 H   0  0  0  0  0  0  0  0  0  0  0  0
    3.9333   -1.0841    5.6893 H   0  0  0  0  0  0  0  0  0  0  0  0
    3.5741   -6.0878    7.0413 H   0  0  0  0  0  0  0  0  0  0  0  0
    4.7520   -3.8562    7.6554 H   0  0  0  0  0  0  0  0  0  0  0  0
    3.5945   -2.6103    8.1480 H   0  0  0  0  0  0  0  0  0  0  0  0
    3.4753   -4.2409    8.8304 H   0  0  0  0  0  0  0  0  0  0  0  0
    5.6868   -0.4587    7.2701 H   0  0  0  0  0  0  0  0  0  0  0  0
    6.6293    0.2822    5.9638 H   0  0  0  0  0  0  0  0  0  0  0  0
    6.3425   -1.4679    5.9878 H   0  0  0  0  0  0  0  0  0  0  0  0
    4.1712    1.3042    6.8197 H   0  0  0  0  0  0  0  0  0  0  0  0
    5.9875   -5.5957    2.8722 H   0  0  0  0  0  0  0  0  0  0  0  0
    4.4347   -4.9379    2.4903 H   0  0  0  0  0  0  0  0  0  0  0  0
    4.6122   -6.6962    2.6809 H   0  0  0  0  0  0  0  0  0  0  0  0
    6.6175   -6.2680    4.9464 H   0  0  0  0  0  0  0  0  0  0  0  0
    5.6627   -5.9467    6.3518 H   0  0  0  0  0  0  0  0  0  0  0  0
    5.3490   -7.4151    5.3983 H   0  0  0  0  0  0  0  0  0  0  0  0
   -0.5065    2.4418    4.3038 H   0  0  0  0  0  0  0  0  0  0  0  0
   -0.6279    3.6481    3.0224 H   0  0  0  0  0  0  0  0  0  0  0  0
    0.9542    2.9825    3.4292 H   0  0  0  0  0  0  0  0  0  0  0  0
    1.9951    1.6169    5.0609 H   0  0  0  0  0  0  0  0  0  0  0  0
   -1.6004   -3.0419    5.6484 H   0  0  0  0  0  0  0  0  0  0  0  0
    2.1775   -0.2896    7.2201 H   0  0  0  0  0  0  0  0  0  0  0  0
    3.2806   -8.2736    7.6922 H   0  0  0  0  0  0  0  0  0  0  0  0
    2.3205   -7.5091    8.9612 H   0  0  0  0  0  0  0  0  0  0  0  0
   -4.1586   -1.3984    5.1930 H   0  0  0  0  0  0  0  0  0  0  0  0
   -3.8528   -3.0309    4.5763 H   0  0  0  0  0  0  0  0  0  0  0  0
   -4.0039   -2.7642    6.3163 H   0  0  0  0  0  0  0  0  0  0  0  0
   -2.1435   -1.5238    7.5777 H   0  0  0  0  0  0  0  0  0  0  0  0
   -2.2373   -0.1581    6.4698 H   0  0  0  0  0  0  0  0  0  0  0  0
    6.4969    3.4268    6.2427 H   0  0  0  0  0  0  0  0  0  0  0  0
    6.4991    3.4538    4.4772 H   0  0  0  0  0  0  0  0  0  0  0  0
   -0.1504    0.9064    6.0489 H   0  0  0  0  0  0  0  0  0  0  0  0
   -1.5517   -8.5278    8.4381 H   0  0  0  0  0  0  0  0  0  0  0  0
    0.1912   -1.7367    7.1692 H   0  0  0  0  0  0  0  0  0  0  0  0
    3.4744    5.9487    5.4631 H   0  0  0  0  0  0  0  0  0  0  0  0
    5.9196    5.7729    6.3551 H   0  0  0  0  0  0  0  0  0  0  0  0
    7.2480    5.6190    5.2002 H   0  0  0  0  0  0  0  0  0  0  0  0
    1.7222  -11.6682    7.8867 H   0  0  0  0  0  0  0  0  0  0  0  0
    3.2313  -10.8352    7.5005 H   0  0  0  0  0  0  0  0  0  0  0  0
    1.7855  -10.4887    6.5694 H   0  0  0  0  0  0  0  0  0  0  0  0
    2.3559   -9.1989   10.4027 H   0  0  0  0  0  0  0  0  0  0  0  0
   -0.0934  -10.5811    9.0925 H   0  0  0  0  0  0  0  0  0  0  0  0
   -1.8872   -9.1222    6.2011 H   0  0  0  0  0  0  0  0  0  0  0  0
   -1.4905  -10.6139    7.0644 H   0  0  0  0  0  0  0  0  0  0  0  0
   -0.2922   -9.8348    6.0167 H   0  0  0  0  0  0  0  0  0  0  0  0
    2.8362    7.3028    3.4830 H   0  0  0  0  0  0  0  0  0  0  0  0
    1.8449    5.8438    3.6151 H   0  0  0  0  0  0  0  0  0  0  0  0
    3.1496    5.9155    2.4167 H   0  0  0  0  0  0  0  0  0  0  0  0
    5.6140    5.6232    3.3101 H   0  0  0  0  0  0  0  0  0  0  0  0
   -0.9179   -8.8413   10.4669 H   0  0  0  0  0  0  0  0  0  0  0  0
    6.7184    9.0432    3.1949 H   0  0  0  0  0  0  0  0  0  0  0  0
    6.7410    7.4768    2.4032 H   0  0  0  0  0  0  0  0  0  0  0  0
    7.6406    7.7121    3.9137 H   0  0  0  0  0  0  0  0  0  0  0  0
    5.2809    9.4225    5.1559 H   0  0  0  0  0  0  0  0  0  0  0  0
    4.4152    8.0947    5.9101 H   0  0  0  0  0  0  0  0  0  0  0  0
    6.1754    8.2108    6.0840 H   0  0  0  0  0  0  0  0  0  0  0  0
  3  1  1  0  0  0  0 
  2  1  1  0  0  0  0 
  4  2  1  0  0  0  0 
  2  5  1  0  0  0  0 
  6  3  1  0  0  0  0 
  3  7  1  0  0  0  0 
  3 63  1  0  0  0  0 
  4  8  1  0  0  0  0 
  9  4  1  0  0  0  0 
  5 10  1  0  0  0  0 
  5 11  1  0  0  0  0 
  6 12  1  0  0  0  0 
 13  6  1  0  0  0  0 
 14  7  1  0  0  0  0 
  8 15  1  0  0  0  0 
  9 16  1  0  0  0  0 
  9 17  1  0  0  0  0 
  9 66  1  0  0  0  0 
 10 18  1  0  0  0  0 
 19 11  1  0  0  0  0 
 13 20  1  0  0  0  0 
 21 13  1  0  0  0  0 
 21 14  1  0  0  0  0 
 14 22  1  0  0  0  0 
 16 23  1  0  0  0  0 
 17 24  1  0  0  0  0 
 18 25  2  0  0  0  0 
 19 26  1  0  0  0  0 
 27 19  1  0  0  0  0 
 20 28  1  0  0  0  0 
 20 29  1  0  0  0  0 
 21 30  1  0  0  0  0 
 23 31  1  0  0  0  0 
 23 32  2  0  0  0  0 
 24 33  2  0  0  0  0 
 24 34  1  0  0  0  0 
 27 35  1  0  0  0  0 
 27 36  1  0  0  0  0 
 37 30  1  0  0  0  0 
 38 34  1  0  0  0  0 
 39 35  1  0  0  0  0 
 36 40  2  0  0  0  0 
 37 41  1  0  0  0  0 
 37 42  1  0  0  0  0 
 37 64  1  0  0  0  0 
 38 43  1  0  0  0  0 
 38 44  1  0  0  0  0 
 39 45  1  0  0  0  0 
 39 46  1  0  0  0  0 
 39 65  1  0  0  0  0 
 40 47  1  0  0  0  0 
 48 41  1  0  0  0  0 
 49 42  1  0  0  0  0 
 44 50  1  0  0  0  0 
 51 45  1  0  0  0  0 
 46 52  1  0  0  0  0 
 47 50  2  0  0  0  0 
 48 53  1  0  0  0  0 
 48 54  1  0  0  0  0 
 55 48  1  0  0  0  0 
 55 49  1  0  0  0  0 
 49 56  1  0  0  0  0 
 51 57  1  0  0  0  0 
 58 51  1  0  0  0  0 
 58 52  1  0  0  0  0 
 55 59  1  0  0  0  0 
 58 60  1  0  0  0  0 
 60 61  1  0  0  0  0 
 60 62  1  0  0  0  0 
  2 67  1  0  0  0  0 
  4 68  1  0  0  0  0 
  5 69  1  0  0  0  0 
  6 70  1  0  0  0  0 
 10 71  1  0  0  0  0 
 10 72  1  0  0  0  0 
 11 73  1  0  0  0  0 
 11 74  1  0  0  0  0 
 12 75  1  0  0  0  0 
 13 76  1  0  0  0  0 
 14 77  1  0  0  0  0 
 15 78  1  0  0  0  0 
 15 79  1  0  0  0  0 
 15 80  1  0  0  0  0 
 17 81  1  0  0  0  0 
 17 82  1  0  0  0  0 
 18 83  1  0  0  0  0 
 19 84  1  0  0  0  0 
 21 85  1  0  0  0  0 
 22 86  1  0  0  0  0 
 22 87  1  0  0  0  0 
 22 88  1  0  0  0  0 
 26 89  1  0  0  0  0 
 26 90  1  0  0  0  0 
 26 91  1  0  0  0  0 
 27 92  1  0  0  0  0 
 28 93  1  0  0  0  0 
 28 94  1  0  0  0  0 
 28 95  1  0  0  0  0 
 29 96  1  0  0  0  0 
 29 97  1  0  0  0  0 
 29 98  1  0  0  0  0 
 31 99  1  0  0  0  0 
 31100  1  0  0  0  0 
 31101  1  0  0  0  0 
 36102  1  0  0  0  0 
 38103  1  0  0  0  0 
 40104  1  0  0  0  0 
 41105  1  0  0  0  0 
 41106  1  0  0  0  0 
 43107  1  0  0  0  0 
 43108  1  0  0  0  0 
 43109  1  0  0  0  0 
 44110  1  0  0  0  0 
 44111  1  0  0  0  0 
 46112  1  0  0  0  0 
 46113  1  0  0  0  0 
 47114  1  0  0  0  0 
 49115  1  0  0  0  0 
 50116  1  0  0  0  0 
 51117  1  0  0  0  0 
 52118  1  0  0  0  0 
 52119  1  0  0  0  0 
 53120  1  0  0  0  0 
 53121  1  0  0  0  0 
 53122  1  0  0  0  0 
 54123  1  0  0  0  0 
 55124  1  0  0  0  0 
 56125  1  0  0  0  0 
 56126  1  0  0  0  0 
 56127  1  0  0  0  0 
 57128  1  0  0  0  0 
 57129  1  0  0  0  0 
 57130  1  0  0  0  0 
 58131  1  0  0  0  0 
 59132  1  0  0  0  0 
 61133  1  0  0  0  0 
 61134  1  0  0  0  0 
 61135  1  0  0  0  0 
 62136  1  0  0  0  0 
 62137  1  0  0  0  0 
 62138  1  0  0  0  0 
M  END
> <cdk:Title>
Spiramycin II

> <Conformer>
1

> <SuperDrugID>
SD002220

$$$$
