tropesin
  CDK     0628171801

 60 63  0  0  0  0  0  0  0  0999 V2000
    1.1770   -0.7066    0.2441 C   0  0  0  0  0  0  0  0  0  0  0  0
    0.0221   -0.9988    0.6356 O   0  0  0  0  0  0  0  0  0  0  0  0
    1.5411    0.6177    0.0555 N   0  0  0  0  0  0  0  0  0  0  0  0
    1.9904   -1.8211   -0.0537 C   0  0  0  0  0  0  0  0  0  0  0  0
    2.7906    1.1501    0.1357 C   0  0  0  0  0  0  0  0  0  0  0  0
    0.6843    1.6383   -0.2505 C   0  0  0  0  0  0  0  0  0  0  0  0
    2.1226   -2.8937    0.8590 C   0  0  0  0  0  0  0  0  0  0  0  0
    2.6231   -1.9071   -1.3152 C   0  0  0  0  0  0  0  0  0  0  0  0
    2.7219    2.5248   -0.1133 C   0  0  0  0  0  0  0  0  0  0  0  0
    4.0396    0.5690    0.4559 C   0  0  0  0  0  0  0  0  0  0  0  0
   -0.7674    1.4775   -0.5134 C   0  0  0  0  0  0  0  0  0  0  0  0
    1.3896    2.8502   -0.3541 C   0  0  0  0  0  0  0  0  0  0  0  0
    2.8676   -4.0352    0.5137 C   0  0  0  0  0  0  0  0  0  0  0  0
    3.3634   -3.0516   -1.6604 C   0  0  0  0  0  0  0  0  0  0  0  0
    3.8698    3.3424   -0.0780 C   0  0  0  0  0  0  0  0  0  0  0  0
    5.1971    1.3732    0.4934 C   0  0  0  0  0  0  0  0  0  0  0  0
    0.8455    4.2007   -0.6558 C   0  0  1  0  0  0  0  0  0  0  0  0
    3.4909   -4.1168   -0.7466 C   0  0  0  0  0  0  0  0  0  0  0  0
    5.1186    2.7574    0.2209 C   0  0  0  0  0  0  0  0  0  0  0  0
    0.1417    4.7700    0.5105 C   0  0  0  0  0  0  0  0  0  0  0  0
    4.3815   -5.4950   -1.1633 Cl  0  0  0  0  0  0  0  0  0  0  0  0
    6.2383    3.5458    0.2796 O   0  0  0  0  0  0  0  0  0  0  0  0
   -1.1967    4.5448    0.6969 O   0  0  0  0  0  0  0  0  0  0  0  0
    0.7878    5.4872    1.3109 O   0  0  0  0  0  0  0  0  0  0  0  0
    6.9208    3.6484   -0.9831 C   0  0  0  0  0  0  0  0  0  0  0  0
   -1.9967    5.1086    1.7510 C   0  0  1  0  0  0  0  0  0  0  0  0
   -3.5195    4.7969    1.6502 C   0  0  2  0  0  0  0  0  0  0  0  0
   -3.8592    3.4204    2.0959 C   0  0  0  0  0  0  0  0  0  0  0  0
   -4.0766    5.1355    0.2969 C   0  0  0  0  0  0  0  0  0  0  0  0
   -3.2545    2.3324    1.5709 O   0  0  0  0  0  0  0  0  0  0  0  0
   -4.7145    3.2250    2.9897 O   0  0  0  0  0  0  0  0  0  0  0  0
   -4.8275    6.3240    0.1116 C   0  0  0  0  0  0  0  0  0  0  0  0
   -3.8529    4.3178   -0.8412 C   0  0  0  0  0  0  0  0  0  0  0  0
   -5.2939    6.7017   -1.1607 C   0  0  0  0  0  0  0  0  0  0  0  0
   -4.3340    4.6815   -2.1123 C   0  0  0  0  0  0  0  0  0  0  0  0
   -5.0422    5.8832   -2.2744 C   0  0  0  0  0  0  0  0  0  0  0  0
    1.6726   -2.8567    1.7778 H   0  0  0  0  0  0  0  0  0  0  0  0
    2.5333   -1.1501   -2.0006 H   0  0  0  0  0  0  0  0  0  0  0  0
    4.1266   -0.4213    0.6755 H   0  0  0  0  0  0  0  0  0  0  0  0
   -1.2650    1.1474    0.3963 H   0  0  0  0  0  0  0  0  0  0  0  0
   -0.9170    0.7321   -1.2966 H   0  0  0  0  0  0  0  0  0  0  0  0
   -1.2385    2.3967   -0.8452 H   0  0  0  0  0  0  0  0  0  0  0  0
    2.9460   -4.8038    1.1833 H   0  0  0  0  0  0  0  0  0  0  0  0
    3.7990   -3.1048   -2.5837 H   0  0  0  0  0  0  0  0  0  0  0  0
    3.8111    4.3444   -0.2627 H   0  0  0  0  0  0  0  0  0  0  0  0
    6.1004    0.9521    0.7279 H   0  0  0  0  0  0  0  0  0  0  0  0
    1.6462    4.8830   -0.9496 H   0  0  0  0  0  0  0  0  0  0  0  0
    0.1730    4.1498   -1.5135 H   0  0  0  0  0  0  0  0  0  0  0  0
    7.7403    4.3582   -0.8644 H   0  0  0  0  0  0  0  0  0  0  0  0
    7.3433    2.6850   -1.2805 H   0  0  0  0  0  0  0  0  0  0  0  0
    6.2626    4.0213   -1.7739 H   0  0  0  0  0  0  0  0  0  0  0  0
   -1.6157    4.7602    2.7140 H   0  0  0  0  0  0  0  0  0  0  0  0
   -1.8719    6.1940    1.7200 H   0  0  0  0  0  0  0  0  0  0  0  0
   -3.9833    5.4658    2.3853 H   0  0  0  0  0  0  0  0  0  0  0  0
   -3.4931    1.4371    1.8870 H   0  0  0  0  0  0  0  0  0  0  0  0
   -5.0339    6.9336    0.9056 H   0  0  0  0  0  0  0  0  0  0  0  0
   -3.3392    3.4427   -0.7559 H   0  0  0  0  0  0  0  0  0  0  0  0
   -5.8109    7.5749   -1.2767 H   0  0  0  0  0  0  0  0  0  0  0  0
   -4.1679    4.0751   -2.9185 H   0  0  0  0  0  0  0  0  0  0  0  0
   -5.3748    6.1581   -3.2011 H   0  0  0  0  0  0  0  0  0  0  0  0
  1  2  2  0  0  0  0 
  1  3  1  0  0  0  0 
  1  4  1  0  0  0  0 
  3  5  1  0  0  0  0 
  3  6  1  0  0  0  0 
  4  7  2  0  0  0  0 
  4  8  1  0  0  0  0 
  5  9  1  0  0  0  0 
  5 10  2  0  0  0  0 
  6 11  1  0  0  0  0 
  6 12  2  0  0  0  0 
  7 13  1  0  0  0  0 
  8 14  2  0  0  0  0 
  9 12  1  0  0  0  0 
  9 15  2  0  0  0  0 
 10 16  1  0  0  0  0 
 12 17  1  0  0  0  0 
 13 18  2  0  0  0  0 
 14 18  1  0  0  0  0 
 15 19  1  0  0  0  0 
 16 19  2  0  0  0  0 
 17 20  1  0  0  0  0 
 18 21  1  0  0  0  0 
 19 22  1  0  0  0  0 
 20 23  1  0  0  0  0 
 20 24  2  0  0  0  0 
 22 25  1  0  0  0  0 
 23 26  1  0  0  0  0 
 26 27  1  0  0  0  0 
 27 28  1  0  0  0  0 
 27 29  1  0  0  0  0 
 28 30  1  0  0  0  0 
 28 31  2  0  0  0  0 
 29 32  2  0  0  0  0 
 29 33  1  0  0  0  0 
 32 34  1  0  0  0  0 
 33 35  2  0  0  0  0 
 34 36  2  0  0  0  0 
 35 36  1  0  0  0  0 
  7 37  1  0  0  0  0 
  8 38  1  0  0  0  0 
 10 39  1  0  0  0  0 
 11 40  1  0  0  0  0 
 11 41  1  0  0  0  0 
 11 42  1  0  0  0  0 
 13 43  1  0  0  0  0 
 14 44  1  0  0  0  0 
 15 45  1  0  0  0  0 
 16 46  1  0  0  0  0 
 17 47  1  0  0  0  0 
 17 48  1  0  0  0  0 
 25 49  1  0  0  0  0 
 25 50  1  0  0  0  0 
 25 51  1  0  0  0  0 
 26 52  1  0  0  0  0 
 26 53  1  0  0  0  0 
 27 54  1  0  0  0  0 
 30 55  1  0  0  0  0 
 32 56  1  0  0  0  0 
 33 57  1  0  0  0  0 
 34 58  1  0  0  0  0 
 35 59  1  0  0  0  0 
 36 60  1  0  0  0  0 
M  END
> <cdk:Title>
tropesin

> <Conformer>
1

> <SuperDrugID>
SD002502

$$$$
