flumedroxone acetate
  CDK     0628171801

 62 65  0  0  0  0  0  0  0  0999 V2000
   -1.7571   -1.3142    0.3771 C   0  0  0  0  0  0  0  0  0  0  0  0
   -3.1586   -1.4368    1.0968 C   0  0  2  0  0  0  0  0  0  0  0  0
   -3.4000   -2.8063    1.8205 C   0  0  2  0  0  0  0  0  0  0  0  0
   -4.3269   -1.4765    0.0315 C   0  0  1  0  0  0  0  0  0  0  0  0
   -3.2593   -0.3293    2.2060 C   0  0  2  0  0  0  0  0  0  0  0  0
   -2.3580   -3.1296    2.9423 C   0  0  1  0  0  0  0  0  0  0  0  0
   -3.5968   -3.8084    0.6677 C   0  0  1  0  0  0  0  0  0  0  0  0
   -5.5761   -1.2405    0.7266 O   0  0  0  0  0  0  0  0  0  0  0  0
   -4.2168   -0.4573   -1.0722 C   0  0  0  0  0  0  0  0  0  0  0  0
   -4.3020   -2.9801   -0.4343 C   0  0  1  0  0  0  0  0  0  0  0  0
   -2.2755   -0.5696    3.3902 C   0  0  2  0  0  0  0  0  0  0  0  0
   -2.3878   -2.0012    4.0343 C   0  0  2  0  0  0  0  0  0  0  0  0
   -2.6300   -4.5003    3.6234 C   0  0  1  0  0  0  0  0  0  0  0  0
   -6.8640   -1.2235    0.2725 C   0  0  0  0  0  0  0  0  0  0  0  0
   -4.3690    0.9970   -0.8422 C   0  0  0  0  0  0  0  0  0  0  0  0
   -3.9979   -0.8124   -2.2541 O   0  0  0  0  0  0  0  0  0  0  0  0
   -1.4135   -2.2822    5.2653 C   0  0  2  0  0  0  0  0  0  0  0  0
   -1.6043   -4.8054    4.7600 C   0  0  1  0  0  0  0  0  0  0  0  0
   -7.9329   -0.9028    1.2240 C   0  0  0  0  0  0  0  0  0  0  0  0
   -7.1454   -1.4425   -0.9290 O   0  0  0  0  0  0  0  0  0  0  0  0
    0.0995   -2.0850    4.8821 C   0  0  0  0  0  0  0  0  0  0  0  0
   -1.5791   -3.6955    5.7656 C   0  0  0  0  0  0  0  0  0  0  0  0
   -1.7820   -1.2299    6.3931 C   0  0  1  0  0  0  0  0  0  0  0  0
   -1.7682   -6.2931    5.2468 C   0  0  2  0  0  0  0  0  0  0  0  0
   -1.6447   -3.9480    7.0985 C   0  0  0  0  0  0  0  0  0  0  0  0
   -1.2071   -1.5837    7.7804 C   0  0  1  0  0  0  0  0  0  0  0  0
   -2.9819   -6.4996    5.8603 F   0  0  0  0  0  0  0  0  0  0  0  0
   -0.7596   -6.6675    6.1053 F   0  0  0  0  0  0  0  0  0  0  0  0
   -1.6852   -7.1910    4.2072 F   0  0  0  0  0  0  0  0  0  0  0  0
   -1.5010   -2.9924    8.0943 C   0  0  0  0  0  0  0  0  0  0  0  0
   -1.5729   -3.3296    9.3008 O   0  0  0  0  0  0  0  0  0  0  0  0
   -1.6306   -0.3140   -0.0404 H   0  0  0  0  0  0  0  0  0  0  0  0
   -1.6543   -2.0280   -0.4396 H   0  0  0  0  0  0  0  0  0  0  0  0
   -0.9225   -1.4798    1.0535 H   0  0  0  0  0  0  0  0  0  0  0  0
   -4.3713   -2.7722    2.3363 H   0  0  0  0  0  0  0  0  0  0  0  0
   -4.2690   -0.2979    2.6244 H   0  0  0  0  0  0  0  0  0  0  0  0
   -3.0640    0.6575    1.7801 H   0  0  0  0  0  0  0  0  0  0  0  0
   -1.3690   -3.1873    2.4873 H   0  0  0  0  0  0  0  0  0  0  0  0
   -2.6312   -4.1836    0.3165 H   0  0  0  0  0  0  0  0  0  0  0  0
   -4.2119   -4.6577    0.9790 H   0  0  0  0  0  0  0  0  0  0  0  0
   -5.3107   -3.3649   -0.5953 H   0  0  0  0  0  0  0  0  0  0  0  0
   -3.7554   -3.1160   -1.3700 H   0  0  0  0  0  0  0  0  0  0  0  0
   -2.4995    0.1925    4.1373 H   0  0  0  0  0  0  0  0  0  0  0  0
   -1.2572   -0.3848    3.0514 H   0  0  0  0  0  0  0  0  0  0  0  0
   -3.4056   -2.0373    4.4414 H   0  0  0  0  0  0  0  0  0  0  0  0
   -3.6448   -4.5236    4.0324 H   0  0  0  0  0  0  0  0  0  0  0  0
   -2.5641   -5.2730    2.8527 H   0  0  0  0  0  0  0  0  0  0  0  0
   -5.0374    1.1983   -0.0041 H   0  0  0  0  0  0  0  0  0  0  0  0
   -4.7868    1.4821   -1.7267 H   0  0  0  0  0  0  0  0  0  0  0  0
   -3.3959    1.4439   -0.6381 H   0  0  0  0  0  0  0  0  0  0  0  0
   -0.6187   -4.7984    4.2883 H   0  0  0  0  0  0  0  0  0  0  0  0
   -8.7927   -1.5498    1.0510 H   0  0  0  0  0  0  0  0  0  0  0  0
   -7.5883   -1.0362    2.2533 H   0  0  0  0  0  0  0  0  0  0  0  0
   -8.2373    0.1336    1.0837 H   0  0  0  0  0  0  0  0  0  0  0  0
    0.7578   -2.4339    5.6814 H   0  0  0  0  0  0  0  0  0  0  0  0
    0.3672   -2.6320    3.9779 H   0  0  0  0  0  0  0  0  0  0  0  0
    0.3342   -1.0334    4.7081 H   0  0  0  0  0  0  0  0  0  0  0  0
   -1.4371   -0.2252    6.1348 H   0  0  0  0  0  0  0  0  0  0  0  0
   -2.8705   -1.1727    6.5103 H   0  0  0  0  0  0  0  0  0  0  0  0
   -1.7795   -4.8717    7.4250 H   0  0  0  0  0  0  0  0  0  0  0  0
   -0.1258   -1.4256    7.7982 H   0  0  0  0  0  0  0  0  0  0  0  0
   -1.6557   -0.9240    8.5297 H   0  0  0  0  0  0  0  0  0  0  0  0
  2  1  1  0  0  0  0 
  2  3  1  0  0  0  0 
  2  4  1  0  0  0  0 
  2  5  1  0  0  0  0 
  3  6  1  0  0  0  0 
  3  7  1  0  0  0  0 
  4  8  1  0  0  0  0 
  4  9  1  0  0  0  0 
  4 10  1  0  0  0  0 
  5 11  1  0  0  0  0 
  6 12  1  0  0  0  0 
  6 13  1  0  0  0  0 
  7 10  1  0  0  0  0 
  8 14  1  0  0  0  0 
  9 15  1  0  0  0  0 
  9 16  2  0  0  0  0 
 12 11  1  0  0  0  0 
 12 17  1  0  0  0  0 
 18 13  1  0  0  0  0 
 14 19  1  0  0  0  0 
 14 20  2  0  0  0  0 
 17 21  1  0  0  0  0 
 17 22  1  0  0  0  0 
 17 23  1  0  0  0  0 
 18 22  1  0  0  0  0 
 18 24  1  0  0  0  0 
 22 25  2  0  0  0  0 
 23 26  1  0  0  0  0 
 24 27  1  0  0  0  0 
 24 28  1  0  0  0  0 
 24 29  1  0  0  0  0 
 25 30  1  0  0  0  0 
 26 30  1  0  0  0  0 
 30 31  2  0  0  0  0 
 32  1  1  0  0  0  0 
 33  1  1  0  0  0  0 
 34  1  1  0  0  0  0 
  3 35  1  0  0  0  0 
 36  5  1  0  0  0  0 
 37  5  1  0  0  0  0 
  6 38  1  0  0  0  0 
 39  7  1  0  0  0  0 
 40  7  1  0  0  0  0 
 41 10  1  0  0  0  0 
 42 10  1  0  0  0  0 
 43 11  1  0  0  0  0 
 44 11  1  0  0  0  0 
 12 45  1  0  0  0  0 
 46 13  1  0  0  0  0 
 47 13  1  0  0  0  0 
 48 15  1  0  0  0  0 
 49 15  1  0  0  0  0 
 50 15  1  0  0  0  0 
 18 51  1  0  0  0  0 
 52 19  1  0  0  0  0 
 53 19  1  0  0  0  0 
 54 19  1  0  0  0  0 
 55 21  1  0  0  0  0 
 56 21  1  0  0  0  0 
 57 21  1  0  0  0  0 
 58 23  1  0  0  0  0 
 59 23  1  0  0  0  0 
 60 25  1  0  0  0  0 
 61 26  1  0  0  0  0 
 62 26  1  0  0  0  0 
M  END
> <cdk:Title>
flumedroxone acetate

> <Conformer>
1

> <SuperDrugID>
SD003205

$$$$
