clofoctol
  CDK     0628171801

 50 51  0  0  0  0  0  0  0  0999 V2000
   -1.4052   -0.5903    3.7059 C   0  0  2  0  0  0  0  0  0  0  0  0
   -0.1084   -0.2000    4.3359 C   0  0  0  0  0  0  0  0  0  0  0  0
   -1.1669   -1.2309    2.3766 C   0  0  0  0  0  0  0  0  0  0  0  0
    0.4376    1.0905    4.1163 C   0  0  0  0  0  0  0  0  0  0  0  0
    0.6220   -1.1069    5.1403 C   0  0  0  0  0  0  0  0  0  0  0  0
   -1.1767   -0.5089    1.1502 C   0  0  0  0  0  0  0  0  0  0  0  0
   -0.8865   -2.6207    2.3280 C   0  0  0  0  0  0  0  0  0  0  0  0
    1.7046    1.4980    4.6227 C   0  0  0  0  0  0  0  0  0  0  0  0
    0.1440   -2.3320    5.4825 O   0  0  0  0  0  0  0  0  0  0  0  0
    1.8944   -0.7545    5.6154 C   0  0  0  0  0  0  0  0  0  0  0  0
   -1.5121    1.1527    1.0525 Cl  0  0  0  0  0  0  0  0  0  0  0  0
   -0.8892   -1.1656   -0.0653 C   0  0  0  0  0  0  0  0  0  0  0  0
   -0.5994   -3.2692    1.1153 C   0  0  0  0  0  0  0  0  0  0  0  0
    2.2238    2.9114    4.3822 C   0  0  2  0  0  0  0  0  0  0  0  0
    2.4293    0.5157    5.3488 C   0  0  0  0  0  0  0  0  0  0  0  0
   -0.5983   -2.5408   -0.0862 C   0  0  0  0  0  0  0  0  0  0  0  0
    1.2516    4.0351    4.9525 C   0  0  1  0  0  0  0  0  0  0  0  0
   -0.2574   -3.3161   -1.5509 Cl  0  0  0  0  0  0  0  0  0  0  0  0
    0.7483    4.1301    6.4564 C   0  0  1  0  0  0  0  0  0  0  0  0
   -0.2263    5.3615    6.5421 C   0  0  0  0  0  0  0  0  0  0  0  0
   -0.0660    2.8785    6.9148 C   0  0  0  0  0  0  0  0  0  0  0  0
    1.8948    4.3890    7.4870 C   0  0  0  0  0  0  0  0  0  0  0  0
    2.3270    3.1205    2.8235 C   0  0  0  0  0  0  0  0  0  0  0  0
    3.6945    3.1593    4.8867 C   0  0  0  0  0  0  0  0  0  0  0  0
   -2.0603    0.2791    3.6151 H   0  0  0  0  0  0  0  0  0  0  0  0
   -1.9567   -1.2786    4.3511 H   0  0  0  0  0  0  0  0  0  0  0  0
   -0.1118    1.7557    3.5691 H   0  0  0  0  0  0  0  0  0  0  0  0
   -0.8847   -3.1796    3.1841 H   0  0  0  0  0  0  0  0  0  0  0  0
   -0.7369   -2.1615    5.8834 H   0  0  0  0  0  0  0  0  0  0  0  0
    2.4365   -1.4272    6.1631 H   0  0  0  0  0  0  0  0  0  0  0  0
   -0.8867   -0.6407   -0.9437 H   0  0  0  0  0  0  0  0  0  0  0  0
   -0.3889   -4.2708    1.1150 H   0  0  0  0  0  0  0  0  0  0  0  0
    3.3633    0.7046    5.7104 H   0  0  0  0  0  0  0  0  0  0  0  0
    1.7212    4.9984    4.7242 H   0  0  0  0  0  0  0  0  0  0  0  0
    0.3468    4.0130    4.3379 H   0  0  0  0  0  0  0  0  0  0  0  0
   -1.0782    5.2349    5.8694 H   0  0  0  0  0  0  0  0  0  0  0  0
   -0.6224    5.4853    7.5532 H   0  0  0  0  0  0  0  0  0  0  0  0
    0.2845    6.2885    6.2691 H   0  0  0  0  0  0  0  0  0  0  0  0
   -0.8568    2.6496    6.1988 H   0  0  0  0  0  0  0  0  0  0  0  0
   -0.5313    3.0502    7.8874 H   0  0  0  0  0  0  0  0  0  0  0  0
    0.5727    2.0063    7.0240 H   0  0  0  0  0  0  0  0  0  0  0  0
    2.5675    5.1730    7.1339 H   0  0  0  0  0  0  0  0  0  0  0  0
    1.4935    4.7002    8.4544 H   0  0  0  0  0  0  0  0  0  0  0  0
    2.4716    3.4859    7.6727 H   0  0  0  0  0  0  0  0  0  0  0  0
    2.7910    4.0795    2.5803 H   0  0  0  0  0  0  0  0  0  0  0  0
    1.3489    3.1167    2.3416 H   0  0  0  0  0  0  0  0  0  0  0  0
    2.9273    2.3328    2.3641 H   0  0  0  0  0  0  0  0  0  0  0  0
    4.0173    4.1834    4.6825 H   0  0  0  0  0  0  0  0  0  0  0  0
    3.7954    2.9951    5.9541 H   0  0  0  0  0  0  0  0  0  0  0  0
    4.3982    2.4851    4.3893 H   0  0  0  0  0  0  0  0  0  0  0  0
  1  2  1  0  0  0  0 
  1  3  1  0  0  0  0 
  2  4  2  0  0  0  0 
  2  5  1  0  0  0  0 
  3  6  2  0  0  0  0 
  3  7  1  0  0  0  0 
  4  8  1  0  0  0  0 
  5  9  1  0  0  0  0 
  5 10  2  0  0  0  0 
  6 11  1  0  0  0  0 
  6 12  1  0  0  0  0 
  7 13  2  0  0  0  0 
  8 14  1  0  0  0  0 
  8 15  2  0  0  0  0 
 10 15  1  0  0  0  0 
 12 16  2  0  0  0  0 
 13 16  1  0  0  0  0 
 14 17  1  0  0  0  0 
 16 18  1  0  0  0  0 
 17 19  1  0  0  0  0 
 19 20  1  0  0  0  0 
 19 21  1  0  0  0  0 
 19 22  1  0  0  0  0 
 14 23  1  0  0  0  0 
 14 24  1  0  0  0  0 
  1 25  1  0  0  0  0 
  1 26  1  0  0  0  0 
  4 27  1  0  0  0  0 
  7 28  1  0  0  0  0 
  9 29  1  0  0  0  0 
 10 30  1  0  0  0  0 
 12 31  1  0  0  0  0 
 13 32  1  0  0  0  0 
 15 33  1  0  0  0  0 
 17 34  1  0  0  0  0 
 17 35  1  0  0  0  0 
 20 36  1  0  0  0  0 
 20 37  1  0  0  0  0 
 20 38  1  0  0  0  0 
 21 39  1  0  0  0  0 
 21 40  1  0  0  0  0 
 21 41  1  0  0  0  0 
 22 42  1  0  0  0  0 
 22 43  1  0  0  0  0 
 22 44  1  0  0  0  0 
 23 45  1  0  0  0  0 
 23 46  1  0  0  0  0 
 23 47  1  0  0  0  0 
 24 48  1  0  0  0  0 
 24 49  1  0  0  0  0 
 24 50  1  0  0  0  0 
M  END
> <cdk:Title>
clofoctol

> <Conformer>
1

> <SuperDrugID>
SD002696

$$$$
