cyclandelate
  CDK     0628171802

 44 45  0  0  0  0  0  0  0  0999 V2000
    4.3544   -0.7379   -2.0839 O   0  0  0  0  0  0  0  0  0  0  0  0
    5.4552   -1.2546   -2.7163 C   0  0  0  0  0  0  0  0  0  0  0  0
    3.3985   -1.4245   -1.2513 C   0  0  2  0  0  0  0  0  0  0  0  0
    6.2580   -0.4132   -3.6319 C   0  0  1  0  0  0  0  0  0  0  0  0
    5.8029   -2.4455   -2.5320 O   0  0  0  0  0  0  0  0  0  0  0  0
    1.9624   -1.0859   -1.7453 C   0  0  1  0  0  0  0  0  0  0  0  0
    3.5811   -0.9654    0.2186 C   0  0  2  0  0  0  0  0  0  0  0  0
    5.6023    0.8291   -3.8906 O   0  0  0  0  0  0  0  0  0  0  0  0
    7.6315   -0.1615   -3.1059 C   0  0  0  0  0  0  0  0  0  0  0  0
    0.8156   -1.6851   -0.8541 C   0  0  2  0  0  0  0  0  0  0  0  0
    2.5182   -1.5951    1.1680 C   0  0  2  0  0  0  0  0  0  0  0  0
    8.7706   -0.7595   -3.6999 C   0  0  0  0  0  0  0  0  0  0  0  0
    7.8259    0.6980   -1.9970 C   0  0  0  0  0  0  0  0  0  0  0  0
    1.0689   -1.3133    0.6543 C   0  0  2  0  0  0  0  0  0  0  0  0
    2.7145   -1.1051    2.6300 C   0  0  0  0  0  0  0  0  0  0  0  0
   10.0624   -0.5070   -3.1960 C   0  0  0  0  0  0  0  0  0  0  0  0
    9.1162    0.9548   -1.4988 C   0  0  0  0  0  0  0  0  0  0  0  0
   10.2353    0.3470   -2.0932 C   0  0  0  0  0  0  0  0  0  0  0  0
    0.7114   -3.2367   -1.0476 C   0  0  0  0  0  0  0  0  0  0  0  0
   -0.5497   -1.0664   -1.3120 C   0  0  0  0  0  0  0  0  0  0  0  0
    3.5565   -2.5078   -1.3112 H   0  0  0  0  0  0  0  0  0  0  0  0
    6.3002   -0.9314   -4.5939 H   0  0  0  0  0  0  0  0  0  0  0  0
    1.8643    0.0044   -1.7739 H   0  0  0  0  0  0  0  0  0  0  0  0
    1.8492   -1.4347   -2.7752 H   0  0  0  0  0  0  0  0  0  0  0  0
    3.5198    0.1267    0.2667 H   0  0  0  0  0  0  0  0  0  0  0  0
    4.5812   -1.2583    0.5485 H   0  0  0  0  0  0  0  0  0  0  0  0
    6.1700    1.2826   -4.5493 H   0  0  0  0  0  0  0  0  0  0  0  0
    2.6757   -2.6774    1.1798 H   0  0  0  0  0  0  0  0  0  0  0  0
    8.6682   -1.3840   -4.5041 H   0  0  0  0  0  0  0  0  0  0  0  0
    7.0283    1.1506   -1.5458 H   0  0  0  0  0  0  0  0  0  0  0  0
    0.3592   -1.8576    1.2859 H   0  0  0  0  0  0  0  0  0  0  0  0
    0.8694   -0.2460    0.7943 H   0  0  0  0  0  0  0  0  0  0  0  0
    2.5766   -0.0234    2.7012 H   0  0  0  0  0  0  0  0  0  0  0  0
    1.9952   -1.5928    3.2912 H   0  0  0  0  0  0  0  0  0  0  0  0
    3.7193   -1.3522    2.9810 H   0  0  0  0  0  0  0  0  0  0  0  0
   10.8770   -0.9441   -3.6313 H   0  0  0  0  0  0  0  0  0  0  0  0
    9.2391    1.5831   -0.7021 H   0  0  0  0  0  0  0  0  0  0  0  0
   11.1733    0.5233   -1.7231 H   0  0  0  0  0  0  0  0  0  0  0  0
    1.6052   -3.7479   -0.6928 H   0  0  0  0  0  0  0  0  0  0  0  0
    0.5810   -3.4854   -2.1040 H   0  0  0  0  0  0  0  0  0  0  0  0
   -0.1416   -3.6430   -0.4985 H   0  0  0  0  0  0  0  0  0  0  0  0
   -0.5380    0.0218   -1.2177 H   0  0  0  0  0  0  0  0  0  0  0  0
   -0.7568   -1.3089   -2.3569 H   0  0  0  0  0  0  0  0  0  0  0  0
   -1.3752   -1.4454   -0.7047 H   0  0  0  0  0  0  0  0  0  0  0  0
  1  2  1  0  0  0  0 
  1  3  1  0  0  0  0 
  2  4  1  0  0  0  0 
  2  5  2  0  0  0  0 
  3  6  1  0  0  0  0 
  3  7  1  0  0  0  0 
  4  8  1  0  0  0  0 
  4  9  1  0  0  0  0 
  6 10  1  0  0  0  0 
  7 11  1  0  0  0  0 
  9 12  2  0  0  0  0 
  9 13  1  0  0  0  0 
 10 14  1  0  0  0  0 
 11 14  1  0  0  0  0 
 11 15  1  0  0  0  0 
 12 16  1  0  0  0  0 
 13 17  2  0  0  0  0 
 16 18  2  0  0  0  0 
 17 18  1  0  0  0  0 
 10 19  1  0  0  0  0 
 10 20  1  0  0  0  0 
  3 21  1  0  0  0  0 
  4 22  1  0  0  0  0 
  6 23  1  0  0  0  0 
  6 24  1  0  0  0  0 
  7 25  1  0  0  0  0 
  7 26  1  0  0  0  0 
  8 27  1  0  0  0  0 
 11 28  1  0  0  0  0 
 12 29  1  0  0  0  0 
 13 30  1  0  0  0  0 
 14 31  1  0  0  0  0 
 14 32  1  0  0  0  0 
 15 33  1  0  0  0  0 
 15 34  1  0  0  0  0 
 15 35  1  0  0  0  0 
 16 36  1  0  0  0  0 
 17 37  1  0  0  0  0 
 18 38  1  0  0  0  0 
 19 39  1  0  0  0  0 
 19 40  1  0  0  0  0 
 19 41  1  0  0  0  0 
 20 42  1  0  0  0  0 
 20 43  1  0  0  0  0 
 20 44  1  0  0  0  0 
M  END
> <cdk:Title>
cyclandelate

> <Conformer>
1

> <SuperDrugID>
SD000657

$$$$
