carfimate
  CDK     0628171801

 22 22  0  0  0  0  0  0  0  0999 V2000
    2.6532    1.5377    2.0409 N   0  0  0  0  0  0  0  0  0  0  0  0
    2.7890    2.8591    1.8632 C   0  0  0  0  0  0  0  0  0  0  0  0
    3.5981    3.4870    2.5826 O   0  0  0  0  0  0  0  0  0  0  0  0
    2.0251    3.4670    0.9089 O   0  0  0  0  0  0  0  0  0  0  0  0
    1.9665    4.8661    0.5915 C   0  0  2  0  0  0  0  0  0  0  0  0
    0.9674    5.0358   -0.3332 C   0  0  0  0  0  0  0  0  0  0  0  0
    0.1076    5.1680   -1.1530 C   0  0  0  0  0  0  0  0  0  0  0  0
    3.2748    5.3741    0.0760 C   0  0  0  0  0  0  0  0  0  0  0  0
    3.8574    4.8234   -1.0940 C   0  0  0  0  0  0  0  0  0  0  0  0
    5.0965    5.2889   -1.5714 C   0  0  0  0  0  0  0  0  0  0  0  0
    5.7835    6.2991   -0.8770 C   0  0  0  0  0  0  0  0  0  0  0  0
    5.2230    6.8557    0.2862 C   0  0  0  0  0  0  0  0  0  0  0  0
    3.9754    6.4013    0.7560 C   0  0  0  0  0  0  0  0  0  0  0  0
    3.1742    1.0815    2.7203 H   0  0  0  0  0  0  0  0  0  0  0  0
    2.0297    1.0373    1.4914 H   0  0  0  0  0  0  0  0  0  0  0  0
    1.6552    5.3987    1.4938 H   0  0  0  0  0  0  0  0  0  0  0  0
   -0.5514    5.2667   -1.7909 H   0  0  0  0  0  0  0  0  0  0  0  0
    3.3805    4.0772   -1.6065 H   0  0  0  0  0  0  0  0  0  0  0  0
    5.4996    4.8888   -2.4210 H   0  0  0  0  0  0  0  0  0  0  0  0
    6.6901    6.6289   -1.2185 H   0  0  0  0  0  0  0  0  0  0  0  0
    5.7229    7.5908    0.7916 H   0  0  0  0  0  0  0  0  0  0  0  0
    3.5880    6.8225    1.6046 H   0  0  0  0  0  0  0  0  0  0  0  0
  1  2  1  0  0  0  0 
  2  3  2  0  0  0  0 
  2  4  1  0  0  0  0 
  5  4  1  0  0  0  0 
  5  6  1  0  0  0  0 
  6  7  3  0  0  0  0 
  5  8  1  0  0  0  0 
  8  9  2  0  0  0  0 
  9 10  1  0  0  0  0 
 10 11  2  0  0  0  0 
 11 12  1  0  0  0  0 
 12 13  2  0  0  0  0 
  8 13  1  0  0  0  0 
 14  1  1  0  0  0  0 
 15  1  1  0  0  0  0 
 16  5  1  0  0  0  0 
 17  7  1  0  0  0  0 
 18  9  1  0  0  0  0 
 19 10  1  0  0  0  0 
 20 11  1  0  0  0  0 
 21 12  1  0  0  0  0 
 22 13  1  0  0  0  0 
M  END
> <cdk:Title>
carfimate

> <Conformer>
1

> <SuperDrugID>
SD003164

$$$$
