sulfamerazine
  CDK     0628171801

 30 31  0  0  0  0  0  0  0  0999 V2000
    4.9179    2.4959   -0.2845 C   0  0  0  0  0  0  0  0  0  0  0  0
    4.1442    1.2961    0.0926 C   0  0  0  0  0  0  0  0  0  0  0  0
    4.7823    0.0736    0.3959 C   0  0  0  0  0  0  0  0  0  0  0  0
    3.9796   -1.0286    0.7403 C   0  0  0  0  0  0  0  0  0  0  0  0
    2.6303   -0.8882    0.7866 N   0  0  0  0  0  0  0  0  0  0  0  0
    2.0199    0.2919    0.5043 C   0  0  0  0  0  0  0  0  0  0  0  0
    0.6728    0.3596    0.6067 N   0  0  0  0  0  0  0  0  0  0  0  0
   -0.2362    1.8176    0.5342 S   0  0  1  0  0  0  0  0  0  0  0  0
   -0.5019    2.1897   -1.0047 O   0  0  0  0  0  0  0  0  0  0  0  0
   -1.6498    1.5525    1.2489 O   0  0  0  0  0  0  0  0  0  0  0  0
    0.6114    3.1365    1.3675 C   0  0  0  0  0  0  0  0  0  0  0  0
    0.9848    4.3036    0.6676 C   0  0  0  0  0  0  0  0  0  0  0  0
    1.6471    5.3538    1.3289 C   0  0  0  0  0  0  0  0  0  0  0  0
    1.9465    5.2454    2.7008 C   0  0  0  0  0  0  0  0  0  0  0  0
    2.5645    6.2614    3.3325 N   0  0  0  0  0  0  0  0  0  0  0  0
    1.5955    4.0737    3.4012 C   0  0  0  0  0  0  0  0  0  0  0  0
    0.9311    3.0247    2.7374 C   0  0  0  0  0  0  0  0  0  0  0  0
    2.7875    1.3595    0.1538 N   0  0  0  0  0  0  0  0  0  0  0  0
    5.6431    2.7323    0.4956 H   0  0  0  0  0  0  0  0  0  0  0  0
    4.2711    3.3654   -0.4276 H   0  0  0  0  0  0  0  0  0  0  0  0
    5.4519    2.3050   -1.2157 H   0  0  0  0  0  0  0  0  0  0  0  0
    5.8013   -0.0175    0.3679 H   0  0  0  0  0  0  0  0  0  0  0  0
    4.4042   -1.9323    0.9646 H   0  0  0  0  0  0  0  0  0  0  0  0
    0.1884   -0.4708    0.7473 H   0  0  0  0  0  0  0  0  0  0  0  0
    0.7780    4.3966   -0.3281 H   0  0  0  0  0  0  0  0  0  0  0  0
    1.9094    6.1940    0.8058 H   0  0  0  0  0  0  0  0  0  0  0  0
    2.7739    6.1919    4.2776 H   0  0  0  0  0  0  0  0  0  0  0  0
    2.7996    7.0666    2.8422 H   0  0  0  0  0  0  0  0  0  0  0  0
    1.8207    3.9802    4.3948 H   0  0  0  0  0  0  0  0  0  0  0  0
    0.6841    2.1824    3.2621 H   0  0  0  0  0  0  0  0  0  0  0  0
  1  2  1  0  0  0  0 
  2  3  2  0  0  0  0 
  3  4  1  0  0  0  0 
  4  5  2  0  0  0  0 
  5  6  1  0  0  0  0 
  6  7  1  0  0  0  0 
  7  8  1  0  0  0  0 
  8  9  2  0  0  0  0 
  8 10  2  0  0  0  0 
  8 11  1  0  0  0  0 
 11 12  2  0  0  0  0 
 12 13  1  0  0  0  0 
 13 14  2  0  0  0  0 
 14 15  1  0  0  0  0 
 14 16  1  0  0  0  0 
 16 17  2  0  0  0  0 
 11 17  1  0  0  0  0 
  6 18  2  0  0  0  0 
  2 18  1  0  0  0  0 
  1 19  1  0  0  0  0 
  1 20  1  0  0  0  0 
  1 21  1  0  0  0  0 
  3 22  1  0  0  0  0 
  4 23  1  0  0  0  0 
  7 24  1  0  0  0  0 
 12 25  1  0  0  0  0 
 13 26  1  0  0  0  0 
 15 27  1  0  0  0  0 
 15 28  1  0  0  0  0 
 16 29  1  0  0  0  0 
 17 30  1  0  0  0  0 
M  END
> <cdk:Title>
sulfamerazine

> <Conformer>
1

> <SuperDrugID>
SD002256

$$$$
