propanidid
  CDK     0628171801

 51 51  0  0  0  0  0  0  0  0999 V2000
    1.1461   -1.5791    1.0871 O   0  0  0  0  0  0  0  0  0  0  0  0
    0.9270   -1.1845   -0.2822 C   0  0  1  0  0  0  0  0  0  0  0  0
    2.3894   -2.1145    1.3068 C   0  0  0  0  0  0  0  0  0  0  0  0
   -0.4387   -0.6226   -0.4242 C   0  0  0  0  0  0  0  0  0  0  0  0
    2.6913   -3.4504    0.9525 C   0  0  0  0  0  0  0  0  0  0  0  0
    3.3785   -1.3197    1.9178 C   0  0  0  0  0  0  0  0  0  0  0  0
   -0.8875    0.5798    0.1272 N   0  0  0  0  0  0  0  0  0  0  0  0
   -1.2295   -1.3288   -1.0977 O   0  0  0  0  0  0  0  0  0  0  0  0
    1.7481   -4.2648    0.3853 O   0  0  0  0  0  0  0  0  0  0  0  0
    3.9954   -3.9498    1.1447 C   0  0  0  0  0  0  0  0  0  0  0  0
    4.6698   -1.8338    2.1365 C   0  0  0  0  0  0  0  0  0  0  0  0
   -2.2567    1.0169   -0.1039 C   0  0  1  0  0  0  0  0  0  0  0  0
   -0.0298    1.4545    0.9109 C   0  0  1  0  0  0  0  0  0  0  0  0
    0.9359   -4.9519    1.3554 C   0  0  0  0  0  0  0  0  0  0  0  0
    5.0001   -3.1501    1.7365 C   0  0  0  0  0  0  0  0  0  0  0  0
   -2.4489    1.6122   -1.5181 C   0  0  0  0  0  0  0  0  0  0  0  0
   -0.2162    1.2492    2.4313 C   0  0  0  0  0  0  0  0  0  0  0  0
    6.3826   -3.6695    1.9045 C   0  0  2  0  0  0  0  0  0  0  0  0
    7.1255   -3.5863    0.6321 C   0  0  0  0  0  0  0  0  0  0  0  0
    7.1818   -2.3821   -0.0164 O   0  0  0  0  0  0  0  0  0  0  0  0
    7.6792   -4.6070    0.1600 O   0  0  0  0  0  0  0  0  0  0  0  0
    7.8399   -2.1040   -1.2588 C   0  0  2  0  0  0  0  0  0  0  0  0
    7.5382   -0.6544   -1.7116 C   0  0  1  0  0  0  0  0  0  0  0  0
    8.2252   -0.2915   -3.0477 C   0  0  0  0  0  0  0  0  0  0  0  0
    1.6568   -0.4440   -0.6148 H   0  0  0  0  0  0  0  0  0  0  0  0
    1.0355   -2.0553   -0.9381 H   0  0  0  0  0  0  0  0  0  0  0  0
    3.1620   -0.3598    2.2009 H   0  0  0  0  0  0  0  0  0  0  0  0
    4.2092   -4.9047    0.8478 H   0  0  0  0  0  0  0  0  0  0  0  0
    5.3725   -1.2339    2.5791 H   0  0  0  0  0  0  0  0  0  0  0  0
   -2.9499    0.1828    0.0337 H   0  0  0  0  0  0  0  0  0  0  0  0
   -2.5636    1.7806    0.6167 H   0  0  0  0  0  0  0  0  0  0  0  0
    1.0271    1.3256    0.6765 H   0  0  0  0  0  0  0  0  0  0  0  0
   -0.2486    2.5018    0.6791 H   0  0  0  0  0  0  0  0  0  0  0  0
    0.2565   -5.6143    0.8193 H   0  0  0  0  0  0  0  0  0  0  0  0
    1.5369   -5.5616    2.0364 H   0  0  0  0  0  0  0  0  0  0  0  0
    0.3316   -4.2511    1.9350 H   0  0  0  0  0  0  0  0  0  0  0  0
   -3.4723    1.9700   -1.6315 H   0  0  0  0  0  0  0  0  0  0  0  0
   -1.7647    2.4479   -1.6733 H   0  0  0  0  0  0  0  0  0  0  0  0
   -2.2623    0.8598   -2.2849 H   0  0  0  0  0  0  0  0  0  0  0  0
    0.4224    1.9463    2.9778 H   0  0  0  0  0  0  0  0  0  0  0  0
   -1.2521    1.4314    2.7217 H   0  0  0  0  0  0  0  0  0  0  0  0
    0.0555    0.2318    2.7167 H   0  0  0  0  0  0  0  0  0  0  0  0
    6.3469   -4.6980    2.2764 H   0  0  0  0  0  0  0  0  0  0  0  0
    6.9311   -3.0851    2.6467 H   0  0  0  0  0  0  0  0  0  0  0  0
    7.4856   -2.8022   -2.0208 H   0  0  0  0  0  0  0  0  0  0  0  0
    8.9155   -2.2377   -1.1315 H   0  0  0  0  0  0  0  0  0  0  0  0
    6.4574   -0.5338   -1.8275 H   0  0  0  0  0  0  0  0  0  0  0  0
    7.8763    0.0457   -0.9422 H   0  0  0  0  0  0  0  0  0  0  0  0
    7.9905    0.7379   -3.3203 H   0  0  0  0  0  0  0  0  0  0  0  0
    7.8815   -0.9474   -3.8502 H   0  0  0  0  0  0  0  0  0  0  0  0
    9.3077   -0.3888   -2.9542 H   0  0  0  0  0  0  0  0  0  0  0  0
  1  2  1  0  0  0  0 
  1  3  1  0  0  0  0 
  2  4  1  0  0  0  0 
  3  5  2  0  0  0  0 
  3  6  1  0  0  0  0 
  4  7  1  0  0  0  0 
  4  8  2  0  0  0  0 
  5  9  1  0  0  0  0 
  5 10  1  0  0  0  0 
  6 11  2  0  0  0  0 
  7 12  1  0  0  0  0 
  7 13  1  0  0  0  0 
  9 14  1  0  0  0  0 
 10 15  2  0  0  0  0 
 11 15  1  0  0  0  0 
 12 16  1  0  0  0  0 
 13 17  1  0  0  0  0 
 15 18  1  0  0  0  0 
 18 19  1  0  0  0  0 
 19 20  1  0  0  0  0 
 19 21  2  0  0  0  0 
 20 22  1  0  0  0  0 
 22 23  1  0  0  0  0 
 23 24  1  0  0  0  0 
  2 25  1  0  0  0  0 
  2 26  1  0  0  0  0 
  6 27  1  0  0  0  0 
 10 28  1  0  0  0  0 
 11 29  1  0  0  0  0 
 12 30  1  0  0  0  0 
 12 31  1  0  0  0  0 
 13 32  1  0  0  0  0 
 13 33  1  0  0  0  0 
 14 34  1  0  0  0  0 
 14 35  1  0  0  0  0 
 14 36  1  0  0  0  0 
 16 37  1  0  0  0  0 
 16 38  1  0  0  0  0 
 16 39  1  0  0  0  0 
 17 40  1  0  0  0  0 
 17 41  1  0  0  0  0 
 17 42  1  0  0  0  0 
 18 43  1  0  0  0  0 
 18 44  1  0  0  0  0 
 22 45  1  0  0  0  0 
 22 46  1  0  0  0  0 
 23 47  1  0  0  0  0 
 23 48  1  0  0  0  0 
 24 49  1  0  0  0  0 
 24 50  1  0  0  0  0 
 24 51  1  0  0  0  0 
M  END
> <cdk:Title>
propanidid

> <Conformer>
1

> <SuperDrugID>
SD003011

$$$$
