flutamide
  CDK     0628171801

 30 30  0  0  0  0  0  0  0  0999 V2000
   -4.7408    3.9838   -1.2210 C   0  0  1  0  0  0  0  0  0  0  0  0
   -4.4384    3.9778   -2.5639 F   0  0  0  0  0  0  0  0  0  0  0  0
   -4.9881    5.2915   -0.8821 F   0  0  0  0  0  0  0  0  0  0  0  0
   -5.9050    3.2594   -1.1188 F   0  0  0  0  0  0  0  0  0  0  0  0
   -3.6652    3.4366   -0.3313 C   0  0  0  0  0  0  0  0  0  0  0  0
   -3.9024    3.1114    1.0406 C   0  0  0  0  0  0  0  0  0  0  0  0
   -2.3602    3.2332   -0.8522 C   0  0  0  0  0  0  0  0  0  0  0  0
   -5.0893    3.2549    1.6322 N   0  0  0  0  0  0  0  0  0  0  0  0
   -2.8438    2.5933    1.8233 C   0  0  0  0  0  0  0  0  0  0  0  0
   -1.3106    2.7057   -0.0742 C   0  0  0  0  0  0  0  0  0  0  0  0
   -5.6473    2.2746    2.2193 O   0  0  0  0  0  0  0  0  0  0  0  0
   -5.6524    4.2777    1.6497 O   0  0  0  0  0  0  0  0  0  0  0  0
   -1.5673    2.3899    1.2756 C   0  0  0  0  0  0  0  0  0  0  0  0
   -0.0893    2.5959   -0.6801 N   0  0  0  0  0  0  0  0  0  0  0  0
    0.9380    1.7387   -0.4081 C   0  0  0  0  0  0  0  0  0  0  0  0
    2.2499    1.9364   -1.0849 C   0  0  2  0  0  0  0  0  0  0  0  0
    0.8100    0.7854    0.3971 O   0  0  0  0  0  0  0  0  0  0  0  0
    2.9026    3.2620   -0.6020 C   0  0  0  0  0  0  0  0  0  0  0  0
    2.1302    1.8720   -2.6344 C   0  0  0  0  0  0  0  0  0  0  0  0
   -2.1590    3.4750   -1.8263 H   0  0  0  0  0  0  0  0  0  0  0  0
   -2.9925    2.3687    2.8111 H   0  0  0  0  0  0  0  0  0  0  0  0
   -0.8270    2.0326    1.8798 H   0  0  0  0  0  0  0  0  0  0  0  0
    0.0678    3.2126   -1.4129 H   0  0  0  0  0  0  0  0  0  0  0  0
    2.9204    1.1226   -0.7884 H   0  0  0  0  0  0  0  0  0  0  0  0
    3.8678    3.4147   -1.0882 H   0  0  0  0  0  0  0  0  0  0  0  0
    2.2600    4.1160   -0.8275 H   0  0  0  0  0  0  0  0  0  0  0  0
    3.0702    3.2270    0.4774 H   0  0  0  0  0  0  0  0  0  0  0  0
    3.1214    1.9001   -3.0929 H   0  0  0  0  0  0  0  0  0  0  0  0
    1.5543    2.7180   -3.0148 H   0  0  0  0  0  0  0  0  0  0  0  0
    1.6400    0.9455   -2.9448 H   0  0  0  0  0  0  0  0  0  0  0  0
  1  2  1  0  0  0  0 
  1  3  1  0  0  0  0 
  1  4  1  0  0  0  0 
  1  5  1  0  0  0  0 
  5  6  2  0  0  0  0 
  5  7  1  0  0  0  0 
  6  8  1  0  0  0  0 
  6  9  1  0  0  0  0 
  7 10  2  0  0  0  0 
  8 11  1  0  0  0  0 
  8 12  2  0  0  0  0 
  9 13  2  0  0  0  0 
 10 13  1  0  0  0  0 
 10 14  1  0  0  0  0 
 14 15  1  0  0  0  0 
 15 16  1  0  0  0  0 
 15 17  2  0  0  0  0 
 16 18  1  0  0  0  0 
 16 19  1  0  0  0  0 
  7 20  1  0  0  0  0 
  9 21  1  0  0  0  0 
 13 22  1  0  0  0  0 
 14 23  1  0  0  0  0 
 16 24  1  0  0  0  0 
 18 25  1  0  0  0  0 
 18 26  1  0  0  0  0 
 18 27  1  0  0  0  0 
 19 28  1  0  0  0  0 
 19 29  1  0  0  0  0 
 19 30  1  0  0  0  0 
M  CHG  1   8   1
M  CHG  1  11  -1
M  END
> <cdk:Title>
flutamide

> <Conformer>
1

> <SuperDrugID>
SD001096

$$$$
