halazepam
  CDK     0628171801

 36 38  0  0  0  0  0  0  0  0999 V2000
    2.0287   -2.9282   -0.0455 C   0  0  1  0  0  0  0  0  0  0  0  0
    1.2850   -3.2853   -1.3663 C   0  0  2  0  0  0  0  0  0  0  0  0
    3.4395   -3.3031   -0.0656 N   0  0  0  0  0  0  0  0  0  0  0  0
    0.0105   -2.7703   -1.3418 F   0  0  0  0  0  0  0  0  0  0  0  0
    1.1634   -4.6390   -1.5645 F   0  0  0  0  0  0  0  0  0  0  0  0
    1.9382   -2.7484   -2.4502 F   0  0  0  0  0  0  0  0  0  0  0  0
    4.4149   -2.3145   -0.1768 C   0  0  0  0  0  0  0  0  0  0  0  0
    3.8024   -4.6451   -0.0250 C   0  0  0  0  0  0  0  0  0  0  0  0
    5.4169   -2.3328   -1.1961 C   0  0  0  0  0  0  0  0  0  0  0  0
    4.4370   -1.2604    0.7711 C   0  0  0  0  0  0  0  0  0  0  0  0
    2.9841   -5.5291    0.3278 O   0  0  0  0  0  0  0  0  0  0  0  0
    5.1397   -5.1185   -0.4621 C   0  0  2  0  0  0  0  0  0  0  0  0
    5.5090   -3.3891   -2.1183 C   0  0  0  0  0  0  0  0  0  0  0  0
    6.3766   -1.2892   -1.2475 C   0  0  0  0  0  0  0  0  0  0  0  0
    5.3923   -0.2315    0.7034 C   0  0  0  0  0  0  0  0  0  0  0  0
    5.3915   -4.6187   -1.7392 N   0  0  0  0  0  0  0  0  0  0  0  0
    5.7268   -3.1738   -3.4817 C   0  0  0  0  0  0  0  0  0  0  0  0
    6.3652   -0.2440   -0.3081 C   0  0  0  0  0  0  0  0  0  0  0  0
    4.9924   -2.1884   -4.1902 C   0  0  0  0  0  0  0  0  0  0  0  0
    6.6825   -3.9407   -4.1964 C   0  0  0  0  0  0  0  0  0  0  0  0
    7.5264    0.9864   -0.3848 Cl  0  0  0  0  0  0  0  0  0  0  0  0
    5.1970   -1.9865   -5.5674 C   0  0  0  0  0  0  0  0  0  0  0  0
    6.8866   -3.7383   -5.5730 C   0  0  0  0  0  0  0  0  0  0  0  0
    6.1406   -2.7648   -6.2586 C   0  0  0  0  0  0  0  0  0  0  0  0
    1.9002   -1.8503    0.0897 H   0  0  0  0  0  0  0  0  0  0  0  0
    1.5312   -3.4008    0.8039 H   0  0  0  0  0  0  0  0  0  0  0  0
    3.7531   -1.2388    1.5328 H   0  0  0  0  0  0  0  0  0  0  0  0
    5.1761   -6.2092   -0.5154 H   0  0  0  0  0  0  0  0  0  0  0  0
    5.9116   -4.7895    0.2375 H   0  0  0  0  0  0  0  0  0  0  0  0
    7.1082   -1.2944   -1.9645 H   0  0  0  0  0  0  0  0  0  0  0  0
    5.3776    0.5181    1.3994 H   0  0  0  0  0  0  0  0  0  0  0  0
    4.2962   -1.6096   -3.7142 H   0  0  0  0  0  0  0  0  0  0  0  0
    7.2463   -4.6484   -3.7184 H   0  0  0  0  0  0  0  0  0  0  0  0
    4.6563   -1.2799   -6.0695 H   0  0  0  0  0  0  0  0  0  0  0  0
    7.5734   -4.3036   -6.0768 H   0  0  0  0  0  0  0  0  0  0  0  0
    6.2789   -2.6257   -7.2620 H   0  0  0  0  0  0  0  0  0  0  0  0
  1  2  1  0  0  0  0 
  1  3  1  0  0  0  0 
  2  4  1  0  0  0  0 
  2  5  1  0  0  0  0 
  2  6  1  0  0  0  0 
  3  7  1  0  0  0  0 
  3  8  1  0  0  0  0 
  7  9  2  0  0  0  0 
  7 10  1  0  0  0  0 
  8 11  2  0  0  0  0 
  8 12  1  0  0  0  0 
  9 13  1  0  0  0  0 
  9 14  1  0  0  0  0 
 10 15  2  0  0  0  0 
 12 16  1  0  0  0  0 
 13 16  2  0  0  0  0 
 13 17  1  0  0  0  0 
 14 18  2  0  0  0  0 
 15 18  1  0  0  0  0 
 17 19  2  0  0  0  0 
 17 20  1  0  0  0  0 
 18 21  1  0  0  0  0 
 19 22  1  0  0  0  0 
 20 23  2  0  0  0  0 
 22 24  2  0  0  0  0 
 23 24  1  0  0  0  0 
  1 25  1  0  0  0  0 
  1 26  1  0  0  0  0 
 10 27  1  0  0  0  0 
 12 28  1  0  0  0  0 
 12 29  1  0  0  0  0 
 14 30  1  0  0  0  0 
 15 31  1  0  0  0  0 
 19 32  1  0  0  0  0 
 20 33  1  0  0  0  0 
 22 34  1  0  0  0  0 
 23 35  1  0  0  0  0 
 24 36  1  0  0  0  0 
M  END
> <cdk:Title>
halazepam

> <Conformer>
1

> <SuperDrugID>
SD001196

$$$$
