epomediol
  CDK     0628171801

 31 32  0  0  0  0  0  0  0  0999 V2000
   -0.4100    2.0550   -3.0058 C   0  0  0  0  0  0  0  0  0  0  0  0
    0.4622    0.9143   -2.4149 C   0  0  1  0  0  0  0  0  0  0  0  0
    0.5903    1.1507   -0.9800 O   0  0  0  0  0  0  0  0  0  0  0  0
   -0.2163   -0.4947   -2.5956 C   0  0  1  0  0  0  0  0  0  0  0  0
    1.9186    0.8682   -3.0110 C   0  0  1  0  0  0  0  0  0  0  0  0
    1.3678    0.1697   -0.2220 C   0  0  2  0  0  0  0  0  0  0  0  0
   -0.4304   -0.7816   -3.9786 O   0  0  0  0  0  0  0  0  0  0  0  0
    0.6555   -1.6139   -1.9247 C   0  0  2  0  0  0  0  0  0  0  0  0
    2.5783    2.1203   -2.8080 O   0  0  0  0  0  0  0  0  0  0  0  0
    2.7320   -0.3003   -2.3454 C   0  0  2  0  0  0  0  0  0  0  0  0
    1.8868   -0.9650   -1.2024 C   0  0  1  0  0  0  0  0  0  0  0  0
    0.4373   -0.3933    0.9001 C   0  0  0  0  0  0  0  0  0  0  0  0
    2.5358    0.9339    0.4823 C   0  0  0  0  0  0  0  0  0  0  0  0
   -0.4972    1.9548   -4.0889 H   0  0  0  0  0  0  0  0  0  0  0  0
    0.0289    3.0283   -2.7796 H   0  0  0  0  0  0  0  0  0  0  0  0
   -1.4111    2.0241   -2.5704 H   0  0  0  0  0  0  0  0  0  0  0  0
   -1.1989   -0.4765   -2.1134 H   0  0  0  0  0  0  0  0  0  0  0  0
    1.8703    0.7067   -4.0914 H   0  0  0  0  0  0  0  0  0  0  0  0
   -0.9073   -1.6381   -3.9915 H   0  0  0  0  0  0  0  0  0  0  0  0
    0.9997   -2.3357   -2.6711 H   0  0  0  0  0  0  0  0  0  0  0  0
    0.0566   -2.1939   -1.2196 H   0  0  0  0  0  0  0  0  0  0  0  0
    3.4825    2.0009   -3.1695 H   0  0  0  0  0  0  0  0  0  0  0  0
    3.6868    0.0554   -1.9537 H   0  0  0  0  0  0  0  0  0  0  0  0
    2.9876   -1.0502   -3.1015 H   0  0  0  0  0  0  0  0  0  0  0  0
    2.4718   -1.7251   -0.6752 H   0  0  0  0  0  0  0  0  0  0  0  0
   -0.4961   -0.7796    0.4909 H   0  0  0  0  0  0  0  0  0  0  0  0
    0.1647    0.3888    1.6117 H   0  0  0  0  0  0  0  0  0  0  0  0
    0.9401   -1.1973    1.4425 H   0  0  0  0  0  0  0  0  0  0  0  0
    3.1623    1.4665   -0.2314 H   0  0  0  0  0  0  0  0  0  0  0  0
    2.1461    1.6840    1.1731 H   0  0  0  0  0  0  0  0  0  0  0  0
    3.1642    0.2382    1.0425 H   0  0  0  0  0  0  0  0  0  0  0  0
  1  2  1  0  0  0  0 
  2  3  1  0  0  0  0 
  2  4  1  0  0  0  0 
  2  5  1  0  0  0  0 
  3  6  1  0  0  0  0 
  4  7  1  0  0  0  0 
  4  8  1  0  0  0  0 
  5  9  1  0  0  0  0 
  5 10  1  0  0  0  0 
  6 11  1  0  0  0  0 
  8 11  1  0  0  0  0 
 10 11  1  0  0  0  0 
  6 12  1  0  0  0  0 
  6 13  1  0  0  0  0 
  1 14  1  0  0  0  0 
  1 15  1  0  0  0  0 
  1 16  1  0  0  0  0 
  4 17  1  0  0  0  0 
  5 18  1  0  0  0  0 
  7 19  1  0  0  0  0 
  8 20  1  0  0  0  0 
  8 21  1  0  0  0  0 
  9 22  1  0  0  0  0 
 10 23  1  0  0  0  0 
 10 24  1  0  0  0  0 
 11 25  1  0  0  0  0 
 12 26  1  0  0  0  0 
 12 27  1  0  0  0  0 
 12 28  1  0  0  0  0 
 13 29  1  0  0  0  0 
 13 30  1  0  0  0  0 
 13 31  1  0  0  0  0 
M  END
> <cdk:Title>
epomediol

> <Conformer>
1

> <SuperDrugID>
SD000920

$$$$
