florbetaben F18
  CDK     0628171802

 52 53  0  0  0  0  0  0  0  0999 V2000
    8.3443   -8.8266  -10.8376 C   0  0  0  0  0  0  0  0  0  0  0  0
    7.9405   -8.1660   -9.6641 C   0  0  0  0  0  0  0  0  0  0  0  0
    6.5690   -8.0365   -9.3220 C   0  0  0  0  0  0  0  0  0  0  0  0
    5.6181   -8.5638  -10.2368 C   0  0  0  0  0  0  0  0  0  0  0  0
    6.0219   -9.2275  -11.4116 C   0  0  0  0  0  0  0  0  0  0  0  0
    7.3939   -9.3828  -11.7160 C   0  0  0  0  0  0  0  0  0  0  0  0
    7.8753  -10.0434  -12.8105 N   0  0  0  0  0  0  0  0  0  0  0  0
    7.1203  -10.8433  -13.7130 C   0  0  0  0  0  0  0  0  0  0  0  0
    6.2371   -7.3980   -8.1148 C   0  0  0  0  0  0  0  0  0  0  0  0
    5.0533   -7.4438   -7.4705 C   0  0  0  0  0  0  0  0  0  0  0  0
    4.7508   -6.8286   -6.2449 C   0  0  0  0  0  0  0  0  0  0  0  0
    3.3963   -6.5328   -5.9395 C   0  0  0  0  0  0  0  0  0  0  0  0
    3.0349   -5.9463   -4.7120 C   0  0  0  0  0  0  0  0  0  0  0  0
    4.0208   -5.6375   -3.7550 C   0  0  0  0  0  0  0  0  0  0  0  0
    5.3700   -5.9203   -4.0382 C   0  0  0  0  0  0  0  0  0  0  0  0
    5.7290   -6.5109   -5.2643 C   0  0  0  0  0  0  0  0  0  0  0  0
    3.6723   -5.1084   -2.5409 O   0  0  0  0  0  0  0  0  0  0  0  0
    3.5967   -3.6699   -2.5384 C   0  0  1  0  0  0  0  0  0  0  0  0
    3.2163   -3.1919   -1.1211 C   0  0  1  0  0  0  0  0  0  0  0  0
    3.1753   -1.7540   -1.1058 O   0  0  0  0  0  0  0  0  0  0  0  0
    2.8524   -1.1609    0.1675 C   0  0  1  0  0  0  0  0  0  0  0  0
    2.8669    0.3698   -0.0119 C   0  0  1  0  0  0  0  0  0  0  0  0
    2.5479    1.0251    1.2310 O   0  0  0  0  0  0  0  0  0  0  0  0
    2.5392    2.4646    1.1423 C   0  0  1  0  0  0  0  0  0  0  0  0
    2.1785    3.0610    2.5162 C   0  0  1  0  0  0  0  0  0  0  0  0
    2.1534    4.4333    2.4542 F   0  0  0  0  0  0  0  0  0  0  0  0
    9.3449   -8.9078  -11.0426 H   0  0  0  0  0  0  0  0  0  0  0  0
    8.6730   -7.7842   -9.0561 H   0  0  0  0  0  0  0  0  0  0  0  0
    4.6141   -8.4695  -10.0715 H   0  0  0  0  0  0  0  0  0  0  0  0
    5.3036   -9.5933  -12.0416 H   0  0  0  0  0  0  0  0  0  0  0  0
    8.8317   -9.9852  -12.9759 H   0  0  0  0  0  0  0  0  0  0  0  0
    7.7892  -11.2394  -14.4770 H   0  0  0  0  0  0  0  0  0  0  0  0
    6.6578  -11.6793  -13.1823 H   0  0  0  0  0  0  0  0  0  0  0  0
    6.3530  -10.2452  -14.2067 H   0  0  0  0  0  0  0  0  0  0  0  0
    6.9583   -6.8594   -7.6942 H   0  0  0  0  0  0  0  0  0  0  0  0
    4.3165   -7.9571   -7.8937 H   0  0  0  0  0  0  0  0  0  0  0  0
    2.6507   -6.7446   -6.6106 H   0  0  0  0  0  0  0  0  0  0  0  0
    2.0505   -5.7494   -4.5137 H   0  0  0  0  0  0  0  0  0  0  0  0
    6.0932   -5.7062   -3.3463 H   0  0  0  0  0  0  0  0  0  0  0  0
    6.7174   -6.7217   -5.4146 H   0  0  0  0  0  0  0  0  0  0  0  0
    4.5618   -3.2321   -2.8157 H   0  0  0  0  0  0  0  0  0  0  0  0
    2.8332   -3.3245   -3.2434 H   0  0  0  0  0  0  0  0  0  0  0  0
    2.2365   -3.6015   -0.8587 H   0  0  0  0  0  0  0  0  0  0  0  0
    3.9596   -3.5587   -0.4067 H   0  0  0  0  0  0  0  0  0  0  0  0
    1.8604   -1.4767    0.5045 H   0  0  0  0  0  0  0  0  0  0  0  0
    3.5906   -1.4405    0.9252 H   0  0  0  0  0  0  0  0  0  0  0  0
    3.8621    0.6710   -0.3527 H   0  0  0  0  0  0  0  0  0  0  0  0
    2.1345    0.6380   -0.7793 H   0  0  0  0  0  0  0  0  0  0  0  0
    3.5255    2.8341    0.8437 H   0  0  0  0  0  0  0  0  0  0  0  0
    1.7986    2.7966    0.4078 H   0  0  0  0  0  0  0  0  0  0  0  0
    1.1945    2.7068    2.8293 H   0  0  0  0  0  0  0  0  0  0  0  0
    2.9174    2.7575    3.2604 H   0  0  0  0  0  0  0  0  0  0  0  0
  1  2  2  0  0  0  0 
  2  3  1  0  0  0  0 
  3  4  2  0  0  0  0 
  4  5  1  0  0  0  0 
  5  6  2  0  0  0  0 
  1  6  1  0  0  0  0 
  6  7  1  0  0  0  0 
  7  8  1  0  0  0  0 
  3  9  1  0  0  0  0 
  9 10  2  0  0  0  0 
 10 11  1  0  0  0  0 
 16 11  2  0  0  0  0 
 12 11  1  0  0  0  0 
 12 13  2  0  0  0  0 
 13 14  1  0  0  0  0 
 14 15  2  0  0  0  0 
 15 16  1  0  0  0  0 
 14 17  1  0  0  0  0 
 17 18  1  0  0  0  0 
 18 19  1  0  0  0  0 
 19 20  1  0  0  0  0 
 20 21  1  0  0  0  0 
 21 22  1  0  0  0  0 
 22 23  1  0  0  0  0 
 23 24  1  0  0  0  0 
 24 25  1  0  0  0  0 
 25 26  1  0  0  0  0 
  1 27  1  0  0  0  0 
  2 28  1  0  0  0  0 
  4 29  1  0  0  0  0 
  5 30  1  0  0  0  0 
  7 31  1  0  0  0  0 
  8 32  1  0  0  0  0 
  8 33  1  0  0  0  0 
  8 34  1  0  0  0  0 
  9 35  1  0  0  0  0 
 10 36  1  0  0  0  0 
 12 37  1  0  0  0  0 
 13 38  1  0  0  0  0 
 15 39  1  0  0  0  0 
 16 40  1  0  0  0  0 
 18 41  1  0  0  0  0 
 18 42  1  0  0  0  0 
 19 43  1  0  0  0  0 
 19 44  1  0  0  0  0 
 21 45  1  0  0  0  0 
 21 46  1  0  0  0  0 
 22 47  1  0  0  0  0 
 22 48  1  0  0  0  0 
 24 49  1  0  0  0  0 
 24 50  1  0  0  0  0 
 25 51  1  0  0  0  0 
 25 52  1  0  0  0  0 
M  ISO  1  26  18
M  END
> <cdk:Title>
florbetaben F18

> <Conformer>
1

> <SuperDrugID>
SD003780

$$$$
