thiotepa
  CDK     0628171801

 23 25  0  0  0  0  0  0  0  0999 V2000
    2.5918    2.5882    1.4568 S   0  0  0  0  0  0  0  0  0  0  0  0
    0.9217    2.2870    2.4185 P   0  0  1  0  0  0  0  0  0  0  0  0
    0.8695    3.3844    3.6544 N   0  0  2  0  0  0  0  0  0  0  0  0
   -0.4335    3.9515    4.0722 C   0  0  1  0  0  0  0  0  0  0  0  0
    0.5463    4.7706    3.2441 C   0  0  1  0  0  0  0  0  0  0  0  0
   -0.4323    2.3577    1.4683 N   0  0  2  0  0  0  0  0  0  0  0  0
   -0.3558    1.5768    0.2092 C   0  0  1  0  0  0  0  0  0  0  0  0
   -0.4072    3.0971    0.1838 C   0  0  1  0  0  0  0  0  0  0  0  0
    0.9840    0.7337    2.9929 N   0  0  2  0  0  0  0  0  0  0  0  0
    0.3024    0.4388    4.2748 C   0  0  1  0  0  0  0  0  0  0  0  0
    1.8211    0.5140    4.1947 C   0  0  1  0  0  0  0  0  0  0  0  0
   -1.3475    3.6408    3.5621 H   0  0  0  0  0  0  0  0  0  0  0  0
   -0.4963    4.2436    5.1227 H   0  0  0  0  0  0  0  0  0  0  0  0
    1.0706    5.5526    3.7944 H   0  0  0  0  0  0  0  0  0  0  0  0
    0.1984    4.9874    2.2315 H   0  0  0  0  0  0  0  0  0  0  0  0
    0.5947    1.1559   -0.1267 H   0  0  0  0  0  0  0  0  0  0  0  0
   -1.2803    1.0920   -0.1092 H   0  0  0  0  0  0  0  0  0  0  0  0
   -1.3638    3.5123   -0.1365 H   0  0  0  0  0  0  0  0  0  0  0  0
    0.5071    3.5957   -0.1399 H   0  0  0  0  0  0  0  0  0  0  0  0
   -0.1603    1.2397    4.8545 H   0  0  0  0  0  0  0  0  0  0  0  0
   -0.0899   -0.5744    4.3807 H   0  0  0  0  0  0  0  0  0  0  0  0
    2.3282   -0.4508    4.2448 H   0  0  0  0  0  0  0  0  0  0  0  0
    2.2641    1.3641    4.7198 H   0  0  0  0  0  0  0  0  0  0  0  0
  1  2  2  0  0  0  0 
  2  3  1  0  0  0  0 
  3  4  1  0  0  0  0 
  4  5  1  0  0  0  0 
  3  5  1  0  0  0  0 
  2  6  1  0  0  0  0 
  6  7  1  0  0  0  0 
  7  8  1  0  0  0  0 
  6  8  1  0  0  0  0 
  2  9  1  0  0  0  0 
  9 10  1  0  0  0  0 
 10 11  1  0  0  0  0 
  9 11  1  0  0  0  0 
  4 12  1  0  0  0  0 
  4 13  1  0  0  0  0 
  5 14  1  0  0  0  0 
  5 15  1  0  0  0  0 
  7 16  1  0  0  0  0 
  7 17  1  0  0  0  0 
  8 18  1  0  0  0  0 
  8 19  1  0  0  0  0 
 10 20  1  0  0  0  0 
 10 21  1  0  0  0  0 
 11 22  1  0  0  0  0 
 11 23  1  0  0  0  0 
M  END
> <cdk:Title>
thiotepa

> <Conformer>
1

> <SuperDrugID>
SD002372

$$$$
