oxaflozane
  CDK     0628171801

 37 38  0  0  0  0  0  0  0  0999 V2000
    2.6212    0.9344    3.3592 C   0  0  2  0  0  0  0  0  0  0  0  0
    3.6626    1.0545    2.4691 F   0  0  0  0  0  0  0  0  0  0  0  0
    2.9990    1.6014    4.4993 F   0  0  0  0  0  0  0  0  0  0  0  0
    2.4979   -0.4019    3.6509 F   0  0  0  0  0  0  0  0  0  0  0  0
    1.3200    1.4681    2.8655 C   0  0  0  0  0  0  0  0  0  0  0  0
    1.1709    2.0239    1.5708 C   0  0  0  0  0  0  0  0  0  0  0  0
    0.1869    1.4304    3.7109 C   0  0  0  0  0  0  0  0  0  0  0  0
   -0.0661    2.5395    1.1162 C   0  0  0  0  0  0  0  0  0  0  0  0
   -1.0484    1.9442    3.2830 C   0  0  0  0  0  0  0  0  0  0  0  0
   -1.1721    2.4961    1.9988 C   0  0  0  0  0  0  0  0  0  0  0  0
   -0.1786    3.1525   -0.2440 C   0  0  2  0  0  0  0  0  0  0  0  0
    0.1571    4.6713   -0.1784 C   0  0  2  0  0  0  0  0  0  0  0  0
   -1.4971    2.9359   -0.7941 O   0  0  0  0  0  0  0  0  0  0  0  0
   -0.0554    5.3772   -1.4897 N   0  0  2  0  0  0  0  0  0  0  0  0
   -1.6980    3.5551   -2.0774 C   0  0  1  0  0  0  0  0  0  0  0  0
    0.3081    6.8518   -1.4634 C   0  0  2  0  0  0  0  0  0  0  0  0
   -1.4379    5.0785   -2.0049 C   0  0  1  0  0  0  0  0  0  0  0  0
    0.1476    7.5478   -2.8501 C   0  0  0  0  0  0  0  0  0  0  0  0
    1.7679    7.1208   -0.9742 C   0  0  0  0  0  0  0  0  0  0  0  0
    1.9768    2.0638    0.9428 H   0  0  0  0  0  0  0  0  0  0  0  0
    0.2530    1.0308    4.6505 H   0  0  0  0  0  0  0  0  0  0  0  0
   -1.8567    1.9194    3.9099 H   0  0  0  0  0  0  0  0  0  0  0  0
   -2.0794    2.8704    1.7137 H   0  0  0  0  0  0  0  0  0  0  0  0
    0.5414    2.6684   -0.9160 H   0  0  0  0  0  0  0  0  0  0  0  0
    1.2041    4.7359    0.1203 H   0  0  0  0  0  0  0  0  0  0  0  0
   -0.4536    5.1524    0.5930 H   0  0  0  0  0  0  0  0  0  0  0  0
   -1.0454    3.0980   -2.8281 H   0  0  0  0  0  0  0  0  0  0  0  0
   -2.7333    3.3807   -2.3811 H   0  0  0  0  0  0  0  0  0  0  0  0
   -0.3657    7.3610   -0.7647 H   0  0  0  0  0  0  0  0  0  0  0  0
   -2.1897    5.5384   -1.3568 H   0  0  0  0  0  0  0  0  0  0  0  0
   -1.5854    5.4577   -3.0158 H   0  0  0  0  0  0  0  0  0  0  0  0
    0.5119    8.5757   -2.8189 H   0  0  0  0  0  0  0  0  0  0  0  0
   -0.8990    7.6055   -3.1451 H   0  0  0  0  0  0  0  0  0  0  0  0
    0.7059    7.0018   -3.6131 H   0  0  0  0  0  0  0  0  0  0  0  0
    2.0273    8.1757   -1.0679 H   0  0  0  0  0  0  0  0  0  0  0  0
    1.8847    6.8749    0.0802 H   0  0  0  0  0  0  0  0  0  0  0  0
    2.4775    6.5330   -1.5596 H   0  0  0  0  0  0  0  0  0  0  0  0
  1  2  1  0  0  0  0 
  1  3  1  0  0  0  0 
  1  4  1  0  0  0  0 
  1  5  1  0  0  0  0 
  5  6  2  0  0  0  0 
  5  7  1  0  0  0  0 
  6  8  1  0  0  0  0 
  7  9  2  0  0  0  0 
  8 10  2  0  0  0  0 
 11  8  1  0  0  0  0 
  9 10  1  0  0  0  0 
 11 12  1  0  0  0  0 
 11 13  1  0  0  0  0 
 12 14  1  0  0  0  0 
 13 15  1  0  0  0  0 
 14 16  1  0  0  0  0 
 14 17  1  0  0  0  0 
 15 17  1  0  0  0  0 
 16 18  1  0  0  0  0 
 16 19  1  0  0  0  0 
  6 20  1  0  0  0  0 
  7 21  1  0  0  0  0 
  9 22  1  0  0  0  0 
 10 23  1  0  0  0  0 
 11 24  1  0  0  0  0 
 12 25  1  0  0  0  0 
 12 26  1  0  0  0  0 
 15 27  1  0  0  0  0 
 15 28  1  0  0  0  0 
 16 29  1  0  0  0  0 
 17 30  1  0  0  0  0 
 17 31  1  0  0  0  0 
 18 32  1  0  0  0  0 
 18 33  1  0  0  0  0 
 18 34  1  0  0  0  0 
 19 35  1  0  0  0  0 
 19 36  1  0  0  0  0 
 19 37  1  0  0  0  0 
M  END
> <cdk:Title>
oxaflozane

> <Conformer>
1

> <SuperDrugID>
SD001796

$$$$
