pronetalol
  CDK     0628171801

 36 37  0  0  0  0  0  0  0  0999 V2000
    0.7336   -0.0442    0.2994 C   0  0  1  0  0  0  0  0  0  0  0  0
    0.0324    1.2176    0.8681 C   0  0  1  0  0  0  0  0  0  0  0  0
   -0.2470   -1.0051   -0.0902 O   0  0  0  0  0  0  0  0  0  0  0  0
    1.6435    0.2721   -0.8407 C   0  0  0  0  0  0  0  0  0  0  0  0
    1.0249    2.1408    1.4724 N   0  0  2  0  0  0  0  0  0  0  0  0
    1.1555    0.3723   -2.1670 C   0  0  0  0  0  0  0  0  0  0  0  0
    3.0188    0.5034   -0.6101 C   0  0  0  0  0  0  0  0  0  0  0  0
    0.5122    3.4338    1.9971 C   0  0  1  0  0  0  0  0  0  0  0  0
    2.0120    0.7002   -3.2408 C   0  0  0  0  0  0  0  0  0  0  0  0
    3.8828    0.8444   -1.6673 C   0  0  0  0  0  0  0  0  0  0  0  0
   -0.4184    3.2627    3.2297 C   0  0  0  0  0  0  0  0  0  0  0  0
    1.7418    4.3060    2.3552 C   0  0  0  0  0  0  0  0  0  0  0  0
    3.3915    0.9484   -2.9866 C   0  0  0  0  0  0  0  0  0  0  0  0
    1.5227    0.7868   -4.5653 C   0  0  0  0  0  0  0  0  0  0  0  0
    4.2478    1.2905   -4.0574 C   0  0  0  0  0  0  0  0  0  0  0  0
    2.3875    1.1215   -5.6234 C   0  0  0  0  0  0  0  0  0  0  0  0
    3.7467    1.3739   -5.3699 C   0  0  0  0  0  0  0  0  0  0  0  0
    1.3018   -0.5158    1.1065 H   0  0  0  0  0  0  0  0  0  0  0  0
   -0.5339    1.7212    0.0790 H   0  0  0  0  0  0  0  0  0  0  0  0
   -0.6679    0.8972    1.6417 H   0  0  0  0  0  0  0  0  0  0  0  0
   -0.8004   -1.1430    0.7076 H   0  0  0  0  0  0  0  0  0  0  0  0
    1.6869    2.3824    0.7317 H   0  0  0  0  0  0  0  0  0  0  0  0
    0.1622    0.2034   -2.3511 H   0  0  0  0  0  0  0  0  0  0  0  0
    3.4040    0.4346    0.3375 H   0  0  0  0  0  0  0  0  0  0  0  0
   -0.0442    3.9493    1.2064 H   0  0  0  0  0  0  0  0  0  0  0  0
    4.8725    1.0158   -1.4646 H   0  0  0  0  0  0  0  0  0  0  0  0
   -0.6548    4.2311    3.6743 H   0  0  0  0  0  0  0  0  0  0  0  0
    0.0599    2.6399    3.9870 H   0  0  0  0  0  0  0  0  0  0  0  0
   -1.3606    2.7982    2.9399 H   0  0  0  0  0  0  0  0  0  0  0  0
    1.4241    5.2834    2.7241 H   0  0  0  0  0  0  0  0  0  0  0  0
    2.3629    4.4607    1.4714 H   0  0  0  0  0  0  0  0  0  0  0  0
    2.3440    3.8180    3.1245 H   0  0  0  0  0  0  0  0  0  0  0  0
    0.5370    0.6062   -4.7701 H   0  0  0  0  0  0  0  0  0  0  0  0
    5.2400    1.4807   -3.8910 H   0  0  0  0  0  0  0  0  0  0  0  0
    2.0283    1.1811   -6.5794 H   0  0  0  0  0  0  0  0  0  0  0  0
    4.3733    1.6189   -6.1414 H   0  0  0  0  0  0  0  0  0  0  0  0
  1  2  1  0  0  0  0 
  1  3  1  0  0  0  0 
  1  4  1  0  0  0  0 
  2  5  1  0  0  0  0 
  4  6  1  0  0  0  0 
  4  7  2  0  0  0  0 
  5  8  1  0  0  0  0 
  6  9  2  0  0  0  0 
  7 10  1  0  0  0  0 
  8 11  1  0  0  0  0 
  8 12  1  0  0  0  0 
  9 13  1  0  0  0  0 
  9 14  1  0  0  0  0 
 10 13  2  0  0  0  0 
 13 15  1  0  0  0  0 
 14 16  2  0  0  0  0 
 15 17  2  0  0  0  0 
 16 17  1  0  0  0  0 
  1 18  1  0  0  0  0 
  2 19  1  0  0  0  0 
  2 20  1  0  0  0  0 
  3 21  1  0  0  0  0 
  5 22  1  0  0  0  0 
  6 23  1  0  0  0  0 
  7 24  1  0  0  0  0 
  8 25  1  0  0  0  0 
 10 26  1  0  0  0  0 
 11 27  1  0  0  0  0 
 11 28  1  0  0  0  0 
 11 29  1  0  0  0  0 
 12 30  1  0  0  0  0 
 12 31  1  0  0  0  0 
 12 32  1  0  0  0  0 
 14 33  1  0  0  0  0 
 15 34  1  0  0  0  0 
 16 35  1  0  0  0  0 
 17 36  1  0  0  0  0 
M  END
> <cdk:Title>
pronetalol

> <Conformer>
1

> <SuperDrugID>
SD002055

$$$$
