lapyrium chloride
  CDK     0628171801

 61 61  0  0  0  0  0  0  0  0999 V2000
   -1.3066    3.3429  -14.7626 C   0  0  1  0  0  0  0  0  0  0  0  0
   -0.9308    3.1517  -13.3434 C   0  0  0  0  0  0  0  0  0  0  0  0
   -2.4618    2.5282  -15.0687 N   0  0  0  0  0  0  0  0  0  0  0  0
   -1.3414    4.0425  -12.3989 N   0  0  0  0  0  0  0  0  0  0  0  0
   -0.2966    2.1172  -13.0270 O   0  0  0  0  0  0  0  0  0  0  0  0
   -2.3308    1.3477  -15.7561 C   0  0  0  0  0  0  0  0  0  0  0  0
   -3.7029    2.9341  -14.6441 C   0  0  0  0  0  0  0  0  0  0  0  0
   -1.2129    3.8485  -10.9877 C   0  0  1  0  0  0  0  0  0  0  0  0
   -3.4452    0.5232  -16.0044 C   0  0  0  0  0  0  0  0  0  0  0  0
   -4.8455    2.1459  -14.8702 C   0  0  0  0  0  0  0  0  0  0  0  0
   -1.5741    5.1164  -10.1725 C   0  0  2  0  0  0  0  0  0  0  0  0
   -4.7101    0.9270  -15.5509 C   0  0  0  0  0  0  0  0  0  0  0  0
   -2.1207    4.7552   -8.8915 O   0  0  0  0  0  0  0  0  0  0  0  0
   -2.4082    5.6036   -7.8571 C   0  0  0  0  0  0  0  0  0  0  0  0
   -3.0789    5.0886   -6.6441 C   0  0  1  0  0  0  0  0  0  0  0  0
   -2.0976    6.8164   -7.9152 O   0  0  0  0  0  0  0  0  0  0  0  0
   -2.1446    5.0398   -5.4055 C   0  0  1  0  0  0  0  0  0  0  0  0
   -2.8586    4.5045   -4.1305 C   0  0  2  0  0  0  0  0  0  0  0  0
   -1.9092    4.4462   -2.9034 C   0  0  1  0  0  0  0  0  0  0  0  0
   -2.6203    4.0065   -1.5946 C   0  0  1  0  0  0  0  0  0  0  0  0
   -1.6675    4.0250   -0.3686 C   0  0  2  0  0  0  0  0  0  0  0  0
   -2.3788    3.6276    0.9524 C   0  0  1  0  0  0  0  0  0  0  0  0
   -1.4283    3.6557    2.1801 C   0  0  2  0  0  0  0  0  0  0  0  0
   -2.1406    3.2525    3.4996 C   0  0  1  0  0  0  0  0  0  0  0  0
   -1.1880    3.2721    4.7248 C   0  0  1  0  0  0  0  0  0  0  0  0
   -1.8952    2.8648    6.0369 C   0  0  0  0  0  0  0  0  0  0  0  0
   -1.5345    4.3941  -14.9643 H   0  0  0  0  0  0  0  0  0  0  0  0
   -0.4466    3.0990  -15.3956 H   0  0  0  0  0  0  0  0  0  0  0  0
   -1.8137    4.8304  -12.7101 H   0  0  0  0  0  0  0  0  0  0  0  0
   -1.4145    1.0373  -16.0922 H   0  0  0  0  0  0  0  0  0  0  0  0
   -3.8190    3.8215  -14.1469 H   0  0  0  0  0  0  0  0  0  0  0  0
   -1.8914    3.0415  -10.7062 H   0  0  0  0  0  0  0  0  0  0  0  0
   -0.1953    3.5383  -10.7361 H   0  0  0  0  0  0  0  0  0  0  0  0
   -3.3365   -0.3606  -16.5062 H   0  0  0  0  0  0  0  0  0  0  0  0
   -5.7631    2.4549  -14.5417 H   0  0  0  0  0  0  0  0  0  0  0  0
   -2.3217    5.7089  -10.7072 H   0  0  0  0  0  0  0  0  0  0  0  0
   -0.6781    5.7325  -10.0369 H   0  0  0  0  0  0  0  0  0  0  0  0
   -5.5293    0.3379  -15.7136 H   0  0  0  0  0  0  0  0  0  0  0  0
   -3.9380    5.7286   -6.4267 H   0  0  0  0  0  0  0  0  0  0  0  0
   -3.4555    4.0819   -6.8402 H   0  0  0  0  0  0  0  0  0  0  0  0
   -1.2888    4.3972   -5.6330 H   0  0  0  0  0  0  0  0  0  0  0  0
   -1.7674    6.0463   -5.1999 H   0  0  0  0  0  0  0  0  0  0  0  0
   -3.2493    3.5008   -4.3238 H   0  0  0  0  0  0  0  0  0  0  0  0
   -3.7025    5.1592   -3.8957 H   0  0  0  0  0  0  0  0  0  0  0  0
   -1.0982    3.7450   -3.1208 H   0  0  0  0  0  0  0  0  0  0  0  0
   -1.4732    5.4378   -2.7525 H   0  0  0  0  0  0  0  0  0  0  0  0
   -3.4609    4.6792   -1.4016 H   0  0  0  0  0  0  0  0  0  0  0  0
   -3.0161    2.9955   -1.7265 H   0  0  0  0  0  0  0  0  0  0  0  0
   -1.2514    5.0303   -0.2566 H   0  0  0  0  0  0  0  0  0  0  0  0
   -0.8410    3.3329   -0.5518 H   0  0  0  0  0  0  0  0  0  0  0  0
   -3.2071    4.3187    1.1319 H   0  0  0  0  0  0  0  0  0  0  0  0
   -2.7913    2.6207    0.8448 H   0  0  0  0  0  0  0  0  0  0  0  0
   -1.0205    4.6645    2.2917 H   0  0  0  0  0  0  0  0  0  0  0  0
   -0.5958    2.9690    2.0018 H   0  0  0  0  0  0  0  0  0  0  0  0
   -2.9688    3.9431    3.6823 H   0  0  0  0  0  0  0  0  0  0  0  0
   -2.5540    2.2462    3.3874 H   0  0  0  0  0  0  0  0  0  0  0  0
   -0.3569    2.5835    4.5499 H   0  0  0  0  0  0  0  0  0  0  0  0
   -0.7759    4.2773    4.8489 H   0  0  0  0  0  0  0  0  0  0  0  0
   -1.1838    2.8936    6.8639 H   0  0  0  0  0  0  0  0  0  0  0  0
   -2.7137    3.5526    6.2576 H   0  0  0  0  0  0  0  0  0  0  0  0
   -2.2938    1.8518    5.9558 H   0  0  0  0  0  0  0  0  0  0  0  0
  1  2  1  0  0  0  0 
  1  3  1  0  0  0  0 
  2  4  1  0  0  0  0 
  2  5  2  0  0  0  0 
  3  6  2  0  0  0  0 
  3  7  1  0  0  0  0 
  4  8  1  0  0  0  0 
  6  9  1  0  0  0  0 
  7 10  2  0  0  0  0 
  8 11  1  0  0  0  0 
  9 12  2  0  0  0  0 
 10 12  1  0  0  0  0 
 11 13  1  0  0  0  0 
 13 14  1  0  0  0  0 
 14 15  1  0  0  0  0 
 14 16  2  0  0  0  0 
 15 17  1  0  0  0  0 
 17 18  1  0  0  0  0 
 18 19  1  0  0  0  0 
 19 20  1  0  0  0  0 
 20 21  1  0  0  0  0 
 21 22  1  0  0  0  0 
 22 23  1  0  0  0  0 
 23 24  1  0  0  0  0 
 24 25  1  0  0  0  0 
 25 26  1  0  0  0  0 
  1 27  1  0  0  0  0 
  1 28  1  0  0  0  0 
  4 29  1  0  0  0  0 
  6 30  1  0  0  0  0 
  7 31  1  0  0  0  0 
  8 32  1  0  0  0  0 
  8 33  1  0  0  0  0 
  9 34  1  0  0  0  0 
 10 35  1  0  0  0  0 
 11 36  1  0  0  0  0 
 11 37  1  0  0  0  0 
 12 38  1  0  0  0  0 
 15 39  1  0  0  0  0 
 15 40  1  0  0  0  0 
 17 41  1  0  0  0  0 
 17 42  1  0  0  0  0 
 18 43  1  0  0  0  0 
 18 44  1  0  0  0  0 
 19 45  1  0  0  0  0 
 19 46  1  0  0  0  0 
 20 47  1  0  0  0  0 
 20 48  1  0  0  0  0 
 21 49  1  0  0  0  0 
 21 50  1  0  0  0  0 
 22 51  1  0  0  0  0 
 22 52  1  0  0  0  0 
 23 53  1  0  0  0  0 
 23 54  1  0  0  0  0 
 24 55  1  0  0  0  0 
 24 56  1  0  0  0  0 
 25 57  1  0  0  0  0 
 25 58  1  0  0  0  0 
 26 59  1  0  0  0  0 
 26 60  1  0  0  0  0 
 26 61  1  0  0  0  0 
M  CHG  1   3   1
M  END
> <cdk:Title>
lapyrium chloride

> <Conformer>
1

> <SuperDrugID>
SD002862

$$$$
