allobarbital
  CDK     0628171801

 27 27  0  0  0  0  0  0  0  0999 V2000
    1.3795    1.3779   -0.9016 C   0  0  2  0  0  0  0  0  0  0  0  0
    2.3232    1.2042    0.2019 C   0  0  0  0  0  0  0  0  0  0  0  0
    2.0404    1.8238   -2.2601 C   0  0  1  0  0  0  0  0  0  0  0  0
    2.5887    0.0299    0.7866 C   0  0  0  0  0  0  0  0  0  0  0  0
    0.9730    2.0715   -3.3939 C   0  0  2  0  0  0  0  0  0  0  0  0
    2.7684    3.1297   -2.0553 C   0  0  0  0  0  0  0  0  0  0  0  0
    3.0140    0.7604   -2.7021 C   0  0  0  0  0  0  0  0  0  0  0  0
    0.1037    0.9468   -3.7185 C   0  0  0  0  0  0  0  0  0  0  0  0
    2.1603    4.1535   -1.6646 O   0  0  0  0  0  0  0  0  0  0  0  0
    4.1012    3.2680   -2.2711 N   0  0  0  0  0  0  0  0  0  0  0  0
    2.6418   -0.4195   -2.8998 O   0  0  0  0  0  0  0  0  0  0  0  0
    4.3372    1.0031   -2.8744 N   0  0  0  0  0  0  0  0  0  0  0  0
    0.2235    0.2083   -4.8306 C   0  0  0  0  0  0  0  0  0  0  0  0
    4.8701    2.2281   -2.6670 C   0  0  0  0  0  0  0  0  0  0  0  0
    6.0945    2.4050   -2.8421 O   0  0  0  0  0  0  0  0  0  0  0  0
    0.6432    2.1240   -0.5894 H   0  0  0  0  0  0  0  0  0  0  0  0
    0.8191    0.4508   -1.0627 H   0  0  0  0  0  0  0  0  0  0  0  0
    2.8040    2.0080    0.5389 H   0  0  0  0  0  0  0  0  0  0  0  0
    2.1386   -0.8057    0.4943 H   0  0  0  0  0  0  0  0  0  0  0  0
    3.2483   -0.0176    1.5265 H   0  0  0  0  0  0  0  0  0  0  0  0
    1.4927    2.4103   -4.2981 H   0  0  0  0  0  0  0  0  0  0  0  0
    0.3116    2.8924   -3.1006 H   0  0  0  0  0  0  0  0  0  0  0  0
   -0.6252    0.7176   -3.0808 H   0  0  0  0  0  0  0  0  0  0  0  0
    4.5156    4.1344   -2.1339 H   0  0  0  0  0  0  0  0  0  0  0  0
    4.9179    0.2761   -3.1518 H   0  0  0  0  0  0  0  0  0  0  0  0
   -0.4010   -0.5439   -5.0033 H   0  0  0  0  0  0  0  0  0  0  0  0
    0.9360    0.3956   -5.4970 H   0  0  0  0  0  0  0  0  0  0  0  0
  1  2  1  0  0  0  0 
  1  3  1  0  0  0  0 
  2  4  2  0  0  0  0 
  3  5  1  0  0  0  0 
  3  6  1  0  0  0  0 
  3  7  1  0  0  0  0 
  5  8  1  0  0  0  0 
  6  9  2  0  0  0  0 
  6 10  1  0  0  0  0 
  7 11  2  0  0  0  0 
  7 12  1  0  0  0  0 
  8 13  2  0  0  0  0 
 10 14  1  0  0  0  0 
 12 14  1  0  0  0  0 
 14 15  2  0  0  0  0 
 16  1  1  0  0  0  0 
 17  1  1  0  0  0  0 
 18  2  1  0  0  0  0 
 19  4  1  0  0  0  0 
 20  4  1  0  0  0  0 
 21  5  1  0  0  0  0 
 22  5  1  0  0  0  0 
 23  8  1  0  0  0  0 
 24 10  1  0  0  0  0 
 25 12  1  0  0  0  0 
 26 13  1  0  0  0  0 
 27 13  1  0  0  0  0 
M  END
> <cdk:Title>
allobarbital

> <Conformer>
1

> <SuperDrugID>
SD000092

$$$$
