tolindate
  CDK     0628171801

 40 42  0  0  0  0  0  0  0  0999 V2000
   -0.3794    2.2348    0.7468 O   0  0  0  0  0  0  0  0  0  0  0  0
   -1.2015    1.1817    0.6507 C   0  0  0  0  0  0  0  0  0  0  0  0
    0.5721    2.2037   -0.2369 C   0  0  0  0  0  0  0  0  0  0  0  0
   -2.3501    1.2792   -0.0416 N   0  0  0  0  0  0  0  0  0  0  0  0
   -0.8361   -0.2438    1.5127 S   0  0  0  0  0  0  0  0  0  0  0  0
    1.8195    1.5805   -0.0027 C   0  0  0  0  0  0  0  0  0  0  0  0
    0.3222    2.8217   -1.4852 C   0  0  0  0  0  0  0  0  0  0  0  0
   -2.4917    0.4370   -1.2100 C   0  0  0  0  0  0  0  0  0  0  0  0
   -3.3628    2.1595    0.3547 C   0  0  0  0  0  0  0  0  0  0  0  0
    2.7824    1.5546   -1.0302 C   0  0  0  0  0  0  0  0  0  0  0  0
    1.2934    2.7925   -2.5056 C   0  0  0  0  0  0  0  0  0  0  0  0
   -3.4615    2.6333    1.6920 C   0  0  0  0  0  0  0  0  0  0  0  0
   -4.3706    2.5982   -0.5451 C   0  0  0  0  0  0  0  0  0  0  0  0
    2.5215    2.1484   -2.2650 C   0  0  0  0  0  0  0  0  0  0  0  0
    4.1182    0.9622   -0.9801 C   0  0  2  0  0  0  0  0  0  0  0  0
   -4.5249    3.4499    2.1351 C   0  0  0  0  0  0  0  0  0  0  0  0
   -5.4370    3.4113   -0.1286 C   0  0  0  0  0  0  0  0  0  0  0  0
    3.6491    2.0223   -3.1877 C   0  0  1  0  0  0  0  0  0  0  0  0
    4.6242    1.0795   -2.4401 C   0  0  2  0  0  0  0  0  0  0  0  0
   -4.5798    3.8649    3.5554 C   0  0  0  0  0  0  0  0  0  0  0  0
   -5.5180    3.8309    1.2083 C   0  0  0  0  0  0  0  0  0  0  0  0
    2.0188    1.1458    0.9010 H   0  0  0  0  0  0  0  0  0  0  0  0
   -0.5717    3.2897   -1.6510 H   0  0  0  0  0  0  0  0  0  0  0  0
   -3.4484   -0.0903   -1.1838 H   0  0  0  0  0  0  0  0  0  0  0  0
   -1.7079   -0.3189   -1.3042 H   0  0  0  0  0  0  0  0  0  0  0  0
   -2.4479    1.0493   -2.1108 H   0  0  0  0  0  0  0  0  0  0  0  0
    1.1086    3.2369   -3.4071 H   0  0  0  0  0  0  0  0  0  0  0  0
   -2.7537    2.3668    2.3778 H   0  0  0  0  0  0  0  0  0  0  0  0
   -4.3482    2.3237   -1.5269 H   0  0  0  0  0  0  0  0  0  0  0  0
    4.0729   -0.0806   -0.6598 H   0  0  0  0  0  0  0  0  0  0  0  0
    4.7508    1.5281   -0.2931 H   0  0  0  0  0  0  0  0  0  0  0  0
   -6.1604    3.6866   -0.7989 H   0  0  0  0  0  0  0  0  0  0  0  0
    3.3290    1.5865   -4.1364 H   0  0  0  0  0  0  0  0  0  0  0  0
    4.0998    3.0022   -3.3658 H   0  0  0  0  0  0  0  0  0  0  0  0
    4.6187    0.0917   -2.9129 H   0  0  0  0  0  0  0  0  0  0  0  0
    5.6444    1.4693   -2.4704 H   0  0  0  0  0  0  0  0  0  0  0  0
   -3.7222    4.5030    3.7821 H   0  0  0  0  0  0  0  0  0  0  0  0
   -4.5402    2.9770    4.1914 H   0  0  0  0  0  0  0  0  0  0  0  0
   -5.4941    4.4151    3.7899 H   0  0  0  0  0  0  0  0  0  0  0  0
   -6.3079    4.4138    1.4959 H   0  0  0  0  0  0  0  0  0  0  0  0
  1  2  1  0  0  0  0 
  1  3  1  0  0  0  0 
  2  4  1  0  0  0  0 
  2  5  2  0  0  0  0 
  3  6  2  0  0  0  0 
  3  7  1  0  0  0  0 
  4  8  1  0  0  0  0 
  4  9  1  0  0  0  0 
  6 10  1  0  0  0  0 
  7 11  2  0  0  0  0 
  9 12  2  0  0  0  0 
  9 13  1  0  0  0  0 
 10 14  2  0  0  0  0 
 10 15  1  0  0  0  0 
 11 14  1  0  0  0  0 
 12 16  1  0  0  0  0 
 13 17  2  0  0  0  0 
 14 18  1  0  0  0  0 
 15 19  1  0  0  0  0 
 16 20  1  0  0  0  0 
 16 21  2  0  0  0  0 
 17 21  1  0  0  0  0 
 18 19  1  0  0  0  0 
  6 22  1  0  0  0  0 
  7 23  1  0  0  0  0 
  8 24  1  0  0  0  0 
  8 25  1  0  0  0  0 
  8 26  1  0  0  0  0 
 11 27  1  0  0  0  0 
 12 28  1  0  0  0  0 
 13 29  1  0  0  0  0 
 15 30  1  0  0  0  0 
 15 31  1  0  0  0  0 
 17 32  1  0  0  0  0 
 18 33  1  0  0  0  0 
 18 34  1  0  0  0  0 
 19 35  1  0  0  0  0 
 19 36  1  0  0  0  0 
 20 37  1  0  0  0  0 
 20 38  1  0  0  0  0 
 20 39  1  0  0  0  0 
 21 40  1  0  0  0  0 
M  END
> <cdk:Title>
tolindate

> <Conformer>
1

> <SuperDrugID>
SD003096

$$$$
