alminoprofen
  CDK     0628171801

 33 33  0  0  0  0  0  0  0  0999 V2000
   -5.2525   -2.6156   -6.0120 C   0  0  0  0  0  0  0  0  0  0  0  0
   -5.2919   -1.3541   -5.1075 C   0  0  2  0  0  0  0  0  0  0  0  0
   -5.3598   -0.0987   -5.8969 C   0  0  0  0  0  0  0  0  0  0  0  0
   -6.3069    0.8314   -5.6259 O   0  0  0  0  0  0  0  0  0  0  0  0
   -4.5523    0.1456   -6.8231 O   0  0  0  0  0  0  0  0  0  0  0  0
   -4.1605   -1.3202   -4.1218 C   0  0  0  0  0  0  0  0  0  0  0  0
   -2.8100   -1.2380   -4.5415 C   0  0  0  0  0  0  0  0  0  0  0  0
   -1.7559   -1.1930   -3.6090 C   0  0  0  0  0  0  0  0  0  0  0  0
   -2.0224   -1.2334   -2.2207 C   0  0  0  0  0  0  0  0  0  0  0  0
   -1.0702   -1.1764   -1.2424 N   0  0  0  0  0  0  0  0  0  0  0  0
    0.3355   -0.9823   -1.4095 C   0  0  2  0  0  0  0  0  0  0  0  0
    0.9909   -1.1647   -0.1136 C   0  0  0  0  0  0  0  0  0  0  0  0
    1.3894   -2.5039    0.3164 C   0  0  0  0  0  0  0  0  0  0  0  0
    1.2056   -0.1161    0.7037 C   0  0  0  0  0  0  0  0  0  0  0  0
   -3.3638   -1.3376   -1.7971 C   0  0  0  0  0  0  0  0  0  0  0  0
   -4.4161   -1.3751   -2.7299 C   0  0  0  0  0  0  0  0  0  0  0  0
   -6.1518   -2.6704   -6.6280 H   0  0  0  0  0  0  0  0  0  0  0  0
   -5.2068   -3.5164   -5.3984 H   0  0  0  0  0  0  0  0  0  0  0  0
   -4.3845   -2.6061   -6.6741 H   0  0  0  0  0  0  0  0  0  0  0  0
   -6.2376   -1.4242   -4.5599 H   0  0  0  0  0  0  0  0  0  0  0  0
   -6.3376    1.6665   -6.1398 H   0  0  0  0  0  0  0  0  0  0  0  0
   -2.5842   -1.2048   -5.5375 H   0  0  0  0  0  0  0  0  0  0  0  0
   -0.7966   -1.1267   -3.9525 H   0  0  0  0  0  0  0  0  0  0  0  0
   -1.3876   -1.2450   -0.3270 H   0  0  0  0  0  0  0  0  0  0  0  0
    0.5108    0.0214   -1.8074 H   0  0  0  0  0  0  0  0  0  0  0  0
    0.7362   -1.6956   -2.1354 H   0  0  0  0  0  0  0  0  0  0  0  0
    1.0852   -3.2751   -0.3961 H   0  0  0  0  0  0  0  0  0  0  0  0
    0.9276   -2.7442    1.2772 H   0  0  0  0  0  0  0  0  0  0  0  0
    2.4754   -2.5553    0.4220 H   0  0  0  0  0  0  0  0  0  0  0  0
    1.6310   -0.2348    1.5918 H   0  0  0  0  0  0  0  0  0  0  0  0
    0.9332    0.8022    0.4467 H   0  0  0  0  0  0  0  0  0  0  0  0
   -3.5890   -1.3807   -0.7996 H   0  0  0  0  0  0  0  0  0  0  0  0
   -5.3764   -1.4382   -2.3799 H   0  0  0  0  0  0  0  0  0  0  0  0
  2  1  1  0  0  0  0 
  2  3  1  0  0  0  0 
  3  4  1  0  0  0  0 
  3  5  2  0  0  0  0 
  2  6  1  0  0  0  0 
  6  7  2  0  0  0  0 
  7  8  1  0  0  0  0 
  8  9  2  0  0  0  0 
  9 10  1  0  0  0  0 
 10 11  1  0  0  0  0 
 11 12  1  0  0  0  0 
 12 13  1  0  0  0  0 
 12 14  2  0  0  0  0 
  9 15  1  0  0  0  0 
 15 16  2  0  0  0  0 
  6 16  1  0  0  0  0 
  1 17  1  0  0  0  0 
  1 18  1  0  0  0  0 
  1 19  1  0  0  0  0 
  2 20  1  0  0  0  0 
  4 21  1  0  0  0  0 
  7 22  1  0  0  0  0 
  8 23  1  0  0  0  0 
 10 24  1  0  0  0  0 
 11 25  1  0  0  0  0 
 11 26  1  0  0  0  0 
 13 27  1  0  0  0  0 
 13 28  1  0  0  0  0 
 13 29  1  0  0  0  0 
 14 30  1  0  0  0  0 
 14 31  1  0  0  0  0 
 15 32  1  0  0  0  0 
 16 33  1  0  0  0  0 
M  END
> <cdk:Title>
alminoprofen

> <Conformer>
1

> <SuperDrugID>
SD000096

$$$$
