oritavancin
  CDK     0628171802

222234  0  0  0  0  0  0  0  0999 V2000
  -13.5539   -5.8501    2.7148 C   0  0  0  0  0  0  0  0  0  0  0  0
  -14.0890   -7.1572    2.7937 C   0  0  0  0  0  0  0  0  0  0  0  0
  -14.2250   -7.8986    1.5936 C   0  0  0  0  0  0  0  0  0  0  0  0
  -14.0189   -7.3103    0.3297 C   0  0  0  0  0  0  0  0  0  0  0  0
  -13.3505   -6.0753    0.2893 C   0  0  0  0  0  0  0  0  0  0  0  0
  -13.1892   -5.2992    1.4621 C   0  0  0  0  0  0  0  0  0  0  0  0
  -12.8185   -3.9702    1.3731 O   0  0  0  0  0  0  0  0  0  0  0  0
  -14.5559   -7.6197    4.0208 O   0  0  0  0  0  0  0  0  0  0  0  0
  -13.4982   -5.0718    3.8393 O   0  0  0  0  0  0  0  0  0  0  0  0
  -13.7819   -3.2899    0.6553 C   0  0  0  0  0  0  0  0  0  0  0  0
  -13.5557   -2.9486   -0.6980 C   0  0  0  0  0  0  0  0  0  0  0  0
  -15.0497   -3.0384    1.2238 C   0  0  0  0  0  0  0  0  0  0  0  0
  -16.1132   -2.6009    0.4187 C   0  0  0  0  0  0  0  0  0  0  0  0
  -15.9357   -2.3945   -0.9689 C   0  0  0  0  0  0  0  0  0  0  0  0
  -14.6314   -2.5310   -1.5028 C   0  0  0  0  0  0  0  0  0  0  0  0
  -15.7186   -8.3606    3.9264 C   0  0  0  0  0  0  0  0  0  0  0  0
  -15.6866   -9.7505    4.1680 C   0  0  0  0  0  0  0  0  0  0  0  0
  -16.7818  -10.5550    3.7901 C   0  0  0  0  0  0  0  0  0  0  0  0
  -17.9178  -10.0038    3.1434 C   0  0  0  0  0  0  0  0  0  0  0  0
  -17.9923   -8.5899    3.0552 C   0  0  0  0  0  0  0  0  0  0  0  0
  -16.9144   -7.7776    3.4521 C   0  0  0  0  0  0  0  0  0  0  0  0
  -12.2595   -5.1255    4.5747 C   0  0  1  0  0  0  0  0  0  0  0  0
  -10.9309   -5.7200    7.1499 C   0  0  1  0  0  0  0  0  0  0  0  0
  -11.1833   -4.2478    6.7282 C   0  0  1  0  0  0  0  0  0  0  0  0
  -12.4108   -4.1463    5.7751 C   0  0  1  0  0  0  0  0  0  0  0  0
  -12.0208   -6.4690    5.0628 O   0  0  0  0  0  0  0  0  0  0  0  0
  -10.8411   -6.6286    5.8851 C   0  0  2  0  0  0  0  0  0  0  0  0
  -18.9640  -10.9113    2.5511 C   0  0  2  0  0  0  0  0  0  0  0  0
  -14.3185  -10.4806    4.8503 Cl  0  0  0  0  0  0  0  0  0  0  0  0
  -18.3965  -11.9882    1.5349 C   0  0  1  0  0  0  0  0  0  0  0  0
  -20.0604  -10.1538    1.9599 O   0  0  0  0  0  0  0  0  0  0  0  0
  -19.3400  -11.4694    3.4206 H   0  0  0  0  0  0  0  0  0  0  0  0
  -21.3786  -10.3357    2.5391 C   0  0  1  0  0  0  0  0  0  0  0  0
  -22.3507   -9.2141    2.0771 C   0  0  2  0  0  0  0  0  0  0  0  0
  -23.8249   -9.4748    2.5303 C   0  0  1  0  0  0  0  0  0  0  0  0
  -24.2480  -10.9446    2.1779 C   0  0  2  0  0  0  0  0  0  0  0  0
  -23.1810  -12.0091    2.5906 C   0  0  1  0  0  0  0  0  0  0  0  0
  -21.8625  -11.6343    2.1332 O   0  0  0  0  0  0  0  0  0  0  0  0
  -23.1855  -12.4244    4.0866 C   0  0  0  0  0  0  0  0  0  0  0  0
  -24.4721  -11.0890    0.7729 O   0  0  0  0  0  0  0  0  0  0  0  0
  -23.9094   -9.2886    3.9922 N   0  0  1  0  0  0  0  0  0  0  0  0
  -24.8009   -8.4333    1.8990 C   0  0  0  0  0  0  0  0  0  0  0  0
  -19.3504  -12.6279    0.5553 C   0  0  0  0  0  0  0  0  0  0  0  0
  -17.0655  -11.9040    1.0053 N   0  0  0  0  0  0  0  0  0  0  0  0
  -18.1771  -12.8126    2.2247 H   0  0  0  0  0  0  0  0  0  0  0  0
  -16.3938  -10.8883    0.3837 C   0  0  0  0  0  0  0  0  0  0  0  0
  -15.1368  -11.2853   -0.3530 C   0  0  1  0  0  0  0  0  0  0  0  0
  -16.9351   -9.7668    0.3573 O   0  0  0  0  0  0  0  0  0  0  0  0
  -19.7427  -12.3001   -0.7263 N   0  0  0  0  0  0  0  0  0  0  0  0
  -19.9025  -13.6911    0.9268 O   0  0  0  0  0  0  0  0  0  0  0  0
  -19.5361  -11.1315   -1.5386 C   0  0  1  0  0  0  0  0  0  0  0  0
  -19.5245  -11.4743   -3.0324 C   0  0  0  0  0  0  0  0  0  0  0  0
  -20.5059  -10.9439   -3.9201 C   0  0  0  0  0  0  0  0  0  0  0  0
  -20.5542  -11.2691   -5.2875 C   0  0  0  0  0  0  0  0  0  0  0  0
  -19.6025  -12.1420   -5.8257 C   0  0  0  0  0  0  0  0  0  0  0  0
  -18.5835  -12.6570   -5.0127 C   0  0  0  0  0  0  0  0  0  0  0  0
  -18.5312  -12.3271   -3.6298 C   0  0  0  0  0  0  0  0  0  0  0  0
  -21.5079  -10.7493   -6.1010 O   0  0  0  0  0  0  0  0  0  0  0  0
  -17.6646  -13.4520   -5.6292 O   0  0  0  0  0  0  0  0  0  0  0  0
  -17.4397  -12.8340   -2.8812 C   0  0  0  0  0  0  0  0  0  0  0  0
  -20.5750  -10.1553   -1.1242 C   0  0  0  0  0  0  0  0  0  0  0  0
  -18.5813  -10.6835   -1.2993 H   0  0  0  0  0  0  0  0  0  0  0  0
  -15.6281  -12.3183   -1.3192 C   0  0  0  0  0  0  0  0  0  0  0  0
  -16.5354  -11.9130   -2.3188 C   0  0  0  0  0  0  0  0  0  0  0  0
  -17.2482  -14.2165   -2.6484 C   0  0  0  0  0  0  0  0  0  0  0  0
  -16.1918  -14.6452   -1.8205 C   0  0  0  0  0  0  0  0  0  0  0  0
  -15.3972  -13.7025   -1.1399 C   0  0  0  0  0  0  0  0  0  0  0  0
  -18.0875  -15.1340   -3.1971 O   0  0  0  0  0  0  0  0  0  0  0  0
  -14.1916  -10.4642   -1.0833 N   0  0  0  0  0  0  0  0  0  0  0  0
  -14.5057  -11.7625    0.4028 H   0  0  0  0  0  0  0  0  0  0  0  0
  -13.9431   -9.1357   -1.3185 C   0  0  0  0  0  0  0  0  0  0  0  0
  -14.6598   -7.9225   -0.8745 C   0  0  2  0  0  0  0  0  0  0  0  0
  -12.9100   -8.9384   -1.9986 O   0  0  0  0  0  0  0  0  0  0  0  0
  -14.9628   -6.9892   -1.9408 N   0  0  0  0  0  0  0  0  0  0  0  0
  -15.6331   -8.2024   -0.5317 H   0  0  0  0  0  0  0  0  0  0  0  0
  -16.0657   -7.0437   -2.7566 C   0  0  0  0  0  0  0  0  0  0  0  0
  -16.3950   -5.9546   -3.7143 C   0  0  1  0  0  0  0  0  0  0  0  0
  -16.8471   -8.0243   -2.6988 O   0  0  0  0  0  0  0  0  0  0  0  0
  -16.7287   -4.7447   -3.0082 N   0  0  0  0  0  0  0  0  0  0  0  0
  -15.2399   -5.6898   -4.7207 C   0  0  1  0  0  0  0  0  0  0  0  0
  -15.6297   -4.7615   -5.8043 C   0  0  0  0  0  0  0  0  0  0  0  0
  -16.5838   -5.1045   -6.6886 N   0  0  0  0  0  0  0  0  0  0  0  0
  -15.0812   -3.6423   -5.9207 O   0  0  0  0  0  0  0  0  0  0  0  0
  -17.2622   -6.2730   -4.3047 H   0  0  0  0  0  0  0  0  0  0  0  0
  -17.9791   -4.3583   -2.6150 C   0  0  0  0  0  0  0  0  0  0  0  0
  -18.2540   -3.0797   -1.8983 C   0  0  2  0  0  0  0  0  0  0  0  0
  -18.9544   -5.1219   -2.8205 O   0  0  0  0  0  0  0  0  0  0  0  0
  -19.3447   -2.3963   -2.5347 N   0  0  0  0  0  0  0  0  0  0  0  0
  -17.1054   -2.0132   -1.8145 C   0  0  2  0  0  0  0  0  0  0  0  0
  -16.7324   -1.6259   -3.1397 O   0  0  0  0  0  0  0  0  0  0  0  0
  -17.5144   -1.1049   -1.3579 H   0  0  0  0  0  0  0  0  0  0  0  0
  -20.5703   -2.1288   -2.0029 C   0  0  0  0  0  0  0  0  0  0  0  0
  -21.4205   -1.1086   -2.6678 C   0  0  2  0  0  0  0  0  0  0  0  0
  -20.9530   -2.6714   -0.9391 O   0  0  0  0  0  0  0  0  0  0  0  0
  -21.3769    0.1803   -1.9224 N   0  0  2  0  0  0  0  0  0  0  0  0
  -22.0018    0.2545   -0.5832 C   0  0  0  0  0  0  0  0  0  0  0  0
  -22.8511   -1.6115   -3.0327 C   0  0  2  0  0  0  0  0  0  0  0  0
  -20.9372   -0.8800   -3.6200 H   0  0  0  0  0  0  0  0  0  0  0  0
  -23.7653   -0.5495   -3.7316 C   0  0  2  0  0  0  0  0  0  0  0  0
  -25.1845   -1.1277   -3.9790 C   0  0  0  0  0  0  0  0  0  0  0  0
  -23.1688    0.0042   -5.0580 C   0  0  0  0  0  0  0  0  0  0  0  0
  -12.0176   -3.0870   -1.3982 Cl  0  0  0  0  0  0  0  0  0  0  0  0
  -10.7061   -8.1289    6.2441 C   0  0  1  0  0  0  0  0  0  0  0  0
  -10.6218   -8.9213    5.0648 O   0  0  0  0  0  0  0  0  0  0  0  0
  -12.8136   -2.7996    5.4165 O   0  0  0  0  0  0  0  0  0  0  0  0
  -11.3933   -3.4401    7.8866 O   0  0  0  0  0  0  0  0  0  0  0  0
   -9.7289   -5.7855    7.9170 O   0  0  0  0  0  0  0  0  0  0  0  0
  -11.9774   -1.9605    4.5885 C   0  0  2  0  0  0  0  0  0  0  0  0
  -11.9364    0.4826    3.6452 C   0  0  1  0  0  0  0  0  0  0  0  0
  -10.5631    0.6235    4.4017 C   0  0  2  0  0  0  0  0  0  0  0  0
   -9.8419   -0.7396    4.6510 C   0  0  1  0  0  0  0  0  0  0  0  0
  -10.7426   -1.6740    5.2775 O   0  0  0  0  0  0  0  0  0  0  0  0
  -12.7744   -0.6508    4.3339 C   0  0  2  0  0  0  0  0  0  0  0  0
   -9.0907   -1.3518    3.4374 C   0  0  0  0  0  0  0  0  0  0  0  0
  -10.7325    1.2477    5.6792 O   0  0  0  0  0  0  0  0  0  0  0  0
  -12.7230    1.8328    3.7023 C   0  0  0  0  0  0  0  0  0  0  0  0
  -11.5800    0.1506    2.2290 N   0  0  1  0  0  0  0  0  0  0  0  0
  -12.5743    0.0983    1.1276 C   0  0  1  0  0  0  0  0  0  0  0  0
  -12.8980    1.4174    0.5176 C   0  0  0  0  0  0  0  0  0  0  0  0
  -12.1767    3.5308   -0.5023 C   0  0  0  0  0  0  0  0  0  0  0  0
  -11.8713    2.2825    0.0730 C   0  0  0  0  0  0  0  0  0  0  0  0
  -14.2399    1.8288    0.3483 C   0  0  0  0  0  0  0  0  0  0  0  0
  -14.5455    3.0717   -0.2352 C   0  0  0  0  0  0  0  0  0  0  0  0
  -13.5196    3.9450   -0.6676 C   0  0  0  0  0  0  0  0  0  0  0  0
  -13.8370    5.2055   -1.2519 C   0  0  0  0  0  0  0  0  0  0  0  0
  -13.5659    7.6449   -1.3479 C   0  0  0  0  0  0  0  0  0  0  0  0
  -13.2331    6.3985   -0.7846 C   0  0  0  0  0  0  0  0  0  0  0  0
  -14.7745    5.2978   -2.3099 C   0  0  0  0  0  0  0  0  0  0  0  0
  -15.1071    6.5425   -2.8756 C   0  0  0  0  0  0  0  0  0  0  0  0
  -14.5063    7.7204   -2.3930 C   0  0  0  0  0  0  0  0  0  0  0  0
  -14.9143    9.2198   -3.0651 Cl  0  0  0  0  0  0  0  0  0  0  0  0
  -18.5342   -3.3605   -0.8802 H   0  0  0  0  0  0  0  0  0  0  0  0
  -21.8992  -10.5999   -1.1624 O   0  0  0  0  0  0  0  0  0  0  0  0
  -20.1984   -8.9837   -0.7977 O   0  0  0  0  0  0  0  0  0  0  0  0
  -14.5698   -8.8580    1.6361 H   0  0  0  0  0  0  0  0  0  0  0  0
  -13.0583   -5.6947   -0.6100 H   0  0  0  0  0  0  0  0  0  0  0  0
  -15.2135   -3.2159    2.2169 H   0  0  0  0  0  0  0  0  0  0  0  0
  -17.0275   -2.4511    0.8517 H   0  0  0  0  0  0  0  0  0  0  0  0
  -14.4561   -2.3460   -2.4928 H   0  0  0  0  0  0  0  0  0  0  0  0
  -16.7318  -11.5638    3.9528 H   0  0  0  0  0  0  0  0  0  0  0  0
  -18.8133   -8.1310    2.6551 H   0  0  0  0  0  0  0  0  0  0  0  0
  -16.9754   -6.7638    3.3284 H   0  0  0  0  0  0  0  0  0  0  0  0
  -11.4270   -4.8070    3.9371 H   0  0  0  0  0  0  0  0  0  0  0  0
  -11.7547   -6.0565    7.7864 H   0  0  0  0  0  0  0  0  0  0  0  0
  -10.2849   -3.8919    6.2194 H   0  0  0  0  0  0  0  0  0  0  0  0
  -13.2639   -4.5137    6.3536 H   0  0  0  0  0  0  0  0  0  0  0  0
   -9.9550   -6.3472    5.3052 H   0  0  0  0  0  0  0  0  0  0  0  0
  -21.2987  -10.2761    3.6282 H   0  0  0  0  0  0  0  0  0  0  0  0
  -22.3182   -9.1508    0.9907 H   0  0  0  0  0  0  0  0  0  0  0  0
  -22.0015   -8.2544    2.4691 H   0  0  0  0  0  0  0  0  0  0  0  0
  -25.2020  -11.1812    2.6580 H   0  0  0  0  0  0  0  0  0  0  0  0
  -23.4197  -12.9311    2.0510 H   0  0  0  0  0  0  0  0  0  0  0  0
  -22.9745  -11.5859    4.7444 H   0  0  0  0  0  0  0  0  0  0  0  0
  -24.1556  -12.8402    4.3623 H   0  0  0  0  0  0  0  0  0  0  0  0
  -22.4220  -13.1852    4.2593 H   0  0  0  0  0  0  0  0  0  0  0  0
  -23.5946  -10.9629    0.3572 H   0  0  0  0  0  0  0  0  0  0  0  0
  -23.6989   -8.3083    4.1900 H   0  0  0  0  0  0  0  0  0  0  0  0
  -24.8840   -9.4449    4.2562 H   0  0  0  0  0  0  0  0  0  0  0  0
  -25.8284   -8.6429    2.2100 H   0  0  0  0  0  0  0  0  0  0  0  0
  -24.7588   -8.4696    0.8073 H   0  0  0  0  0  0  0  0  0  0  0  0
  -24.5473   -7.4169    2.2149 H   0  0  0  0  0  0  0  0  0  0  0  0
  -16.5754  -12.7430    1.0365 H   0  0  0  0  0  0  0  0  0  0  0  0
  -20.3097  -12.9663   -1.1481 H   0  0  0  0  0  0  0  0  0  0  0  0
  -21.2204  -10.2968   -3.5907 H   0  0  0  0  0  0  0  0  0  0  0  0
  -19.6406  -12.3907   -6.8182 H   0  0  0  0  0  0  0  0  0  0  0  0
  -21.9320  -10.0279   -5.5899 H   0  0  0  0  0  0  0  0  0  0  0  0
  -16.8820  -13.4696   -5.0419 H   0  0  0  0  0  0  0  0  0  0  0  0
  -16.6101  -10.9181   -2.5519 H   0  0  0  0  0  0  0  0  0  0  0  0
  -16.0292  -15.6447   -1.6792 H   0  0  0  0  0  0  0  0  0  0  0  0
  -14.6918  -14.0310   -0.4764 H   0  0  0  0  0  0  0  0  0  0  0  0
  -17.6899  -16.0073   -2.9985 H   0  0  0  0  0  0  0  0  0  0  0  0
  -13.5245  -11.0206   -1.5142 H   0  0  0  0  0  0  0  0  0  0  0  0
  -14.3586   -6.2427   -2.0747 H   0  0  0  0  0  0  0  0  0  0  0  0
  -15.9964   -4.1514   -2.7922 H   0  0  0  0  0  0  0  0  0  0  0  0
  -14.3802   -5.2839   -4.1807 H   0  0  0  0  0  0  0  0  0  0  0  0
  -14.9249   -6.6306   -5.1816 H   0  0  0  0  0  0  0  0  0  0  0  0
  -16.8322   -4.4957   -7.4010 H   0  0  0  0  0  0  0  0  0  0  0  0
  -17.0274   -5.9641   -6.6126 H   0  0  0  0  0  0  0  0  0  0  0  0
  -19.1627   -2.0169   -3.4088 H   0  0  0  0  0  0  0  0  0  0  0  0
  -16.1069   -0.8803   -3.0182 H   0  0  0  0  0  0  0  0  0  0  0  0
  -21.8315    0.8840   -2.5079 H   0  0  0  0  0  0  0  0  0  0  0  0
  -23.0430   -0.0679   -0.6048 H   0  0  0  0  0  0  0  0  0  0  0  0
  -21.9723    1.2914   -0.2488 H   0  0  0  0  0  0  0  0  0  0  0  0
  -21.4493   -0.3482    0.1376 H   0  0  0  0  0  0  0  0  0  0  0  0
  -23.3468   -1.9555   -2.1208 H   0  0  0  0  0  0  0  0  0  0  0  0
  -22.7557   -2.4812   -3.6899 H   0  0  0  0  0  0  0  0  0  0  0  0
  -23.8895    0.2977   -3.0508 H   0  0  0  0  0  0  0  0  0  0  0  0
  -25.6242   -1.4732   -3.0415 H   0  0  0  0  0  0  0  0  0  0  0  0
  -25.8404   -0.3601   -4.3944 H   0  0  0  0  0  0  0  0  0  0  0  0
  -25.1419   -1.9666   -4.6762 H   0  0  0  0  0  0  0  0  0  0  0  0
  -22.2465    0.5552   -4.8707 H   0  0  0  0  0  0  0  0  0  0  0  0
  -23.8662    0.6970   -5.5317 H   0  0  0  0  0  0  0  0  0  0  0  0
  -22.9557   -0.8085   -5.7549 H   0  0  0  0  0  0  0  0  0  0  0  0
   -9.7987   -8.2977    6.8268 H   0  0  0  0  0  0  0  0  0  0  0  0
  -11.5663   -8.4626    6.8285 H   0  0  0  0  0  0  0  0  0  0  0  0
  -10.4894   -9.8373    5.3888 H   0  0  0  0  0  0  0  0  0  0  0  0
  -11.5263   -2.5321    7.5422 H   0  0  0  0  0  0  0  0  0  0  0  0
   -9.6644   -6.7154    8.2201 H   0  0  0  0  0  0  0  0  0  0  0  0
  -11.7899   -2.4545    3.6334 H   0  0  0  0  0  0  0  0  0  0  0  0
   -9.8966    1.2820    3.8369 H   0  0  0  0  0  0  0  0  0  0  0  0
   -9.0603   -0.5565    5.3950 H   0  0  0  0  0  0  0  0  0  0  0  0
  -13.1291   -0.2882    5.3041 H   0  0  0  0  0  0  0  0  0  0  0  0
  -13.6615   -0.8845    3.7413 H   0  0  0  0  0  0  0  0  0  0  0  0
   -8.5438   -2.2411    3.7577 H   0  0  0  0  0  0  0  0  0  0  0  0
   -8.3728   -0.6329    3.0378 H   0  0  0  0  0  0  0  0  0  0  0  0
   -9.7699   -1.6458    2.6393 H   0  0  0  0  0  0  0  0  0  0  0  0
  -11.3002    0.6375    6.1947 H   0  0  0  0  0  0  0  0  0  0  0  0
  -13.6962    1.7340    3.2206 H   0  0  0  0  0  0  0  0  0  0  0  0
  -12.1620    2.6247    3.2024 H   0  0  0  0  0  0  0  0  0  0  0  0
  -12.9074    2.1437    4.7322 H   0  0  0  0  0  0  0  0  0  0  0  0
  -10.8456    0.7972    1.9353 H   0  0  0  0  0  0  0  0  0  0  0  0
  -12.1234   -0.5087    0.3422 H   0  0  0  0  0  0  0  0  0  0  0  0
  -13.4719   -0.4257    1.4562 H   0  0  0  0  0  0  0  0  0  0  0  0
  -11.4069    4.1317   -0.8092 H   0  0  0  0  0  0  0  0  0  0  0  0
  -10.8894    2.0103    0.1662 H   0  0  0  0  0  0  0  0  0  0  0  0
  -15.0090    1.2251    0.6497 H   0  0  0  0  0  0  0  0  0  0  0  0
  -15.5291    3.3374   -0.3331 H   0  0  0  0  0  0  0  0  0  0  0  0
  -13.1226    8.4946   -0.9897 H   0  0  0  0  0  0  0  0  0  0  0  0
  -12.5532    6.3722   -0.0200 H   0  0  0  0  0  0  0  0  0  0  0  0
  -15.2208    4.4559   -2.6833 H   0  0  0  0  0  0  0  0  0  0  0  0
  -15.7879    6.5837   -3.6384 H   0  0  0  0  0  0  0  0  0  0  0  0
  -22.6280   -9.9876   -0.9344 H   0  0  0  0  0  0  0  0  0  0  0  0
  1  2  2  0  0  0  0 
  2  3  1  0  0  0  0 
  3  4  2  0  0  0  0 
  4  5  1  0  0  0  0 
  5  6  2  0  0  0  0 
  1  6  1  0  0  0  0 
  6  7  1  0  0  0  0 
  2  8  1  0  0  0  0 
  1  9  1  0  0  0  0 
  7 10  1  0  0  0  0 
 12 13  2  0  0  0  0 
 13 14  1  0  0  0  0 
 14 15  2  0  0  0  0 
 11 15  1  0  0  0  0 
 11 10  2  0  0  0  0 
 10 12  1  0  0  0  0 
  8 16  1  0  0  0  0 
 17 18  2  0  0  0  0 
 18 19  1  0  0  0  0 
 19 20  2  0  0  0  0 
 20 21  1  0  0  0  0 
 21 16  2  0  0  0  0 
 17 16  1  0  0  0  0 
 22  9  1  0  0  0  0 
 23 24  1  0  0  0  0 
 24 25  1  0  0  0  0 
 26 27  1  0  0  0  0 
 23 27  1  0  0  0  0 
 25 22  1  0  0  0  0 
 22 26  1  0  0  0  0 
 19 28  1  0  0  0  0 
 17 29  1  0  0  0  0 
 28 30  1  0  0  0  0 
 28 31  1  0  0  0  0 
 28 32  1  0  0  0  0 
 33 31  1  0  0  0  0 
 34 35  1  0  0  0  0 
 35 36  1  0  0  0  0 
 36 37  1  0  0  0  0 
 37 38  1  0  0  0  0 
 33 34  1  0  0  0  0 
 33 38  1  0  0  0  0 
 37 39  1  0  0  0  0 
 36 40  1  0  0  0  0 
 35 41  1  0  0  0  0 
 35 42  1  0  0  0  0 
 30 43  1  0  0  0  0 
 30 44  1  0  0  0  0 
 30 45  1  0  0  0  0 
 44 46  1  0  0  0  0 
 46 47  1  0  0  0  0 
 46 48  2  0  0  0  0 
 43 49  1  0  0  0  0 
 43 50  2  0  0  0  0 
 49 51  1  0  0  0  0 
 51 52  1  0  0  0  0 
 53 54  1  0  0  0  0 
 54 55  2  0  0  0  0 
 55 56  1  0  0  0  0 
 56 57  2  0  0  0  0 
 52 53  2  0  0  0  0 
 52 57  1  0  0  0  0 
 54 58  1  0  0  0  0 
 56 59  1  0  0  0  0 
 57 60  1  0  0  0  0 
 51 61  1  0  0  0  0 
 51 62  1  0  0  0  0 
 63 64  1  0  0  0  0 
 65 66  2  0  0  0  0 
 66 67  1  0  0  0  0 
 63 67  2  0  0  0  0 
 64 60  2  0  0  0  0 
 60 65  1  0  0  0  0 
 65 68  1  0  0  0  0 
 47 63  1  0  0  0  0 
 47 69  1  0  0  0  0 
 47 70  1  0  0  0  0 
 69 71  1  0  0  0  0 
 71 72  1  0  0  0  0 
 71 73  2  0  0  0  0 
  4 72  1  0  0  0  0 
 72 74  1  0  0  0  0 
 72 75  1  0  0  0  0 
 74 76  1  0  0  0  0 
 76 77  1  0  0  0  0 
 76 78  2  0  0  0  0 
 77 79  1  0  0  0  0 
 77 80  1  0  0  0  0 
 80 81  1  0  0  0  0 
 81 82  1  0  0  0  0 
 81 83  2  0  0  0  0 
 77 84  1  0  0  0  0 
 79 85  1  0  0  0  0 
 85 86  1  0  0  0  0 
 85 87  2  0  0  0  0 
 86 88  1  0  0  0  0 
 14 89  1  0  0  0  0 
 89 90  1  0  0  0  0 
 89 86  1  0  0  0  0 
 89 91  1  0  0  0  0 
 88 92  1  0  0  0  0 
 92 93  1  0  0  0  0 
 92 94  2  0  0  0  0 
 93 95  1  0  0  0  0 
 95 96  1  0  0  0  0 
 93 97  1  0  0  0  0 
 93 98  1  0  0  0  0 
 97 99  1  0  0  0  0 
 99100  1  0  0  0  0 
 99101  1  0  0  0  0 
 11102  1  0  0  0  0 
 27103  1  0  0  0  0 
103104  1  0  0  0  0 
 25105  1  0  0  0  0 
 24106  1  0  0  0  0 
 23107  1  0  0  0  0 
108105  1  0  0  0  0 
109110  1  0  0  0  0 
110111  1  0  0  0  0 
111112  1  0  0  0  0 
109113  1  0  0  0  0 
112108  1  0  0  0  0 
108113  1  0  0  0  0 
111114  1  0  0  0  0 
110115  1  0  0  0  0 
109116  1  0  0  0  0 
109117  1  0  0  0  0 
117118  1  0  0  0  0 
118119  1  0  0  0  0 
120121  1  0  0  0  0 
122123  2  0  0  0  0 
123124  1  0  0  0  0 
120124  2  0  0  0  0 
121119  2  0  0  0  0 
119122  1  0  0  0  0 
124125  1  0  0  0  0 
126127  1  0  0  0  0 
128129  2  0  0  0  0 
129130  1  0  0  0  0 
126130  2  0  0  0  0 
127125  2  0  0  0  0 
125128  1  0  0  0  0 
130131  1  0  0  0  0 
 86132  1  0  0  0  0 
133 61  1  0  0  0  0 
 61134  2  0  0  0  0 
  3135  1  0  0  0  0 
  5136  1  0  0  0  0 
 12137  1  0  0  0  0 
 13138  1  0  0  0  0 
 15139  1  0  0  0  0 
 18140  1  0  0  0  0 
 20141  1  0  0  0  0 
 21142  1  0  0  0  0 
 22143  1  0  0  0  0 
 23144  1  0  0  0  0 
 24145  1  0  0  0  0 
 25146  1  0  0  0  0 
 27147  1  0  0  0  0 
 33148  1  0  0  0  0 
 34149  1  0  0  0  0 
 34150  1  0  0  0  0 
 36151  1  0  0  0  0 
 37152  1  0  0  0  0 
 39153  1  0  0  0  0 
 39154  1  0  0  0  0 
 39155  1  0  0  0  0 
 40156  1  0  0  0  0 
 41157  1  0  0  0  0 
 41158  1  0  0  0  0 
 42159  1  0  0  0  0 
 42160  1  0  0  0  0 
 42161  1  0  0  0  0 
 44162  1  0  0  0  0 
 49163  1  0  0  0  0 
 53164  1  0  0  0  0 
 55165  1  0  0  0  0 
 58166  1  0  0  0  0 
 59167  1  0  0  0  0 
 64168  1  0  0  0  0 
 66169  1  0  0  0  0 
 67170  1  0  0  0  0 
 68171  1  0  0  0  0 
 69172  1  0  0  0  0 
 74173  1  0  0  0  0 
 79174  1  0  0  0  0 
 80175  1  0  0  0  0 
 80176  1  0  0  0  0 
 82177  1  0  0  0  0 
 82178  1  0  0  0  0 
 88179  1  0  0  0  0 
 90180  1  0  0  0  0 
 95181  1  0  0  0  0 
 96182  1  0  0  0  0 
 96183  1  0  0  0  0 
 96184  1  0  0  0  0 
 97185  1  0  0  0  0 
 97186  1  0  0  0  0 
 99187  1  0  0  0  0 
100188  1  0  0  0  0 
100189  1  0  0  0  0 
100190  1  0  0  0  0 
101191  1  0  0  0  0 
101192  1  0  0  0  0 
101193  1  0  0  0  0 
103194  1  0  0  0  0 
103195  1  0  0  0  0 
104196  1  0  0  0  0 
106197  1  0  0  0  0 
107198  1  0  0  0  0 
108199  1  0  0  0  0 
110200  1  0  0  0  0 
111201  1  0  0  0  0 
113202  1  0  0  0  0 
113203  1  0  0  0  0 
114204  1  0  0  0  0 
114205  1  0  0  0  0 
114206  1  0  0  0  0 
115207  1  0  0  0  0 
116208  1  0  0  0  0 
116209  1  0  0  0  0 
116210  1  0  0  0  0 
117211  1  0  0  0  0 
118212  1  0  0  0  0 
118213  1  0  0  0  0 
120214  1  0  0  0  0 
121215  1  0  0  0  0 
122216  1  0  0  0  0 
123217  1  0  0  0  0 
126218  1  0  0  0  0 
127219  1  0  0  0  0 
128220  1  0  0  0  0 
129221  1  0  0  0  0 
133222  1  0  0  0  0 
M  END
> <cdk:Title>
oritavancin

> <Conformer>
1

> <SuperDrugID>
SD003709

$$$$
