pancuronium
  CDK     0628171801

101106  0  0  0  0  0  0  0  0999 V2000
   -3.7964   -6.6326    7.0508 C   0  0  0  0  0  0  0  0  0  0  0  0
   -2.8413   -7.9481    6.7511 C   0  0  2  0  0  0  0  0  0  0  0  0
   -2.6307   -8.2914    5.1972 C   0  0  2  0  0  0  0  0  0  0  0  0
   -3.4656   -9.3005    7.2953 C   0  0  1  0  0  0  0  0  0  0  0  0
   -1.3132   -7.5810    7.2307 C   0  0  2  0  0  0  0  0  0  0  0  0
   -2.0944   -7.0968    4.2909 C   0  0  1  0  0  0  0  0  0  0  0  0
   -4.0172   -8.8989    4.8816 C   0  0  1  0  0  0  0  0  0  0  0  0
   -4.1668   -9.0459    8.5202 O   0  0  0  0  0  0  0  0  0  0  0  0
   -4.3691   -9.8256    6.1029 C   0  0  2  0  0  0  0  0  0  0  0  0
   -0.6325   -6.4068    6.4037 C   0  0  2  0  0  0  0  0  0  0  0  0
   -0.6915   -6.5831    4.8375 C   0  0  2  0  0  0  0  0  0  0  0  0
   -2.0082   -7.4507    2.7785 C   0  0  2  0  0  0  0  0  0  0  0  0
   -3.6620   -9.0012    9.7881 C   0  0  0  0  0  0  0  0  0  0  0  0
   -5.8598  -10.1933    6.3214 N   0  0  2  0  0  0  0  0  0  0  0  0
   -0.1335   -5.3340    4.0015 C   0  0  2  0  0  0  0  0  0  0  0  0
   -1.4213   -6.2873    1.9360 C   0  0  1  0  0  0  0  0  0  0  0  0
   -4.5762   -8.6620   10.8891 C   0  0  0  0  0  0  0  0  0  0  0  0
   -2.4575   -9.2511   10.0238 O   0  0  0  0  0  0  0  0  0  0  0  0
   -6.6846   -8.9864    6.7255 C   0  0  0  0  0  0  0  0  0  0  0  0
   -5.9732  -11.2820    7.3902 C   0  0  2  0  0  0  0  0  0  0  0  0
   -6.4276  -10.7596    5.0181 C   0  0  1  0  0  0  0  0  0  0  0  0
   -1.0547   -4.0776    4.2248 C   0  0  0  0  0  0  0  0  0  0  0  0
   -0.0505   -5.7906    2.4901 C   0  0  1  0  0  0  0  0  0  0  0  0
    1.3433   -4.9606    4.4277 C   0  0  2  0  0  0  0  0  0  0  0  0
   -7.3527  -11.9889    7.5337 C   0  0  2  0  0  0  0  0  0  0  0  0
   -7.8307  -11.4285    5.0971 C   0  0  1  0  0  0  0  0  0  0  0  0
    0.5857   -4.7185    1.5576 C   0  0  2  0  0  0  0  0  0  0  0  0
    2.2068   -3.9494    3.5567 C   0  0  1  0  0  0  0  0  0  0  0  0
   -7.8590  -12.5321    6.1777 C   0  0  1  0  0  0  0  0  0  0  0  0
    1.9920   -4.2362    2.0091 C   0  0  1  0  0  0  0  0  0  0  0  0
    2.4134   -2.4577    3.9800 N   0  0  2  0  0  0  0  0  0  0  0  0
    2.9566   -5.2194    1.5814 O   0  0  0  0  0  0  0  0  0  0  0  0
    2.5988   -2.3505    5.4884 C   0  0  0  0  0  0  0  0  0  0  0  0
    1.2454   -1.5616    3.5831 C   0  0  2  0  0  0  0  0  0  0  0  0
    3.7176   -1.9373    3.3444 C   0  0  1  0  0  0  0  0  0  0  0  0
    3.8886   -5.1055    0.5836 C   0  0  0  0  0  0  0  0  0  0  0  0
    1.4861   -0.0255    3.6101 C   0  0  2  0  0  0  0  0  0  0  0  0
    3.9738   -0.4046    3.3661 C   0  0  1  0  0  0  0  0  0  0  0  0
    4.8680   -6.1806    0.3810 C   0  0  0  0  0  0  0  0  0  0  0  0
    3.9286   -4.1181   -0.1881 O   0  0  0  0  0  0  0  0  0  0  0  0
    2.7525    0.3606    2.8186 C   0  0  1  0  0  0  0  0  0  0  0  0
   -2.8458   -6.3171    4.3774 H   0  0  0  0  0  0  0  0  0  0  0  0
    0.0009   -7.4143    4.6537 H   0  0  0  0  0  0  0  0  0  0  0  0
   -1.9042   -9.1293    4.9825 H   0  0  0  0  0  0  0  0  0  0  0  0
    0.6232   -6.6572    2.4324 H   0  0  0  0  0  0  0  0  0  0  0  0
   -4.8659   -6.7450    6.7582 H   0  0  0  0  0  0  0  0  0  0  0  0
   -3.8408   -6.3330    8.1270 H   0  0  0  0  0  0  0  0  0  0  0  0
   -3.4930   -5.6935    6.5325 H   0  0  0  0  0  0  0  0  0  0  0  0
   -2.7398  -10.1310    7.5360 H   0  0  0  0  0  0  0  0  0  0  0  0
   -0.5914   -8.4386    7.1588 H   0  0  0  0  0  0  0  0  0  0  0  0
   -1.2287   -7.2696    8.3046 H   0  0  0  0  0  0  0  0  0  0  0  0
   -4.7459   -8.1018    4.7439 H   0  0  0  0  0  0  0  0  0  0  0  0
   -3.9804   -9.4747    3.9523 H   0  0  0  0  0  0  0  0  0  0  0  0
   -3.8854  -10.7711    5.8188 H   0  0  0  0  0  0  0  0  0  0  0  0
    0.4088   -6.3441    6.7304 H   0  0  0  0  0  0  0  0  0  0  0  0
   -1.1127   -5.4717    6.6872 H   0  0  0  0  0  0  0  0  0  0  0  0
   -3.0053   -7.6816    2.3947 H   0  0  0  0  0  0  0  0  0  0  0  0
   -1.3890   -8.3408    2.6434 H   0  0  0  0  0  0  0  0  0  0  0  0
   -1.2960   -6.6409    0.9089 H   0  0  0  0  0  0  0  0  0  0  0  0
   -2.1334   -5.4586    1.9094 H   0  0  0  0  0  0  0  0  0  0  0  0
   -4.0706   -8.7131   11.8557 H   0  0  0  0  0  0  0  0  0  0  0  0
   -4.9561   -7.6507   10.7476 H   0  0  0  0  0  0  0  0  0  0  0  0
   -5.4142   -9.3593   10.8950 H   0  0  0  0  0  0  0  0  0  0  0  0
   -6.3514   -8.5462    7.6619 H   0  0  0  0  0  0  0  0  0  0  0  0
   -7.7347   -9.2311    6.8756 H   0  0  0  0  0  0  0  0  0  0  0  0
   -6.6609   -8.2050    5.9663 H   0  0  0  0  0  0  0  0  0  0  0  0
   -5.7361  -10.8897    8.3793 H   0  0  0  0  0  0  0  0  0  0  0  0
   -5.2431  -12.0734    7.1935 H   0  0  0  0  0  0  0  0  0  0  0  0
   -6.4909   -9.9799    4.2535 H   0  0  0  0  0  0  0  0  0  0  0  0
   -5.7524  -11.5243    4.6198 H   0  0  0  0  0  0  0  0  0  0  0  0
   -0.9102   -3.3309    3.4553 H   0  0  0  0  0  0  0  0  0  0  0  0
   -0.8554   -3.6118    5.1913 H   0  0  0  0  0  0  0  0  0  0  0  0
   -2.1140   -4.3055    4.1957 H   0  0  0  0  0  0  0  0  0  0  0  0
    1.8942   -5.9097    4.4371 H   0  0  0  0  0  0  0  0  0  0  0  0
    1.3411   -4.6487    5.4662 H   0  0  0  0  0  0  0  0  0  0  0  0
   -8.0914  -11.2991    7.9515 H   0  0  0  0  0  0  0  0  0  0  0  0
   -7.2560  -12.8203    8.2377 H   0  0  0  0  0  0  0  0  0  0  0  0
   -8.6025  -10.6847    5.3115 H   0  0  0  0  0  0  0  0  0  0  0  0
   -8.0746  -11.8709    4.1279 H   0  0  0  0  0  0  0  0  0  0  0  0
   -0.0796   -3.8592    1.4629 H   0  0  0  0  0  0  0  0  0  0  0  0
    0.6879   -5.1390    0.5502 H   0  0  0  0  0  0  0  0  0  0  0  0
    3.2094   -4.3559    3.7561 H   0  0  0  0  0  0  0  0  0  0  0  0
   -7.2270  -13.3660    5.8613 H   0  0  0  0  0  0  0  0  0  0  0  0
   -8.8806  -12.9067    6.2872 H   0  0  0  0  0  0  0  0  0  0  0  0
    2.1605   -3.3267    1.4305 H   0  0  0  0  0  0  0  0  0  0  0  0
    3.3431   -3.0645    5.8506 H   0  0  0  0  0  0  0  0  0  0  0  0
    2.9279   -1.3620    5.8108 H   0  0  0  0  0  0  0  0  0  0  0  0
    1.6726   -2.5369    6.0346 H   0  0  0  0  0  0  0  0  0  0  0  0
    0.3981   -1.7233    4.2483 H   0  0  0  0  0  0  0  0  0  0  0  0
    0.9003   -1.7922    2.5756 H   0  0  0  0  0  0  0  0  0  0  0  0
    4.5885   -2.4144    3.8066 H   0  0  0  0  0  0  0  0  0  0  0  0
    3.7835   -2.2045    2.2924 H   0  0  0  0  0  0  0  0  0  0  0  0
    1.5793    0.3211    4.6429 H   0  0  0  0  0  0  0  0  0  0  0  0
    0.6234    0.4838    3.1700 H   0  0  0  0  0  0  0  0  0  0  0  0
    4.1983   -0.0657    4.3790 H   0  0  0  0  0  0  0  0  0  0  0  0
    4.8464   -0.1725    2.7476 H   0  0  0  0  0  0  0  0  0  0  0  0
    5.8800   -5.7708    0.4150 H   0  0  0  0  0  0  0  0  0  0  0  0
    4.7039   -6.6519   -0.5920 H   0  0  0  0  0  0  0  0  0  0  0  0
    4.7776   -6.9355    1.1639 H   0  0  0  0  0  0  0  0  0  0  0  0
    2.6132    0.1242    1.7591 H   0  0  0  0  0  0  0  0  0  0  0  0
    2.9280    1.4350    2.9052 H   0  0  0  0  0  0  0  0  0  0  0  0
  2  1  1  0  0  0  0 
  3  2  1  0  0  0  0 
  2  4  1  0  0  0  0 
  2  5  1  0  0  0  0 
  6  3  1  0  0  0  0 
  3  7  1  0  0  0  0 
  3 44  1  0  0  0  0 
  4  8  1  0  0  0  0 
  4  9  1  0  0  0  0 
  5 10  1  0  0  0  0 
 11  6  1  0  0  0  0 
  6 12  1  0  0  0  0 
  6 42  1  0  0  0  0 
  9  7  1  0  0  0  0 
  8 13  1  0  0  0  0 
  9 14  1  0  0  0  0 
 11 10  1  0  0  0  0 
 15 11  1  0  0  0  0 
 11 43  1  0  0  0  0 
 12 16  1  0  0  0  0 
 13 17  1  0  0  0  0 
 13 18  2  0  0  0  0 
 14 19  1  0  0  0  0 
 14 20  1  0  0  0  0 
 14 21  1  0  0  0  0 
 15 22  1  0  0  0  0 
 15 23  1  0  0  0  0 
 15 24  1  0  0  0  0 
 23 16  1  0  0  0  0 
 20 25  1  0  0  0  0 
 21 26  1  0  0  0  0 
 23 27  1  0  0  0  0 
 23 45  1  0  0  0  0 
 28 24  1  0  0  0  0 
 25 29  1  0  0  0  0 
 26 29  1  0  0  0  0 
 30 27  1  0  0  0  0 
 30 28  1  0  0  0  0 
 28 31  1  0  0  0  0 
 30 32  1  0  0  0  0 
 31 33  1  0  0  0  0 
 31 34  1  0  0  0  0 
 31 35  1  0  0  0  0 
 32 36  1  0  0  0  0 
 34 37  1  0  0  0  0 
 35 38  1  0  0  0  0 
 36 39  1  0  0  0  0 
 36 40  2  0  0  0  0 
 37 41  1  0  0  0  0 
 38 41  1  0  0  0  0 
  1 46  1  0  0  0  0 
  1 47  1  0  0  0  0 
  1 48  1  0  0  0  0 
  4 49  1  0  0  0  0 
  5 50  1  0  0  0  0 
  5 51  1  0  0  0  0 
  7 52  1  0  0  0  0 
  7 53  1  0  0  0  0 
  9 54  1  0  0  0  0 
 10 55  1  0  0  0  0 
 10 56  1  0  0  0  0 
 12 57  1  0  0  0  0 
 12 58  1  0  0  0  0 
 16 59  1  0  0  0  0 
 16 60  1  0  0  0  0 
 17 61  1  0  0  0  0 
 17 62  1  0  0  0  0 
 17 63  1  0  0  0  0 
 19 64  1  0  0  0  0 
 19 65  1  0  0  0  0 
 19 66  1  0  0  0  0 
 20 67  1  0  0  0  0 
 20 68  1  0  0  0  0 
 21 69  1  0  0  0  0 
 21 70  1  0  0  0  0 
 22 71  1  0  0  0  0 
 22 72  1  0  0  0  0 
 22 73  1  0  0  0  0 
 24 74  1  0  0  0  0 
 24 75  1  0  0  0  0 
 25 76  1  0  0  0  0 
 25 77  1  0  0  0  0 
 26 78  1  0  0  0  0 
 26 79  1  0  0  0  0 
 27 80  1  0  0  0  0 
 27 81  1  0  0  0  0 
 28 82  1  0  0  0  0 
 29 83  1  0  0  0  0 
 29 84  1  0  0  0  0 
 30 85  1  0  0  0  0 
 33 86  1  0  0  0  0 
 33 87  1  0  0  0  0 
 33 88  1  0  0  0  0 
 34 89  1  0  0  0  0 
 34 90  1  0  0  0  0 
 35 91  1  0  0  0  0 
 35 92  1  0  0  0  0 
 37 93  1  0  0  0  0 
 37 94  1  0  0  0  0 
 38 95  1  0  0  0  0 
 38 96  1  0  0  0  0 
 39 97  1  0  0  0  0 
 39 98  1  0  0  0  0 
 39 99  1  0  0  0  0 
 41100  1  0  0  0  0 
 41101  1  0  0  0  0 
M  CHG  1  14   1
M  CHG  1  31   1
M  END
> <cdk:Title>
pancuronium

> <Conformer>
1

> <SuperDrugID>
SD001839

$$$$
