oxybutynin
  CDK     0628171801

 57 58  0  0  0  0  0  0  0  0999 V2000
    8.7071   -0.9672    2.6885 C   0  0  2  0  0  0  0  0  0  0  0  0
    8.2414   -1.2005    1.2898 C   0  0  0  0  0  0  0  0  0  0  0  0
    9.9825   -0.3094    2.6053 O   0  0  0  0  0  0  0  0  0  0  0  0
    8.9699   -2.3257    3.4582 C   0  0  2  0  0  0  0  0  0  0  0  0
    7.6889   -0.0686    3.3513 C   0  0  0  0  0  0  0  0  0  0  0  0
    7.1300   -1.9627    1.0522 O   0  0  0  0  0  0  0  0  0  0  0  0
    8.8636   -0.7125    0.3151 O   0  0  0  0  0  0  0  0  0  0  0  0
    9.3426   -2.1059    4.9635 C   0  0  1  0  0  0  0  0  0  0  0  0
   10.0444   -3.2345    2.7674 C   0  0  2  0  0  0  0  0  0  0  0  0
    7.9453    1.3107    3.5723 C   0  0  0  0  0  0  0  0  0  0  0  0
    6.4251   -0.5670    3.7720 C   0  0  0  0  0  0  0  0  0  0  0  0
    6.5519   -2.2271   -0.2319 C   0  0  2  0  0  0  0  0  0  0  0  0
    9.5862   -3.4368    5.7187 C   0  0  2  0  0  0  0  0  0  0  0  0
   10.3054   -4.5541    3.5417 C   0  0  2  0  0  0  0  0  0  0  0  0
    6.9984    2.1436    4.1944 C   0  0  0  0  0  0  0  0  0  0  0  0
    5.4826    0.2592    4.4091 C   0  0  0  0  0  0  0  0  0  0  0  0
    5.5423   -3.1293   -0.0893 C   0  0  0  0  0  0  0  0  0  0  0  0
   10.6756   -4.2872    5.0219 C   0  0  2  0  0  0  0  0  0  0  0  0
    5.7670    1.6185    4.6195 C   0  0  0  0  0  0  0  0  0  0  0  0
    4.6590   -3.9256    0.0301 C   0  0  0  0  0  0  0  0  0  0  0  0
    3.6448   -4.8372    0.1738 C   0  0  2  0  0  0  0  0  0  0  0  0
    3.4495   -5.7390   -1.0119 N   0  0  1  0  0  0  0  0  0  0  0  0
    4.6396   -6.5717   -1.4023 C   0  0  1  0  0  0  0  0  0  0  0  0
    2.1542   -6.5030   -1.0043 C   0  0  2  0  0  0  0  0  0  0  0  0
    5.0961   -7.6120   -0.3516 C   0  0  0  0  0  0  0  0  0  0  0  0
    0.9180   -5.6202   -1.2868 C   0  0  0  0  0  0  0  0  0  0  0  0
   10.2458   -0.1130    3.5288 H   0  0  0  0  0  0  0  0  0  0  0  0
    8.0423   -2.9065    3.4471 H   0  0  0  0  0  0  0  0  0  0  0  0
   10.2438   -1.4929    5.0387 H   0  0  0  0  0  0  0  0  0  0  0  0
    8.5387   -1.5762    5.4791 H   0  0  0  0  0  0  0  0  0  0  0  0
   10.9896   -2.6927    2.6756 H   0  0  0  0  0  0  0  0  0  0  0  0
    9.7161   -3.4987    1.7589 H   0  0  0  0  0  0  0  0  0  0  0  0
    8.8301    1.7326    3.2807 H   0  0  0  0  0  0  0  0  0  0  0  0
    6.1731   -1.5461    3.6247 H   0  0  0  0  0  0  0  0  0  0  0  0
    7.3023   -2.6438   -0.9067 H   0  0  0  0  0  0  0  0  0  0  0  0
    6.1495   -1.3084   -0.6624 H   0  0  0  0  0  0  0  0  0  0  0  0
    8.6531   -4.0052    5.7646 H   0  0  0  0  0  0  0  0  0  0  0  0
    9.8966   -3.2205    6.7430 H   0  0  0  0  0  0  0  0  0  0  0  0
   11.1208   -5.0981    3.0614 H   0  0  0  0  0  0  0  0  0  0  0  0
    9.4144   -5.1870    3.4998 H   0  0  0  0  0  0  0  0  0  0  0  0
    7.2052    3.1340    4.3369 H   0  0  0  0  0  0  0  0  0  0  0  0
    4.5900   -0.1284    4.7216 H   0  0  0  0  0  0  0  0  0  0  0  0
   10.7847   -5.2383    5.5490 H   0  0  0  0  0  0  0  0  0  0  0  0
   11.6363   -3.7651    5.0720 H   0  0  0  0  0  0  0  0  0  0  0  0
    5.0819    2.2232    5.0767 H   0  0  0  0  0  0  0  0  0  0  0  0
    2.7498   -4.2414    0.3503 H   0  0  0  0  0  0  0  0  0  0  0  0
    3.8317   -5.4246    1.0746 H   0  0  0  0  0  0  0  0  0  0  0  0
    4.4234   -7.0969   -2.3371 H   0  0  0  0  0  0  0  0  0  0  0  0
    5.4860   -5.9180   -1.6217 H   0  0  0  0  0  0  0  0  0  0  0  0
    2.0172   -7.0181   -0.0508 H   0  0  0  0  0  0  0  0  0  0  0  0
    2.1628   -7.2713   -1.7827 H   0  0  0  0  0  0  0  0  0  0  0  0
    5.8646   -8.2598   -0.7777 H   0  0  0  0  0  0  0  0  0  0  0  0
    5.5191   -7.1130    0.5204 H   0  0  0  0  0  0  0  0  0  0  0  0
    4.2563   -8.2300   -0.0328 H   0  0  0  0  0  0  0  0  0  0  0  0
    0.0395   -6.2517   -1.4373 H   0  0  0  0  0  0  0  0  0  0  0  0
    0.7112   -4.9519   -0.4506 H   0  0  0  0  0  0  0  0  0  0  0  0
    1.0811   -5.0257   -2.1874 H   0  0  0  0  0  0  0  0  0  0  0  0
  1  2  1  0  0  0  0 
  1  3  1  0  0  0  0 
  1  4  1  0  0  0  0 
  1  5  1  0  0  0  0 
  2  6  1  0  0  0  0 
  2  7  2  0  0  0  0 
  4  8  1  0  0  0  0 
  4  9  1  0  0  0  0 
  5 10  2  0  0  0  0 
  5 11  1  0  0  0  0 
  6 12  1  0  0  0  0 
  8 13  1  0  0  0  0 
  9 14  1  0  0  0  0 
 10 15  1  0  0  0  0 
 11 16  2  0  0  0  0 
 12 17  1  0  0  0  0 
 13 18  1  0  0  0  0 
 14 18  1  0  0  0  0 
 15 19  2  0  0  0  0 
 16 19  1  0  0  0  0 
 17 20  3  0  0  0  0 
 20 21  1  0  0  0  0 
 21 22  1  0  0  0  0 
 22 23  1  0  0  0  0 
 22 24  1  0  0  0  0 
 23 25  1  0  0  0  0 
 24 26  1  0  0  0  0 
  3 27  1  0  0  0  0 
  4 28  1  0  0  0  0 
  8 29  1  0  0  0  0 
  8 30  1  0  0  0  0 
  9 31  1  0  0  0  0 
  9 32  1  0  0  0  0 
 10 33  1  0  0  0  0 
 11 34  1  0  0  0  0 
 12 35  1  0  0  0  0 
 12 36  1  0  0  0  0 
 13 37  1  0  0  0  0 
 13 38  1  0  0  0  0 
 14 39  1  0  0  0  0 
 14 40  1  0  0  0  0 
 15 41  1  0  0  0  0 
 16 42  1  0  0  0  0 
 18 43  1  0  0  0  0 
 18 44  1  0  0  0  0 
 19 45  1  0  0  0  0 
 21 46  1  0  0  0  0 
 21 47  1  0  0  0  0 
 23 48  1  0  0  0  0 
 23 49  1  0  0  0  0 
 24 50  1  0  0  0  0 
 24 51  1  0  0  0  0 
 25 52  1  0  0  0  0 
 25 53  1  0  0  0  0 
 25 54  1  0  0  0  0 
 26 55  1  0  0  0  0 
 26 56  1  0  0  0  0 
 26 57  1  0  0  0  0 
M  END
> <cdk:Title>
oxybutynin

> <Conformer>
1

> <SuperDrugID>
SD001815

$$$$
