niperotidine
  CDK     0628171801

 56 58  0  0  0  0  0  0  0  0999 V2000
    2.4127    5.0616   -2.7849 C   0  0  1  0  0  0  0  0  0  0  0  0
    1.3066    4.7886   -1.9746 N   0  0  0  0  0  0  0  0  0  0  0  0
    3.6606    5.0366   -1.9733 C   0  0  0  0  0  0  0  0  0  0  0  0
    0.9928    3.7089   -1.3399 C   0  0  0  0  0  0  0  0  0  0  0  0
    4.5421    3.9288   -2.0398 C   0  0  0  0  0  0  0  0  0  0  0  0
    3.9482    6.0836   -1.0570 C   0  0  0  0  0  0  0  0  0  0  0  0
    1.7592    2.6136   -1.4475 N   0  0  0  0  0  0  0  0  0  0  0  0
   -0.1828    3.7687   -0.4802 C   0  0  1  0  0  0  0  0  0  0  0  0
    5.6198    3.8486   -1.1454 C   0  0  0  0  0  0  0  0  0  0  0  0
    5.0751    6.0211   -0.2102 C   0  0  0  0  0  0  0  0  0  0  0  0
    2.2301    1.8367   -0.3425 C   0  0  1  0  0  0  0  0  0  0  0  0
    5.8884    4.8772   -0.2563 C   0  0  0  0  0  0  0  0  0  0  0  0
    6.4880    2.8302   -0.9963 O   0  0  0  0  0  0  0  0  0  0  0  0
    3.1448    0.6719   -0.7923 C   0  0  1  0  0  0  0  0  0  0  0  0
    6.9672    4.5939    0.5003 O   0  0  0  0  0  0  0  0  0  0  0  0
    7.0886    3.1775    0.2645 C   0  0  1  0  0  0  0  0  0  0  0  0
    4.1330    0.0451    0.6068 S   0  0  0  0  0  0  0  0  0  0  0  0
    5.2201   -1.2385   -0.0894 C   0  0  1  0  0  0  0  0  0  0  0  0
    6.3439   -0.6781   -0.8561 C   0  0  0  0  0  0  0  0  0  0  0  0
    6.2451   -0.2141   -2.1252 O   0  0  0  0  0  0  0  0  0  0  0  0
    7.6738   -0.5882   -0.4484 C   0  0  0  0  0  0  0  0  0  0  0  0
    7.4818    0.1487   -2.5444 C   0  0  0  0  0  0  0  0  0  0  0  0
    8.3904   -0.0634   -1.5124 C   0  0  0  0  0  0  0  0  0  0  0  0
    7.7948    0.6278   -3.9038 C   0  0  1  0  0  0  0  0  0  0  0  0
    8.5586   -0.3785   -4.7148 N   0  0  1  0  0  0  0  0  0  0  0  0
    7.8251   -1.6654   -4.9240 C   0  0  0  0  0  0  0  0  0  0  0  0
    9.0526    0.1911   -6.0025 C   0  0  0  0  0  0  0  0  0  0  0  0
    0.0776    4.5477    0.6528 N   0  0  0  0  0  0  0  0  0  0  0  0
   -0.4568    5.5708    0.8296 O   0  0  0  0  0  0  0  0  0  0  0  0
    0.9054    4.1586    1.5375 O   0  0  0  0  0  0  0  0  0  0  0  0
    2.4471    4.3468   -3.6108 H   0  0  0  0  0  0  0  0  0  0  0  0
    2.2856    6.0549   -3.2219 H   0  0  0  0  0  0  0  0  0  0  0  0
    4.3897    3.1682   -2.7025 H   0  0  0  0  0  0  0  0  0  0  0  0
    3.3309    6.8951   -0.9887 H   0  0  0  0  0  0  0  0  0  0  0  0
    2.1276    2.4113   -2.3236 H   0  0  0  0  0  0  0  0  0  0  0  0
   -1.0270    4.1700   -1.0531 H   0  0  0  0  0  0  0  0  0  0  0  0
   -0.4907    2.7708   -0.1571 H   0  0  0  0  0  0  0  0  0  0  0  0
    5.2893    6.7858    0.4350 H   0  0  0  0  0  0  0  0  0  0  0  0
    2.8011    2.5086    0.3037 H   0  0  0  0  0  0  0  0  0  0  0  0
    1.3956    1.4268    0.2277 H   0  0  0  0  0  0  0  0  0  0  0  0
    2.5315   -0.1407   -1.1857 H   0  0  0  0  0  0  0  0  0  0  0  0
    3.8242    1.0091   -1.5735 H   0  0  0  0  0  0  0  0  0  0  0  0
    6.5798    2.6342    1.0698 H   0  0  0  0  0  0  0  0  0  0  0  0
    8.1376    2.8792    0.2637 H   0  0  0  0  0  0  0  0  0  0  0  0
    5.6069   -1.8308    0.7407 H   0  0  0  0  0  0  0  0  0  0  0  0
    4.6453   -1.9039   -0.7345 H   0  0  0  0  0  0  0  0  0  0  0  0
    8.0576   -0.8608    0.4590 H   0  0  0  0  0  0  0  0  0  0  0  0
    9.3954    0.1202   -1.5346 H   0  0  0  0  0  0  0  0  0  0  0  0
    6.8636    0.8864   -4.4146 H   0  0  0  0  0  0  0  0  0  0  0  0
    8.3763    1.5470   -3.7943 H   0  0  0  0  0  0  0  0  0  0  0  0
    8.4143   -2.3581   -5.5281 H   0  0  0  0  0  0  0  0  0  0  0  0
    7.6366   -2.1596   -3.9697 H   0  0  0  0  0  0  0  0  0  0  0  0
    6.8686   -1.4930   -5.4226 H   0  0  0  0  0  0  0  0  0  0  0  0
    9.6566    1.0825   -5.8225 H   0  0  0  0  0  0  0  0  0  0  0  0
    9.6883   -0.5297   -6.5212 H   0  0  0  0  0  0  0  0  0  0  0  0
    8.2203    0.4580   -6.6584 H   0  0  0  0  0  0  0  0  0  0  0  0
  2  1  1  0  0  0  0 
  1  3  1  0  0  0  0 
  2  4  2  0  0  0  0 
  3  5  2  0  0  0  0 
  3  6  1  0  0  0  0 
  4  7  1  0  0  0  0 
  4  8  1  0  0  0  0 
  5  9  1  0  0  0  0 
  6 10  2  0  0  0  0 
  7 11  1  0  0  0  0 
  9 12  2  0  0  0  0 
  9 13  1  0  0  0  0 
 10 12  1  0  0  0  0 
 11 14  1  0  0  0  0 
 12 15  1  0  0  0  0 
 13 16  1  0  0  0  0 
 14 17  1  0  0  0  0 
 15 16  1  0  0  0  0 
 17 18  1  0  0  0  0 
 18 19  1  0  0  0  0 
 19 20  1  0  0  0  0 
 19 21  2  0  0  0  0 
 20 22  1  0  0  0  0 
 21 23  1  0  0  0  0 
 22 23  2  0  0  0  0 
 22 24  1  0  0  0  0 
 24 25  1  0  0  0  0 
 25 26  1  0  0  0  0 
 25 27  1  0  0  0  0 
  8 28  1  0  0  0  0 
 28 29  2  0  0  0  0 
 28 30  1  0  0  0  0 
 31  1  1  0  0  0  0 
 32  1  1  0  0  0  0 
 33  5  1  0  0  0  0 
 34  6  1  0  0  0  0 
 35  7  1  0  0  0  0 
 36  8  1  0  0  0  0 
 37  8  1  0  0  0  0 
 38 10  1  0  0  0  0 
 39 11  1  0  0  0  0 
 40 11  1  0  0  0  0 
 41 14  1  0  0  0  0 
 42 14  1  0  0  0  0 
 43 16  1  0  0  0  0 
 44 16  1  0  0  0  0 
 45 18  1  0  0  0  0 
 46 18  1  0  0  0  0 
 47 21  1  0  0  0  0 
 48 23  1  0  0  0  0 
 49 24  1  0  0  0  0 
 50 24  1  0  0  0  0 
 51 26  1  0  0  0  0 
 52 26  1  0  0  0  0 
 53 26  1  0  0  0  0 
 54 27  1  0  0  0  0 
 55 27  1  0  0  0  0 
 56 27  1  0  0  0  0 
M  CHG  1  28   1
M  CHG  1  30  -1
M  END
> <cdk:Title>
niperotidine

> <Conformer>
1

> <SuperDrugID>
SD003323

$$$$
