norfloxacin
  CDK     0628171801

 41 43  0  0  0  0  0  0  0  0999 V2000
    6.5284    0.1908   -1.5707 C   0  0  1  0  0  0  0  0  0  0  0  0
    6.5402    1.2728   -2.6780 C   0  0  0  0  0  0  0  0  0  0  0  0
    6.1589   -1.1259   -2.0829 N   0  0  0  0  0  0  0  0  0  0  0  0
    4.8540   -1.4794   -2.3925 C   0  0  0  0  0  0  0  0  0  0  0  0
    7.1746   -2.0328   -2.2644 C   0  0  0  0  0  0  0  0  0  0  0  0
    4.5801   -2.7712   -2.9398 C   0  0  0  0  0  0  0  0  0  0  0  0
    3.7422   -0.6151   -2.1829 C   0  0  0  0  0  0  0  0  0  0  0  0
    6.9697   -3.3306   -2.7810 C   0  0  0  0  0  0  0  0  0  0  0  0
    5.6477   -3.6812   -3.1356 C   0  0  0  0  0  0  0  0  0  0  0  0
    3.2521   -3.1332   -3.2789 C   0  0  0  0  0  0  0  0  0  0  0  0
    2.4179   -0.9790   -2.5058 C   0  0  0  0  0  0  0  0  0  0  0  0
    8.0747   -4.2238   -2.9206 C   0  0  0  0  0  0  0  0  0  0  0  0
    5.4204   -4.8098   -3.6377 O   0  0  0  0  0  0  0  0  0  0  0  0
    2.1844   -2.2455   -3.0758 C   0  0  0  0  0  0  0  0  0  0  0  0
    1.3803   -0.1061   -2.2777 N   0  0  0  0  0  0  0  0  0  0  0  0
    9.3565   -3.7828   -2.9078 O   0  0  0  0  0  0  0  0  0  0  0  0
    7.9274   -5.4602   -3.0571 O   0  0  0  0  0  0  0  0  0  0  0  0
    0.9804   -2.6098   -3.4306 F   0  0  0  0  0  0  0  0  0  0  0  0
    1.2760    1.1264   -3.0235 C   0  0  2  0  0  0  0  0  0  0  0  0
    0.3556   -0.3979   -1.2967 C   0  0  1  0  0  0  0  0  0  0  0  0
    1.0842    2.3237   -2.0549 C   0  0  2  0  0  0  0  0  0  0  0  0
    0.1297    0.8137   -0.3536 C   0  0  2  0  0  0  0  0  0  0  0  0
   -0.0477    2.0600   -1.1351 N   0  0  1  0  0  0  0  0  0  0  0  0
    7.5244    0.1988   -1.1159 H   0  0  0  0  0  0  0  0  0  0  0  0
    5.8601    0.4870   -0.7599 H   0  0  0  0  0  0  0  0  0  0  0  0
    6.9108    2.2147   -2.2691 H   0  0  0  0  0  0  0  0  0  0  0  0
    7.1966    0.9667   -3.4953 H   0  0  0  0  0  0  0  0  0  0  0  0
    5.5412    1.4438   -3.0805 H   0  0  0  0  0  0  0  0  0  0  0  0
    8.1326   -1.7684   -2.0154 H   0  0  0  0  0  0  0  0  0  0  0  0
    3.8717    0.3119   -1.7813 H   0  0  0  0  0  0  0  0  0  0  0  0
    3.0446   -4.0509   -3.6801 H   0  0  0  0  0  0  0  0  0  0  0  0
   10.0947   -4.4176   -3.0256 H   0  0  0  0  0  0  0  0  0  0  0  0
    0.4070    1.0519   -3.6847 H   0  0  0  0  0  0  0  0  0  0  0  0
    2.1536    1.3104   -3.6545 H   0  0  0  0  0  0  0  0  0  0  0  0
   -0.5790   -0.6141   -1.8249 H   0  0  0  0  0  0  0  0  0  0  0  0
    0.6050   -1.2734   -0.6867 H   0  0  0  0  0  0  0  0  0  0  0  0
    0.8668    3.2295   -2.6242 H   0  0  0  0  0  0  0  0  0  0  0  0
    1.9986    2.4945   -1.4792 H   0  0  0  0  0  0  0  0  0  0  0  0
    0.9773    0.9260    0.3291 H   0  0  0  0  0  0  0  0  0  0  0  0
   -0.7665    0.6502    0.2495 H   0  0  0  0  0  0  0  0  0  0  0  0
   -0.0875    2.8329   -0.4669 H   0  0  0  0  0  0  0  0  0  0  0  0
  1  2  1  0  0  0  0 
  1  3  1  0  0  0  0 
  3  4  1  0  0  0  0 
  3  5  1  0  0  0  0 
  4  6  1  0  0  0  0 
  4  7  2  0  0  0  0 
  5  8  2  0  0  0  0 
  6  9  1  0  0  0  0 
  6 10  2  0  0  0  0 
  7 11  1  0  0  0  0 
  8  9  1  0  0  0  0 
  8 12  1  0  0  0  0 
  9 13  2  0  0  0  0 
 10 14  1  0  0  0  0 
 11 14  2  0  0  0  0 
 11 15  1  0  0  0  0 
 12 16  1  0  0  0  0 
 12 17  2  0  0  0  0 
 14 18  1  0  0  0  0 
 15 19  1  0  0  0  0 
 15 20  1  0  0  0  0 
 19 21  1  0  0  0  0 
 20 22  1  0  0  0  0 
 21 23  1  0  0  0  0 
 22 23  1  0  0  0  0 
  1 24  1  0  0  0  0 
  1 25  1  0  0  0  0 
  2 26  1  0  0  0  0 
  2 27  1  0  0  0  0 
  2 28  1  0  0  0  0 
  5 29  1  0  0  0  0 
  7 30  1  0  0  0  0 
 10 31  1  0  0  0  0 
 16 32  1  0  0  0  0 
 19 33  1  0  0  0  0 
 19 34  1  0  0  0  0 
 20 35  1  0  0  0  0 
 20 36  1  0  0  0  0 
 21 37  1  0  0  0  0 
 21 38  1  0  0  0  0 
 22 39  1  0  0  0  0 
 22 40  1  0  0  0  0 
 23 41  1  0  0  0  0 
M  END
> <cdk:Title>
norfloxacin

> <Conformer>
1

> <SuperDrugID>
SD001759

$$$$
