folescutol
  CDK     0628171801

 35 37  0  0  0  0  0  0  0  0999 V2000
   -2.5295    1.9607    5.2079 C   0  0  2  0  0  0  0  0  0  0  0  0
   -2.3432    2.0811    3.7273 C   0  0  0  0  0  0  0  0  0  0  0  0
   -1.2748    1.5742    5.9297 N   0  0  1  0  0  0  0  0  0  0  0  0
   -1.4583    3.0348    3.1393 C   0  0  0  0  0  0  0  0  0  0  0  0
   -3.0805    1.2136    2.8838 C   0  0  0  0  0  0  0  0  0  0  0  0
   -1.3281    1.8509    7.3997 C   0  0  1  0  0  0  0  0  0  0  0  0
   -0.7987    0.1857    5.6387 C   0  0  2  0  0  0  0  0  0  0  0  0
   -1.3592    3.0763    1.7204 C   0  0  0  0  0  0  0  0  0  0  0  0
   -0.6634    3.9478    3.8799 C   0  0  0  0  0  0  0  0  0  0  0  0
   -2.9498    1.3065    1.4895 C   0  0  0  0  0  0  0  0  0  0  0  0
    0.0386    1.5423    8.0583 C   0  0  1  0  0  0  0  0  0  0  0  0
    0.5593   -0.0634    6.3404 C   0  0  2  0  0  0  0  0  0  0  0  0
   -0.4993    3.9831    1.0756 C   0  0  0  0  0  0  0  0  0  0  0  0
   -2.1006    2.2250    0.9567 O   0  0  0  0  0  0  0  0  0  0  0  0
    0.2091    4.8499    3.2371 C   0  0  0  0  0  0  0  0  0  0  0  0
   -3.5988    0.5595    0.7243 O   0  0  0  0  0  0  0  0  0  0  0  0
    0.4671    0.1992    7.7560 O   0  0  0  0  0  0  0  0  0  0  0  0
    0.2917    4.8667    1.8303 C   0  0  0  0  0  0  0  0  0  0  0  0
    0.9713    5.7038    3.9668 O   0  0  0  0  0  0  0  0  0  0  0  0
    1.1244    5.7214    1.1811 O   0  0  0  0  0  0  0  0  0  0  0  0
   -3.3170    1.2425    5.4598 H   0  0  0  0  0  0  0  0  0  0  0  0
   -2.8814    2.9343    5.5596 H   0  0  0  0  0  0  0  0  0  0  0  0
   -3.7148    0.5100    3.2750 H   0  0  0  0  0  0  0  0  0  0  0  0
   -1.5622    2.9038    7.5792 H   0  0  0  0  0  0  0  0  0  0  0  0
   -2.1020    1.2399    7.8755 H   0  0  0  0  0  0  0  0  0  0  0  0
   -0.6579    0.0500    4.5636 H   0  0  0  0  0  0  0  0  0  0  0  0
   -1.5290   -0.5517    5.9874 H   0  0  0  0  0  0  0  0  0  0  0  0
   -0.7062    3.9704    4.8998 H   0  0  0  0  0  0  0  0  0  0  0  0
    0.7894    2.2654    7.7245 H   0  0  0  0  0  0  0  0  0  0  0  0
   -0.0569    1.6328    9.1414 H   0  0  0  0  0  0  0  0  0  0  0  0
    1.3309    0.5673    5.8876 H   0  0  0  0  0  0  0  0  0  0  0  0
    0.8523   -1.1060    6.2037 H   0  0  0  0  0  0  0  0  0  0  0  0
   -0.4441    3.9996    0.0547 H   0  0  0  0  0  0  0  0  0  0  0  0
    0.8945    5.4074    4.8965 H   0  0  0  0  0  0  0  0  0  0  0  0
    1.6983    6.1120    1.8730 H   0  0  0  0  0  0  0  0  0  0  0  0
  1  2  1  0  0  0  0 
  1  3  1  0  0  0  0 
  2  4  1  0  0  0  0 
  2  5  2  0  0  0  0 
  3  6  1  0  0  0  0 
  3  7  1  0  0  0  0 
  4  8  1  0  0  0  0 
  4  9  2  0  0  0  0 
  5 10  1  0  0  0  0 
  6 11  1  0  0  0  0 
  7 12  1  0  0  0  0 
  8 13  2  0  0  0  0 
  8 14  1  0  0  0  0 
  9 15  1  0  0  0  0 
 10 14  1  0  0  0  0 
 10 16  2  0  0  0  0 
 11 17  1  0  0  0  0 
 12 17  1  0  0  0  0 
 13 18  1  0  0  0  0 
 15 18  2  0  0  0  0 
 15 19  1  0  0  0  0 
 18 20  1  0  0  0  0 
  1 21  1  0  0  0  0 
  1 22  1  0  0  0  0 
  5 23  1  0  0  0  0 
  6 24  1  0  0  0  0 
  6 25  1  0  0  0  0 
  7 26  1  0  0  0  0 
  7 27  1  0  0  0  0 
  9 28  1  0  0  0  0 
 11 29  1  0  0  0  0 
 11 30  1  0  0  0  0 
 12 31  1  0  0  0  0 
 12 32  1  0  0  0  0 
 13 33  1  0  0  0  0 
 19 34  1  0  0  0  0 
 20 35  1  0  0  0  0 
M  END
> <cdk:Title>
folescutol

> <Conformer>
1

> <SuperDrugID>
SD003206

$$$$
