lactic acid
  CDK     0628171801

 12 11  0  0  0  0  0  0  0  0999 V2000
    1.2425   -1.7041   -1.6921 C   0  0  0  0  0  0  0  0  0  0  0  0
    1.5152   -0.8337   -0.4429 C   0  0  1  0  0  0  0  0  0  0  0  0
    2.9132   -0.5771   -0.3279 O   0  0  0  0  0  0  0  0  0  0  0  0
    0.7948    0.4534   -0.5050 C   0  0  0  0  0  0  0  0  0  0  0  0
    1.0453    1.3351   -1.5018 O   0  0  0  0  0  0  0  0  0  0  0  0
   -0.0584    0.7536    0.3597 O   0  0  0  0  0  0  0  0  0  0  0  0
    1.7752   -2.6528   -1.6091 H   0  0  0  0  0  0  0  0  0  0  0  0
    0.1745   -1.9143   -1.7840 H   0  0  0  0  0  0  0  0  0  0  0  0
    1.5813   -1.1950   -2.5977 H   0  0  0  0  0  0  0  0  0  0  0  0
    1.2006   -1.3936    0.4435 H   0  0  0  0  0  0  0  0  0  0  0  0
    3.0059   -0.0741    0.5082 H   0  0  0  0  0  0  0  0  0  0  0  0
    0.5434    2.1744   -1.5564 H   0  0  0  0  0  0  0  0  0  0  0  0
  2  1  1  0  0  0  0 
  2  3  1  0  0  0  0 
  2  4  1  0  0  0  0 
  4  5  1  0  0  0  0 
  4  6  2  0  0  0  0 
  1  7  1  0  0  0  0 
  1  8  1  0  0  0  0 
  1  9  1  0  0  0  0 
  2 10  1  0  0  0  0 
  3 11  1  0  0  0  0 
  5 12  1  0  0  0  0 
M  END
> <cdk:Title>
lactic acid

> <Conformer>
1

> <SuperDrugID>
SD001356

$$$$
