altizide
  CDK     0628171801

 36 37  0  0  0  0  0  0  0  0999 V2000
   -3.8916    2.9377    2.0646 O   0  0  0  0  0  0  0  0  0  0  0  0
   -2.9918    2.3093    3.2325 S   0  0  2  0  0  0  0  0  0  0  0  0
   -1.9461    3.3925    3.7836 O   0  0  0  0  0  0  0  0  0  0  0  0
   -2.1623    0.8493    2.6933 C   0  0  0  0  0  0  0  0  0  0  0  0
   -4.0274    1.7750    4.5536 N   0  0  2  0  0  0  0  0  0  0  0  0
   -2.0404   -0.2083    3.6177 C   0  0  0  0  0  0  0  0  0  0  0  0
   -1.6655    0.7161    1.3842 C   0  0  0  0  0  0  0  0  0  0  0  0
   -3.2509    0.9367    5.5004 C   0  0  2  0  0  0  0  0  0  0  0  0
   -2.5252   -0.1483    4.8932 N   0  0  0  0  0  0  0  0  0  0  0  0
   -1.3972   -1.3947    3.2156 C   0  0  0  0  0  0  0  0  0  0  0  0
   -1.0435   -0.4822    0.9700 C   0  0  0  0  0  0  0  0  0  0  0  0
   -4.2339    0.3443    6.5402 C   0  0  2  0  0  0  0  0  0  0  0  0
   -0.9025   -1.5402    1.9032 C   0  0  0  0  0  0  0  0  0  0  0  0
   -0.4849   -0.6214   -0.7100 S   0  0  1  0  0  0  0  0  0  0  0  0
   -3.3426   -0.5028    7.8895 S   0  0  0  0  0  0  0  0  0  0  0  0
   -0.1705   -3.0192    1.5078 Cl  0  0  0  0  0  0  0  0  0  0  0  0
    1.2578   -0.8378   -0.7623 N   0  0  2  0  0  0  0  0  0  0  0  0
   -1.1605   -1.8896   -1.4233 O   0  0  0  0  0  0  0  0  0  0  0  0
   -0.8384    0.6913   -1.5615 O   0  0  0  0  0  0  0  0  0  0  0  0
   -4.6317   -1.4568    8.7499 C   0  0  1  0  0  0  0  0  0  0  0  0
   -4.0325   -2.2770    9.7835 C   0  0  0  0  0  0  0  0  0  0  0  0
   -3.6322   -1.7946   10.9669 C   0  0  0  0  0  0  0  0  0  0  0  0
   -4.7261    1.1603    4.1288 H   0  0  0  0  0  0  0  0  0  0  0  0
   -1.7723    1.4965    0.7327 H   0  0  0  0  0  0  0  0  0  0  0  0
   -2.5381    1.5794    6.0276 H   0  0  0  0  0  0  0  0  0  0  0  0
   -2.3540   -0.9212    5.4569 H   0  0  0  0  0  0  0  0  0  0  0  0
   -1.2942   -2.1614    3.8882 H   0  0  0  0  0  0  0  0  0  0  0  0
   -4.9052   -0.3661    6.0487 H   0  0  0  0  0  0  0  0  0  0  0  0
   -4.8355    1.1424    6.9798 H   0  0  0  0  0  0  0  0  0  0  0  0
    1.5000   -0.9791   -1.7450 H   0  0  0  0  0  0  0  0  0  0  0  0
    1.4697   -1.7121   -0.2789 H   0  0  0  0  0  0  0  0  0  0  0  0
   -5.3758   -0.7764    9.1719 H   0  0  0  0  0  0  0  0  0  0  0  0
   -5.1296   -2.1002    8.0199 H   0  0  0  0  0  0  0  0  0  0  0  0
   -3.8925   -3.2447    9.5975 H   0  0  0  0  0  0  0  0  0  0  0  0
   -3.2195   -2.3990   11.6376 H   0  0  0  0  0  0  0  0  0  0  0  0
   -3.7392   -0.8343   11.1944 H   0  0  0  0  0  0  0  0  0  0  0  0
  1  2  2  0  0  0  0 
  2  3  2  0  0  0  0 
  2  4  1  0  0  0  0 
  2  5  1  0  0  0  0 
  4  6  2  0  0  0  0 
  4  7  1  0  0  0  0 
  8  5  1  0  0  0  0 
  6  9  1  0  0  0  0 
  6 10  1  0  0  0  0 
  7 11  2  0  0  0  0 
  8  9  1  0  0  0  0 
  8 12  1  0  0  0  0 
 10 13  2  0  0  0  0 
 11 13  1  0  0  0  0 
 11 14  1  0  0  0  0 
 12 15  1  0  0  0  0 
 13 16  1  0  0  0  0 
 14 17  1  0  0  0  0 
 14 18  2  0  0  0  0 
 14 19  2  0  0  0  0 
 15 20  1  0  0  0  0 
 20 21  1  0  0  0  0 
 21 22  2  0  0  0  0 
  5 23  1  0  0  0  0 
  7 24  1  0  0  0  0 
  8 25  1  0  0  0  0 
  9 26  1  0  0  0  0 
 10 27  1  0  0  0  0 
 12 28  1  0  0  0  0 
 12 29  1  0  0  0  0 
 17 30  1  0  0  0  0 
 17 31  1  0  0  0  0 
 20 32  1  0  0  0  0 
 20 33  1  0  0  0  0 
 21 34  1  0  0  0  0 
 22 35  1  0  0  0  0 
 22 36  1  0  0  0  0 
M  END
> <cdk:Title>
altizide

> <Conformer>
1

> <SuperDrugID>
SD000109

$$$$
