nomegestrol acetate
  CDK     0628171801

 57 60  0  0  0  0  0  0  0  0999 V2000
   -3.3509   -1.4367   -2.3752 C   0  0  0  0  0  0  0  0  0  0  0  0
   -1.9278   -1.1961   -1.7279 C   0  0  1  0  0  0  0  0  0  0  0  0
   -0.9291   -2.3497   -2.1489 C   0  0  1  0  0  0  0  0  0  0  0  0
   -1.1695    0.0522   -2.2972 C   0  0  2  0  0  0  0  0  0  0  0  0
   -2.1100   -0.9513   -0.1839 C   0  0  2  0  0  0  0  0  0  0  0  0
    0.2415   -2.2500   -1.3050 O   0  0  0  0  0  0  0  0  0  0  0  0
   -1.4598   -3.7407   -1.9676 C   0  0  0  0  0  0  0  0  0  0  0  0
   -0.5463   -1.9290   -3.6122 C   0  0  1  0  0  0  0  0  0  0  0  0
   -1.9591    1.3905   -2.0965 C   0  0  1  0  0  0  0  0  0  0  0  0
   -0.7388   -0.3927   -3.7146 C   0  0  1  0  0  0  0  0  0  0  0  0
   -2.8265    0.3930    0.1541 C   0  0  2  0  0  0  0  0  0  0  0  0
    1.4270   -2.9301   -1.3173 C   0  0  0  0  0  0  0  0  0  0  0  0
   -1.4104   -4.8006   -2.9976 C   0  0  0  0  0  0  0  0  0  0  0  0
   -1.9162   -4.0560   -0.8436 O   0  0  0  0  0  0  0  0  0  0  0  0
   -2.2035    1.6372   -0.5673 C   0  0  2  0  0  0  0  0  0  0  0  0
   -1.3506    2.5711   -2.7050 C   0  0  0  0  0  0  0  0  0  0  0  0
    2.4263   -2.5401   -0.3198 C   0  0  0  0  0  0  0  0  0  0  0  0
    1.6765   -3.8464   -2.1349 O   0  0  0  0  0  0  0  0  0  0  0  0
   -3.0143    2.9774   -0.4265 C   0  0  2  0  0  0  0  0  0  0  0  0
   -1.5536    3.8420   -2.2710 C   0  0  0  0  0  0  0  0  0  0  0  0
   -2.2749    4.0979   -1.0879 C   0  0  0  0  0  0  0  0  0  0  0  0
   -3.3812    3.2576    1.0699 C   0  0  1  0  0  0  0  0  0  0  0  0
   -0.9682    4.8973   -3.1227 C   0  0  0  0  0  0  0  0  0  0  0  0
   -2.3128    5.3290   -0.5135 C   0  0  0  0  0  0  0  0  0  0  0  0
   -3.9431    4.6807    1.2692 C   0  0  1  0  0  0  0  0  0  0  0  0
   -3.0757    5.6647    0.5973 C   0  0  0  0  0  0  0  0  0  0  0  0
   -3.0633    6.8428    1.0266 O   0  0  0  0  0  0  0  0  0  0  0  0
   -3.2962   -1.5550   -3.4573 H   0  0  0  0  0  0  0  0  0  0  0  0
   -3.8093   -2.3391   -1.9693 H   0  0  0  0  0  0  0  0  0  0  0  0
   -4.0448   -0.6215   -2.1824 H   0  0  0  0  0  0  0  0  0  0  0  0
   -0.2314    0.1895   -1.7412 H   0  0  0  0  0  0  0  0  0  0  0  0
   -1.1360   -0.9297    0.3126 H   0  0  0  0  0  0  0  0  0  0  0  0
   -2.6775   -1.7686    0.2680 H   0  0  0  0  0  0  0  0  0  0  0  0
    0.4825   -2.2035   -3.8581 H   0  0  0  0  0  0  0  0  0  0  0  0
   -1.1906   -2.4106   -4.3523 H   0  0  0  0  0  0  0  0  0  0  0  0
   -2.9221    1.2934   -2.6017 H   0  0  0  0  0  0  0  0  0  0  0  0
   -1.5117   -0.1505   -4.4479 H   0  0  0  0  0  0  0  0  0  0  0  0
    0.1923    0.0960   -4.0176 H   0  0  0  0  0  0  0  0  0  0  0  0
   -2.7501    0.5340    1.2366 H   0  0  0  0  0  0  0  0  0  0  0  0
   -3.8911    0.3180   -0.0785 H   0  0  0  0  0  0  0  0  0  0  0  0
   -0.4412   -4.8116   -3.4951 H   0  0  0  0  0  0  0  0  0  0  0  0
   -2.1896   -4.6310   -3.7406 H   0  0  0  0  0  0  0  0  0  0  0  0
   -1.5671   -5.7840   -2.5512 H   0  0  0  0  0  0  0  0  0  0  0  0
   -1.2281    1.7935   -0.0901 H   0  0  0  0  0  0  0  0  0  0  0  0
   -0.8033    2.4161   -3.5224 H   0  0  0  0  0  0  0  0  0  0  0  0
    2.0052   -2.7021    0.6745 H   0  0  0  0  0  0  0  0  0  0  0  0
    2.6689   -1.4835   -0.4502 H   0  0  0  0  0  0  0  0  0  0  0  0
    3.3425   -3.1251   -0.4168 H   0  0  0  0  0  0  0  0  0  0  0  0
   -3.9617    2.8590   -0.9666 H   0  0  0  0  0  0  0  0  0  0  0  0
   -4.1303    2.5424    1.4224 H   0  0  0  0  0  0  0  0  0  0  0  0
   -2.4878    3.1496    1.6934 H   0  0  0  0  0  0  0  0  0  0  0  0
    0.0971    4.9924   -2.9031 H   0  0  0  0  0  0  0  0  0  0  0  0
   -1.4370    5.8718   -3.0053 H   0  0  0  0  0  0  0  0  0  0  0  0
   -1.0842    4.6649   -4.1847 H   0  0  0  0  0  0  0  0  0  0  0  0
   -1.7711    6.0725   -0.8830 H   0  0  0  0  0  0  0  0  0  0  0  0
   -4.9517    4.7501    0.8527 H   0  0  0  0  0  0  0  0  0  0  0  0
   -3.9978    4.8941    2.3398 H   0  0  0  0  0  0  0  0  0  0  0  0
  2  1  1  0  0  0  0 
  2  3  1  0  0  0  0 
  2  4  1  0  0  0  0 
  2  5  1  0  0  0  0 
  3  6  1  0  0  0  0 
  3  7  1  0  0  0  0 
  3  8  1  0  0  0  0 
  4  9  1  0  0  0  0 
  4 10  1  0  0  0  0 
  5 11  1  0  0  0  0 
  6 12  1  0  0  0  0 
  7 13  1  0  0  0  0 
  7 14  2  0  0  0  0 
  8 10  1  0  0  0  0 
  9 15  1  0  0  0  0 
  9 16  1  0  0  0  0 
 15 11  1  0  0  0  0 
 12 17  1  0  0  0  0 
 12 18  2  0  0  0  0 
 15 19  1  0  0  0  0 
 16 20  2  0  0  0  0 
 19 21  1  0  0  0  0 
 19 22  1  0  0  0  0 
 20 21  1  0  0  0  0 
 20 23  1  0  0  0  0 
 21 24  2  0  0  0  0 
 22 25  1  0  0  0  0 
 24 26  1  0  0  0  0 
 25 26  1  0  0  0  0 
 26 27  2  0  0  0  0 
 28  1  1  0  0  0  0 
 29  1  1  0  0  0  0 
 30  1  1  0  0  0  0 
  4 31  1  0  0  0  0 
 32  5  1  0  0  0  0 
 33  5  1  0  0  0  0 
 34  8  1  0  0  0  0 
 35  8  1  0  0  0  0 
  9 36  1  0  0  0  0 
 37 10  1  0  0  0  0 
 38 10  1  0  0  0  0 
 39 11  1  0  0  0  0 
 40 11  1  0  0  0  0 
 41 13  1  0  0  0  0 
 42 13  1  0  0  0  0 
 43 13  1  0  0  0  0 
 15 44  1  0  0  0  0 
 45 16  1  0  0  0  0 
 46 17  1  0  0  0  0 
 47 17  1  0  0  0  0 
 48 17  1  0  0  0  0 
 19 49  1  0  0  0  0 
 50 22  1  0  0  0  0 
 51 22  1  0  0  0  0 
 52 23  1  0  0  0  0 
 53 23  1  0  0  0  0 
 54 23  1  0  0  0  0 
 55 24  1  0  0  0  0 
 56 25  1  0  0  0  0 
 57 25  1  0  0  0  0 
M  END
> <cdk:Title>
nomegestrol acetate

> <Conformer>
1

> <SuperDrugID>
SD001749

$$$$
