medrysone
  CDK     0628171801

 57 60  0  0  0  0  0  0  0  0999 V2000
   -3.7770    0.0745   -0.1478 C   0  0  0  0  0  0  0  0  0  0  0  0
   -2.7179   -0.1475    0.9945 C   0  0  1  0  0  0  0  0  0  0  0  0
   -3.3838   -0.4125    2.4262 C   0  0  2  0  0  0  0  0  0  0  0  0
   -1.8700   -1.3175    0.5688 C   0  0  0  0  0  0  0  0  0  0  0  0
   -1.8382    1.1647    1.1220 C   0  0  1  0  0  0  0  0  0  0  0  0
   -4.0044   -1.8520    2.5754 C   0  0  2  0  0  0  0  0  0  0  0  0
   -4.3338    0.7189    2.9956 C   0  0  1  0  0  0  0  0  0  0  0  0
   -2.4415   -2.6870    0.7147 C   0  0  2  0  0  0  0  0  0  0  0  0
   -0.6542   -1.1243   -0.0056 C   0  0  0  0  0  0  0  0  0  0  0  0
   -0.8550    1.3637   -0.0530 C   0  0  1  0  0  0  0  0  0  0  0  0
   -4.5006   -2.0618    4.0452 C   0  0  1  0  0  0  0  0  0  0  0  0
   -2.9560   -2.9258    2.1631 C   0  0  2  0  0  0  0  0  0  0  0  0
   -5.3619    1.1023    2.0867 O   0  0  0  0  0  0  0  0  0  0  0  0
   -4.9746    0.3834    4.3863 C   0  0  1  0  0  0  0  0  0  0  0  0
   -1.5943   -3.9190    0.2545 C   0  0  0  0  0  0  0  0  0  0  0  0
   -0.1082    0.1170   -0.2929 C   0  0  0  0  0  0  0  0  0  0  0  0
   -5.6126   -1.0483    4.4693 C   0  0  1  0  0  0  0  0  0  0  0  0
   -5.0467   -3.4396    4.4857 C   0  0  1  0  0  0  0  0  0  0  0  0
    1.0351    0.1931   -0.8029 O   0  0  0  0  0  0  0  0  0  0  0  0
   -6.9258   -1.1097    3.5994 C   0  0  0  0  0  0  0  0  0  0  0  0
   -5.8990   -1.5794    5.9214 C   0  0  2  0  0  0  0  0  0  0  0  0
   -5.8471   -3.1354    5.7792 C   0  0  2  0  0  0  0  0  0  0  0  0
   -7.1147   -1.0502    6.6119 C   0  0  0  0  0  0  0  0  0  0  0  0
   -7.0514    0.1271    7.5023 C   0  0  0  0  0  0  0  0  0  0  0  0
   -8.2343   -1.5902    6.4351 O   0  0  0  0  0  0  0  0  0  0  0  0
   -3.3263   -0.0290   -1.1384 H   0  0  0  0  0  0  0  0  0  0  0  0
   -4.5981   -0.6398   -0.0831 H   0  0  0  0  0  0  0  0  0  0  0  0
   -4.2053    1.0757   -0.1092 H   0  0  0  0  0  0  0  0  0  0  0  0
   -2.5461   -0.4157    3.1355 H   0  0  0  0  0  0  0  0  0  0  0  0
   -2.4608    2.0605    1.1949 H   0  0  0  0  0  0  0  0  0  0  0  0
   -1.2315    1.1220    2.0339 H   0  0  0  0  0  0  0  0  0  0  0  0
   -4.8521   -1.9578    1.8974 H   0  0  0  0  0  0  0  0  0  0  0  0
   -3.7376    1.6232    3.1456 H   0  0  0  0  0  0  0  0  0  0  0  0
   -3.3202   -2.7205    0.0624 H   0  0  0  0  0  0  0  0  0  0  0  0
   -0.0999   -1.9006   -0.2760 H   0  0  0  0  0  0  0  0  0  0  0  0
   -1.3964    1.6359   -0.9623 H   0  0  0  0  0  0  0  0  0  0  0  0
   -0.1653    2.1790    0.1871 H   0  0  0  0  0  0  0  0  0  0  0  0
   -3.6145   -1.8983    4.6799 H   0  0  0  0  0  0  0  0  0  0  0  0
   -3.4321   -3.9101    2.2136 H   0  0  0  0  0  0  0  0  0  0  0  0
   -2.1109   -2.9306    2.8600 H   0  0  0  0  0  0  0  0  0  0  0  0
   -5.7608    1.9071    2.4782 H   0  0  0  0  0  0  0  0  0  0  0  0
   -4.1901    0.4770    5.1432 H   0  0  0  0  0  0  0  0  0  0  0  0
   -5.7298    1.1359    4.6305 H   0  0  0  0  0  0  0  0  0  0  0  0
   -2.1553   -4.8472    0.3864 H   0  0  0  0  0  0  0  0  0  0  0  0
   -0.6676   -3.9976    0.8263 H   0  0  0  0  0  0  0  0  0  0  0  0
   -1.3514   -3.8388   -0.8074 H   0  0  0  0  0  0  0  0  0  0  0  0
   -5.6978   -3.8599    3.7130 H   0  0  0  0  0  0  0  0  0  0  0  0
   -4.2338   -4.1447    4.6851 H   0  0  0  0  0  0  0  0  0  0  0  0
   -7.6509   -0.3762    3.9551 H   0  0  0  0  0  0  0  0  0  0  0  0
   -7.3983   -2.0910    3.6439 H   0  0  0  0  0  0  0  0  0  0  0  0
   -6.7430   -0.8951    2.5513 H   0  0  0  0  0  0  0  0  0  0  0  0
   -5.0468   -1.3053    6.5573 H   0  0  0  0  0  0  0  0  0  0  0  0
   -5.3598   -3.5804    6.6518 H   0  0  0  0  0  0  0  0  0  0  0  0
   -6.8444   -3.5749    5.6946 H   0  0  0  0  0  0  0  0  0  0  0  0
   -6.8013    1.0140    6.9209 H   0  0  0  0  0  0  0  0  0  0  0  0
   -6.2879   -0.0209    8.2672 H   0  0  0  0  0  0  0  0  0  0  0  0
   -8.0069    0.3006    8.0030 H   0  0  0  0  0  0  0  0  0  0  0  0
  2  1  1  0  0  0  0 
  3  2  1  0  0  0  0 
  2  4  1  0  0  0  0 
  2  5  1  0  0  0  0 
  3  6  1  0  0  0  0 
  3  7  1  0  0  0  0 
  8  4  1  0  0  0  0 
  4  9  2  0  0  0  0 
  5 10  1  0  0  0  0 
  6 11  1  0  0  0  0 
  6 12  1  0  0  0  0 
  7 13  1  0  0  0  0 
  7 14  1  0  0  0  0 
  8 12  1  0  0  0  0 
  8 15  1  0  0  0  0 
  9 16  1  0  0  0  0 
 10 16  1  0  0  0  0 
 11 17  1  0  0  0  0 
 11 18  1  0  0  0  0 
 17 14  1  0  0  0  0 
 16 19  2  0  0  0  0 
 17 20  1  0  0  0  0 
 17 21  1  0  0  0  0 
 18 22  1  0  0  0  0 
 21 22  1  0  0  0  0 
 21 23  1  0  0  0  0 
 23 24  1  0  0  0  0 
 23 25  2  0  0  0  0 
 26  1  1  0  0  0  0 
 27  1  1  0  0  0  0 
 28  1  1  0  0  0  0 
  3 29  1  0  0  0  0 
 30  5  1  0  0  0  0 
 31  5  1  0  0  0  0 
  6 32  1  0  0  0  0 
  7 33  1  0  0  0  0 
  8 34  1  0  0  0  0 
 35  9  1  0  0  0  0 
 36 10  1  0  0  0  0 
 37 10  1  0  0  0  0 
 11 38  1  0  0  0  0 
 39 12  1  0  0  0  0 
 40 12  1  0  0  0  0 
 41 13  1  0  0  0  0 
 42 14  1  0  0  0  0 
 43 14  1  0  0  0  0 
 44 15  1  0  0  0  0 
 45 15  1  0  0  0  0 
 46 15  1  0  0  0  0 
 47 18  1  0  0  0  0 
 48 18  1  0  0  0  0 
 49 20  1  0  0  0  0 
 50 20  1  0  0  0  0 
 51 20  1  0  0  0  0 
 21 52  1  0  0  0  0 
 53 22  1  0  0  0  0 
 54 22  1  0  0  0  0 
 55 24  1  0  0  0  0 
 56 24  1  0  0  0  0 
 57 24  1  0  0  0  0 
M  END
> <cdk:Title>
medrysone

> <Conformer>
1

> <SuperDrugID>
SD001471

$$$$
