teniposide
  CDK     0628171801

 78 85  0  0  0  0  0  0  0  0999 V2000
   11.5486   -0.3310    1.3398 O   0  0  0  0  0  0  0  0  0  0  0  0
   10.8561   -0.2708    2.3810 C   0  0  0  0  0  0  0  0  0  0  0  0
   11.3703    0.0276    3.7183 C   0  0  2  0  0  0  0  0  0  0  0  0
    9.5033   -0.3502    2.3922 O   0  0  0  0  0  0  0  0  0  0  0  0
   12.7431   -0.5129    4.2279 C   0  0  1  0  0  0  0  0  0  0  0  0
   10.2154   -0.5084    4.5899 C   0  0  2  0  0  0  0  0  0  0  0  0
    8.9643   -0.2698    3.7160 C   0  0  2  0  0  0  0  0  0  0  0  0
   12.8567   -0.3567    5.7235 C   0  0  0  0  0  0  0  0  0  0  0  0
   13.0635   -1.9257    3.8042 C   0  0  0  0  0  0  0  0  0  0  0  0
   10.3275    0.0808    6.0252 C   0  0  1  0  0  0  0  0  0  0  0  0
   11.7087   -0.1866    6.5707 C   0  0  0  0  0  0  0  0  0  0  0  0
   14.1430   -0.4794    6.3100 C   0  0  0  0  0  0  0  0  0  0  0  0
   13.8308   -2.1619    2.6373 C   0  0  0  0  0  0  0  0  0  0  0  0
   12.6602   -3.0549    4.5649 C   0  0  0  0  0  0  0  0  0  0  0  0
    9.9996    1.4997    6.0018 O   0  0  0  0  0  0  0  0  0  0  0  0
   11.8758   -0.2651    7.9768 C   0  0  0  0  0  0  0  0  0  0  0  0
   14.2723   -0.4813    7.7047 C   0  0  0  0  0  0  0  0  0  0  0  0
   14.2117   -3.4653    2.2575 C   0  0  0  0  0  0  0  0  0  0  0  0
   13.0206   -4.3642    4.1927 C   0  0  0  0  0  0  0  0  0  0  0  0
    9.9304    2.1888    7.2751 C   0  0  2  0  0  0  0  0  0  0  0  0
   13.1597   -0.3944    8.5217 C   0  0  0  0  0  0  0  0  0  0  0  0
   15.4073   -0.5876    8.4198 O   0  0  0  0  0  0  0  0  0  0  0  0
   14.9538   -3.6584    1.1221 O   0  0  0  0  0  0  0  0  0  0  0  0
   13.8014   -4.5652    3.0378 C   0  0  0  0  0  0  0  0  0  0  0  0
   12.6642   -5.4256    4.9833 O   0  0  0  0  0  0  0  0  0  0  0  0
    9.0164    1.4906    8.1565 O   0  0  0  0  0  0  0  0  0  0  0  0
    9.4705    3.6633    7.0818 C   0  0  2  0  0  0  0  0  0  0  0  0
   13.4887   -0.4379    9.8245 O   0  0  0  0  0  0  0  0  0  0  0  0
   14.9234   -0.3386    9.7530 C   0  0  2  0  0  0  0  0  0  0  0  0
   16.3716   -3.5792    1.3520 C   0  0  0  0  0  0  0  0  0  0  0  0
   14.1717   -5.8200    2.6851 O   0  0  0  0  0  0  0  0  0  0  0  0
   11.3476   -5.9377    4.7125 C   0  0  0  0  0  0  0  0  0  0  0  0
    8.9223    2.0671    9.4726 C   0  0  1  0  0  0  0  0  0  0  0  0
   10.4358    4.3906    6.3210 O   0  0  0  0  0  0  0  0  0  0  0  0
    9.2652    4.3609    8.4629 C   0  0  2  0  0  0  0  0  0  0  0  0
    8.3452    3.5076    9.3777 C   0  0  2  0  0  0  0  0  0  0  0  0
    8.0038    1.2171   10.3821 C   0  0  1  0  0  0  0  0  0  0  0  0
    8.7104    5.6646    8.2916 O   0  0  0  0  0  0  0  0  0  0  0  0
    8.2127    4.0614   10.7043 O   0  0  0  0  0  0  0  0  0  0  0  0
    7.8584    1.8849   11.6519 O   0  0  0  0  0  0  0  0  0  0  0  0
    7.3735    3.2414   11.5547 C   0  0  1  0  0  0  0  0  0  0  0  0
    7.3704    3.7720   12.9244 C   0  0  0  0  0  0  0  0  0  0  0  0
    6.2891    3.7812   13.8153 C   0  0  0  0  0  0  0  0  0  0  0  0
    8.7391    4.4374   13.7997 S   0  0  0  0  0  0  0  0  0  0  0  0
    6.5626    4.2875   15.0981 C   0  0  0  0  0  0  0  0  0  0  0  0
    7.8767    4.7127   15.3012 C   0  0  0  0  0  0  0  0  0  0  0  0
   11.4007    1.1237    3.7759 H   0  0  0  0  0  0  0  0  0  0  0  0
   10.2988   -1.5981    4.6772 H   0  0  0  0  0  0  0  0  0  0  0  0
   10.9331    2.2240    7.7147 H   0  0  0  0  0  0  0  0  0  0  0  0
    9.9136    2.0964    9.9420 H   0  0  0  0  0  0  0  0  0  0  0  0
    7.3561    3.4820    8.9055 H   0  0  0  0  0  0  0  0  0  0  0  0
   13.4918    0.1560    3.7871 H   0  0  0  0  0  0  0  0  0  0  0  0
    8.2114   -1.0473    3.8703 H   0  0  0  0  0  0  0  0  0  0  0  0
    8.5205    0.7130    3.8813 H   0  0  0  0  0  0  0  0  0  0  0  0
    9.5832   -0.4539    6.6247 H   0  0  0  0  0  0  0  0  0  0  0  0
   14.9765   -0.5804    5.7271 H   0  0  0  0  0  0  0  0  0  0  0  0
   14.1306   -1.3762    2.0548 H   0  0  0  0  0  0  0  0  0  0  0  0
   12.1146   -2.9367    5.4208 H   0  0  0  0  0  0  0  0  0  0  0  0
   11.0768   -0.2096    8.6103 H   0  0  0  0  0  0  0  0  0  0  0  0
    8.5237    3.6711    6.5326 H   0  0  0  0  0  0  0  0  0  0  0  0
   15.2306    0.6633   10.0684 H   0  0  0  0  0  0  0  0  0  0  0  0
   15.3678   -1.0622   10.4365 H   0  0  0  0  0  0  0  0  0  0  0  0
   16.8781   -3.7669    0.4064 H   0  0  0  0  0  0  0  0  0  0  0  0
   16.6657   -2.5870    1.7008 H   0  0  0  0  0  0  0  0  0  0  0  0
   16.7066   -4.3320    2.0692 H   0  0  0  0  0  0  0  0  0  0  0  0
   15.0225   -5.9630    3.1512 H   0  0  0  0  0  0  0  0  0  0  0  0
   11.1805   -6.7950    5.3656 H   0  0  0  0  0  0  0  0  0  0  0  0
   10.5763   -5.1934    4.9268 H   0  0  0  0  0  0  0  0  0  0  0  0
   11.2544   -6.2767    3.6776 H   0  0  0  0  0  0  0  0  0  0  0  0
   10.4364    3.9715    5.4346 H   0  0  0  0  0  0  0  0  0  0  0  0
   10.2378    4.4877    8.9477 H   0  0  0  0  0  0  0  0  0  0  0  0
    6.9784    1.1311    9.8952 H   0  0  0  0  0  0  0  0  0  0  0  0
    8.5565    0.2498   10.6027 H   0  0  0  0  0  0  0  0  0  0  0  0
    7.8360    5.5183    7.8738 H   0  0  0  0  0  0  0  0  0  0  0  0
    6.3447    3.2398   11.1779 H   0  0  0  0  0  0  0  0  0  0  0  0
    5.3659    3.4308   13.5533 H   0  0  0  0  0  0  0  0  0  0  0  0
    5.8510    4.3352   15.8289 H   0  0  0  0  0  0  0  0  0  0  0  0
    8.2637    5.1039   16.1602 H   0  0  0  0  0  0  0  0  0  0  0  0
  1  2  2  0  0  0  0 
  3  2  1  0  0  0  0 
  2  4  1  0  0  0  0 
  3  5  1  0  0  0  0 
  6  3  1  0  0  0  0 
  3 47  1  0  0  0  0 
  4  7  1  0  0  0  0 
  5  8  1  0  0  0  0 
  5  9  1  0  0  0  0 
  6  7  1  0  0  0  0 
 10  6  1  0  0  0  0 
  6 48  1  0  0  0  0 
  8 11  2  0  0  0  0 
  8 12  1  0  0  0  0 
  9 13  2  0  0  0  0 
  9 14  1  0  0  0  0 
 10 11  1  0  0  0  0 
 10 15  1  0  0  0  0 
 11 16  1  0  0  0  0 
 12 17  2  0  0  0  0 
 13 18  1  0  0  0  0 
 14 19  2  0  0  0  0 
 20 15  1  0  0  0  0 
 16 21  2  0  0  0  0 
 17 21  1  0  0  0  0 
 17 22  1  0  0  0  0 
 18 23  1  0  0  0  0 
 18 24  2  0  0  0  0 
 19 24  1  0  0  0  0 
 19 25  1  0  0  0  0 
 20 26  1  0  0  0  0 
 27 20  1  0  0  0  0 
 20 49  1  0  0  0  0 
 21 28  1  0  0  0  0 
 22 29  1  0  0  0  0 
 23 30  1  0  0  0  0 
 24 31  1  0  0  0  0 
 25 32  1  0  0  0  0 
 33 26  1  0  0  0  0 
 27 34  1  0  0  0  0 
 27 35  1  0  0  0  0 
 28 29  1  0  0  0  0 
 36 33  1  0  0  0  0 
 33 37  1  0  0  0  0 
 33 50  1  0  0  0  0 
 35 36  1  0  0  0  0 
 35 38  1  0  0  0  0 
 36 39  1  0  0  0  0 
 36 51  1  0  0  0  0 
 37 40  1  0  0  0  0 
 41 39  1  0  0  0  0 
 41 40  1  0  0  0  0 
 41 42  1  0  0  0  0 
 42 43  2  0  0  0  0 
 42 44  1  0  0  0  0 
 43 45  1  0  0  0  0 
 44 46  1  0  0  0  0 
 45 46  2  0  0  0  0 
  5 52  1  0  0  0  0 
  7 53  1  0  0  0  0 
  7 54  1  0  0  0  0 
 10 55  1  0  0  0  0 
 12 56  1  0  0  0  0 
 13 57  1  0  0  0  0 
 14 58  1  0  0  0  0 
 16 59  1  0  0  0  0 
 27 60  1  0  0  0  0 
 29 61  1  0  0  0  0 
 29 62  1  0  0  0  0 
 30 63  1  0  0  0  0 
 30 64  1  0  0  0  0 
 30 65  1  0  0  0  0 
 31 66  1  0  0  0  0 
 32 67  1  0  0  0  0 
 32 68  1  0  0  0  0 
 32 69  1  0  0  0  0 
 34 70  1  0  0  0  0 
 35 71  1  0  0  0  0 
 37 72  1  0  0  0  0 
 37 73  1  0  0  0  0 
 38 74  1  0  0  0  0 
 41 75  1  0  0  0  0 
 43 76  1  0  0  0  0 
 45 77  1  0  0  0  0 
 46 78  1  0  0  0  0 
M  END
> <cdk:Title>
teniposide

> <Conformer>
1

> <SuperDrugID>
SD002329

$$$$
