indobufen
  CDK     0628171801

 39 41  0  0  0  0  0  0  0  0999 V2000
    7.7678    3.2657    0.2833 O   0  0  0  0  0  0  0  0  0  0  0  0
    8.4026    2.4501   -0.4245 C   0  0  0  0  0  0  0  0  0  0  0  0
    7.9058    1.4993   -1.2900 N   0  0  0  0  0  0  0  0  0  0  0  0
    9.7900    2.4173   -0.4230 C   0  0  0  0  0  0  0  0  0  0  0  0
    9.0144    0.8723   -1.9771 C   0  0  2  0  0  0  0  0  0  0  0  0
    6.5732    1.1251   -1.4951 C   0  0  0  0  0  0  0  0  0  0  0  0
   10.1892    1.4737   -1.3568 C   0  0  0  0  0  0  0  0  0  0  0  0
   10.7364    3.1295    0.3388 C   0  0  0  0  0  0  0  0  0  0  0  0
    6.2104    0.2869   -2.5847 C   0  0  0  0  0  0  0  0  0  0  0  0
    5.5181    1.5098   -0.6274 C   0  0  0  0  0  0  0  0  0  0  0  0
   11.5513    1.2023   -1.5810 C   0  0  0  0  0  0  0  0  0  0  0  0
   12.1072    2.8623    0.1329 C   0  0  0  0  0  0  0  0  0  0  0  0
    4.8989   -0.1899   -2.7584 C   0  0  0  0  0  0  0  0  0  0  0  0
    4.2023    1.0411   -0.8001 C   0  0  0  0  0  0  0  0  0  0  0  0
   12.5120    1.9053   -0.8243 C   0  0  0  0  0  0  0  0  0  0  0  0
    3.8730    0.1505   -1.8478 C   0  0  0  0  0  0  0  0  0  0  0  0
    2.4840   -0.4047   -1.9707 C   0  0  2  0  0  0  0  0  0  0  0  0
    2.4931   -1.8748   -1.7474 C   0  0  0  0  0  0  0  0  0  0  0  0
    1.7695   -0.0465   -3.3123 C   0  0  2  0  0  0  0  0  0  0  0  0
    3.0051   -2.7256   -2.6682 O   0  0  0  0  0  0  0  0  0  0  0  0
    2.0236   -2.3784   -0.7005 O   0  0  0  0  0  0  0  0  0  0  0  0
    1.6533    1.4724   -3.5702 C   0  0  0  0  0  0  0  0  0  0  0  0
    9.0023    1.1024   -3.0459 H   0  0  0  0  0  0  0  0  0  0  0  0
    9.0285   -0.2092   -1.8180 H   0  0  0  0  0  0  0  0  0  0  0  0
   10.4404    3.8194    1.0328 H   0  0  0  0  0  0  0  0  0  0  0  0
    6.9041   -0.0056   -3.2745 H   0  0  0  0  0  0  0  0  0  0  0  0
    5.6810    2.1246    0.1675 H   0  0  0  0  0  0  0  0  0  0  0  0
   11.8376    0.5052   -2.2718 H   0  0  0  0  0  0  0  0  0  0  0  0
   12.8090    3.3634    0.6824 H   0  0  0  0  0  0  0  0  0  0  0  0
    4.7016   -0.7957   -3.5573 H   0  0  0  0  0  0  0  0  0  0  0  0
    3.4829    1.3513   -0.1419 H   0  0  0  0  0  0  0  0  0  0  0  0
   13.5056    1.7193   -0.9688 H   0  0  0  0  0  0  0  0  0  0  0  0
    1.8583    0.0228   -1.1784 H   0  0  0  0  0  0  0  0  0  0  0  0
    0.7547   -0.4582   -3.2909 H   0  0  0  0  0  0  0  0  0  0  0  0
    2.2887   -0.4992   -4.1613 H   0  0  0  0  0  0  0  0  0  0  0  0
    3.0008   -3.6901   -2.4974 H   0  0  0  0  0  0  0  0  0  0  0  0
    2.6424    1.9179   -3.6974 H   0  0  0  0  0  0  0  0  0  0  0  0
    1.0774    1.6399   -4.4818 H   0  0  0  0  0  0  0  0  0  0  0  0
    1.1452    1.9620   -2.7363 H   0  0  0  0  0  0  0  0  0  0  0  0
  1  2  2  0  0  0  0 
  2  3  1  0  0  0  0 
  2  4  1  0  0  0  0 
  3  5  1  0  0  0  0 
  3  6  1  0  0  0  0 
  4  7  2  0  0  0  0 
  4  8  1  0  0  0  0 
  5  7  1  0  0  0  0 
  6  9  2  0  0  0  0 
  6 10  1  0  0  0  0 
  7 11  1  0  0  0  0 
  8 12  2  0  0  0  0 
  9 13  1  0  0  0  0 
 10 14  2  0  0  0  0 
 11 15  2  0  0  0  0 
 12 15  1  0  0  0  0 
 13 16  2  0  0  0  0 
 14 16  1  0  0  0  0 
 17 16  1  0  0  0  0 
 17 18  1  0  0  0  0 
 17 19  1  0  0  0  0 
 18 20  1  0  0  0  0 
 18 21  2  0  0  0  0 
 19 22  1  0  0  0  0 
  5 23  1  0  0  0  0 
  5 24  1  0  0  0  0 
  8 25  1  0  0  0  0 
  9 26  1  0  0  0  0 
 10 27  1  0  0  0  0 
 11 28  1  0  0  0  0 
 12 29  1  0  0  0  0 
 13 30  1  0  0  0  0 
 14 31  1  0  0  0  0 
 15 32  1  0  0  0  0 
 17 33  1  0  0  0  0 
 19 34  1  0  0  0  0 
 19 35  1  0  0  0  0 
 20 36  1  0  0  0  0 
 22 37  1  0  0  0  0 
 22 38  1  0  0  0  0 
 22 39  1  0  0  0  0 
M  END
> <cdk:Title>
indobufen

> <Conformer>
1

> <SuperDrugID>
SD001276

$$$$
