desalkylflurazepam
  CDK     0628171802

 30 32  0  0  0  0  0  0  0  0999 V2000
   -2.4571    4.6829    2.2477 Cl  0  0  0  0  0  0  0  0  0  0  0  0
   -3.5106    3.4011    1.9057 C   0  0  0  0  0  0  0  0  0  0  0  0
   -3.0065    2.1891    1.4003 C   0  0  0  0  0  0  0  0  0  0  0  0
   -4.8911    3.5514    2.1106 C   0  0  0  0  0  0  0  0  0  0  0  0
   -3.8626    1.1017    1.0783 C   0  0  0  0  0  0  0  0  0  0  0  0
   -5.7601    2.4930    1.8039 C   0  0  0  0  0  0  0  0  0  0  0  0
   -3.3059   -0.0932    0.5758 C   0  0  0  0  0  0  0  0  0  0  0  0
   -5.2668    1.2771    1.2799 C   0  0  0  0  0  0  0  0  0  0  0  0
   -3.8742   -0.8518   -0.2972 N   0  0  0  0  0  0  0  0  0  0  0  0
   -2.0634   -0.5579    0.9855 C   0  0  0  0  0  0  0  0  0  0  0  0
   -6.2223    0.3381    1.0144 N   0  0  0  0  0  0  0  0  0  0  0  0
   -5.0908   -0.6880   -0.9417 C   0  0  1  0  0  0  0  0  0  0  0  0
   -0.9276   -0.4500    0.1413 C   0  0  0  0  0  0  0  0  0  0  0  0
   -1.9180   -1.1458    2.2650 C   0  0  0  0  0  0  0  0  0  0  0  0
   -6.1882   -0.6055    0.0406 C   0  0  0  0  0  0  0  0  0  0  0  0
   -1.0123    0.0835   -1.0513 F   0  0  0  0  0  0  0  0  0  0  0  0
    0.3291   -0.9090    0.5832 C   0  0  0  0  0  0  0  0  0  0  0  0
   -0.6633   -1.6134    2.6971 C   0  0  0  0  0  0  0  0  0  0  0  0
   -7.1440   -1.4113   -0.0173 O   0  0  0  0  0  0  0  0  0  0  0  0
    0.4596   -1.4908    1.8584 C   0  0  0  0  0  0  0  0  0  0  0  0
   -1.9960    2.1147    1.2562 H   0  0  0  0  0  0  0  0  0  0  0  0
   -5.2696    4.4313    2.4746 H   0  0  0  0  0  0  0  0  0  0  0  0
   -6.7640    2.6264    1.9530 H   0  0  0  0  0  0  0  0  0  0  0  0
   -7.0260    0.3726    1.5553 H   0  0  0  0  0  0  0  0  0  0  0  0
   -5.0709    0.2226   -1.5481 H   0  0  0  0  0  0  0  0  0  0  0  0
   -5.2322   -1.5382   -1.6115 H   0  0  0  0  0  0  0  0  0  0  0  0
   -2.7235   -1.2440    2.8889 H   0  0  0  0  0  0  0  0  0  0  0  0
    1.1528   -0.8189   -0.0188 H   0  0  0  0  0  0  0  0  0  0  0  0
   -0.5663   -2.0422    3.6212 H   0  0  0  0  0  0  0  0  0  0  0  0
    1.3732   -1.8235    2.1776 H   0  0  0  0  0  0  0  0  0  0  0  0
  1  2  1  0  0  0  0 
  2  3  2  0  0  0  0 
  2  4  1  0  0  0  0 
  3  5  1  0  0  0  0 
  4  6  2  0  0  0  0 
  5  7  1  0  0  0  0 
  5  8  2  0  0  0  0 
  6  8  1  0  0  0  0 
  7  9  2  0  0  0  0 
  7 10  1  0  0  0  0 
  8 11  1  0  0  0  0 
  9 12  1  0  0  0  0 
 10 13  2  0  0  0  0 
 10 14  1  0  0  0  0 
 11 15  1  0  0  0  0 
 12 15  1  0  0  0  0 
 13 16  1  0  0  0  0 
 13 17  1  0  0  0  0 
 14 18  2  0  0  0  0 
 15 19  2  0  0  0  0 
 17 20  2  0  0  0  0 
 18 20  1  0  0  0  0 
  3 21  1  0  0  0  0 
  4 22  1  0  0  0  0 
  6 23  1  0  0  0  0 
 11 24  1  0  0  0  0 
 12 25  1  0  0  0  0 
 12 26  1  0  0  0  0 
 14 27  1  0  0  0  0 
 17 28  1  0  0  0  0 
 18 29  1  0  0  0  0 
 20 30  1  0  0  0  0 
M  END
> <cdk:Title>
desalkylflurazepam

> <Conformer>
1

> <SuperDrugID>
SD000714

$$$$
