dexrazoxane
  CDK     0628171802

 35 36  0  0  0  0  0  0  0  0999 V2000
   -0.8573    3.2543    2.4648 C   0  0  1  0  0  0  0  0  0  0  0  0
   -2.1645    2.9759    3.2788 C   0  0  2  0  0  0  0  0  0  0  0  0
   -0.3878    2.1548    1.5530 N   0  0  2  0  0  0  0  0  0  0  0  0
   -3.3966    2.7695    2.3579 C   0  0  0  0  0  0  0  0  0  0  0  0
   -2.4541    4.0125    4.3353 N   0  0  1  0  0  0  0  0  0  0  0  0
    0.0259    0.8970    2.2617 C   0  0  2  0  0  0  0  0  0  0  0  0
    0.6396    2.6413    0.5737 C   0  0  1  0  0  0  0  0  0  0  0  0
   -1.7685    3.7964    5.6508 C   0  0  2  0  0  0  0  0  0  0  0  0
   -2.5537    5.4399    3.8881 C   0  0  1  0  0  0  0  0  0  0  0  0
    0.6354   -0.0995    1.3493 C   0  0  0  0  0  0  0  0  0  0  0  0
    1.1370    1.5495   -0.2906 C   0  0  0  0  0  0  0  0  0  0  0  0
   -2.1953    4.7904    6.6606 C   0  0  0  0  0  0  0  0  0  0  0  0
   -2.8767    6.3557    5.0016 C   0  0  0  0  0  0  0  0  0  0  0  0
    0.7265   -1.2996    1.6968 O   0  0  0  0  0  0  0  0  0  0  0  0
    1.1308    0.2640    0.1388 N   0  0  0  0  0  0  0  0  0  0  0  0
    1.6027    1.8016   -1.4244 O   0  0  0  0  0  0  0  0  0  0  0  0
   -2.0373    4.5522    7.8794 O   0  0  0  0  0  0  0  0  0  0  0  0
   -2.7115    5.9894    6.2959 N   0  0  0  0  0  0  0  0  0  0  0  0
   -3.2837    7.5126    4.7514 O   0  0  0  0  0  0  0  0  0  0  0  0
   -1.0442    4.1462    1.8595 H   0  0  0  0  0  0  0  0  0  0  0  0
   -0.0499    3.5028    3.1596 H   0  0  0  0  0  0  0  0  0  0  0  0
   -2.0426    2.0222    3.7976 H   0  0  0  0  0  0  0  0  0  0  0  0
   -3.2673    1.8734    1.7469 H   0  0  0  0  0  0  0  0  0  0  0  0
   -3.5401    3.6230    1.6926 H   0  0  0  0  0  0  0  0  0  0  0  0
   -4.2963    2.6425    2.9642 H   0  0  0  0  0  0  0  0  0  0  0  0
   -0.8564    0.4306    2.7014 H   0  0  0  0  0  0  0  0  0  0  0  0
    0.7399    1.1179    3.0617 H   0  0  0  0  0  0  0  0  0  0  0  0
    0.2040    3.4202   -0.0591 H   0  0  0  0  0  0  0  0  0  0  0  0
    1.4980    3.0652    1.1016 H   0  0  0  0  0  0  0  0  0  0  0  0
   -0.6821    3.8534    5.5398 H   0  0  0  0  0  0  0  0  0  0  0  0
   -2.0250    2.8024    6.0272 H   0  0  0  0  0  0  0  0  0  0  0  0
   -1.6158    5.7807    3.4486 H   0  0  0  0  0  0  0  0  0  0  0  0
   -3.3432    5.5263    3.1395 H   0  0  0  0  0  0  0  0  0  0  0  0
    1.5041   -0.4223   -0.4400 H   0  0  0  0  0  0  0  0  0  0  0  0
   -2.9551    6.6215    6.9920 H   0  0  0  0  0  0  0  0  0  0  0  0
  2  1  1  0  0  0  0 
  1  3  1  0  0  0  0 
  2  4  1  0  0  0  0 
  2  5  1  0  0  0  0 
  3  6  1  0  0  0  0 
  3  7  1  0  0  0  0 
  5  8  1  0  0  0  0 
  5  9  1  0  0  0  0 
  6 10  1  0  0  0  0 
  7 11  1  0  0  0  0 
  8 12  1  0  0  0  0 
  9 13  1  0  0  0  0 
 10 14  2  0  0  0  0 
 10 15  1  0  0  0  0 
 11 15  1  0  0  0  0 
 11 16  2  0  0  0  0 
 12 17  2  0  0  0  0 
 12 18  1  0  0  0  0 
 13 18  1  0  0  0  0 
 13 19  2  0  0  0  0 
 20  1  1  0  0  0  0 
 21  1  1  0  0  0  0 
  2 22  1  0  0  0  0 
 23  4  1  0  0  0  0 
 24  4  1  0  0  0  0 
 25  4  1  0  0  0  0 
 26  6  1  0  0  0  0 
 27  6  1  0  0  0  0 
 28  7  1  0  0  0  0 
 29  7  1  0  0  0  0 
 30  8  1  0  0  0  0 
 31  8  1  0  0  0  0 
 32  9  1  0  0  0  0 
 33  9  1  0  0  0  0 
 34 15  1  0  0  0  0 
 35 18  1  0  0  0  0 
M  END
> <cdk:Title>
dexrazoxane

> <Conformer>
1

> <SuperDrugID>
SD000743

$$$$
