azosemide
  CDK     0628171801

 34 36  0  0  0  0  0  0  0  0999 V2000
    2.9149    2.8137   -0.0386 N   0  0  0  0  0  0  0  0  0  0  0  0
    3.1804    1.9406    1.0624 C   0  0  2  0  0  0  0  0  0  0  0  0
    2.2070    3.9917   -0.0188 C   0  0  0  0  0  0  0  0  0  0  0  0
    3.9758    0.7878    0.6094 C   0  0  0  0  0  0  0  0  0  0  0  0
    1.6441    4.5271   -1.2172 C   0  0  0  0  0  0  0  0  0  0  0  0
    2.0264    4.6964    1.1965 C   0  0  0  0  0  0  0  0  0  0  0  0
    3.5379   -0.5261    0.3952 C   0  0  0  0  0  0  0  0  0  0  0  0
    5.6966    0.8000    0.2592 S   0  0  0  0  0  0  0  0  0  0  0  0
    0.9113    5.7405   -1.1369 C   0  0  0  0  0  0  0  0  0  0  0  0
    1.7670    3.8954   -2.4935 C   0  0  0  0  0  0  0  0  0  0  0  0
    1.3181    5.9081    1.2544 C   0  0  0  0  0  0  0  0  0  0  0  0
    4.5286   -1.4370   -0.0169 C   0  0  0  0  0  0  0  0  0  0  0  0
    5.8110   -0.9005   -0.1490 C   0  0  0  0  0  0  0  0  0  0  0  0
    0.7379    6.4346    0.0788 C   0  0  0  0  0  0  0  0  0  0  0  0
    1.0824    4.1743   -3.6116 N   0  0  0  0  0  0  0  0  0  0  0  0
    2.5882    2.8969   -2.8488 N   0  0  0  0  0  0  0  0  0  0  0  0
    1.2058    6.6784    2.7659 Cl  0  0  0  0  0  0  0  0  0  0  0  0
   -0.2177    7.9333    0.1109 S   0  0  1  0  0  0  0  0  0  0  0  0
    1.4632    3.3982   -4.5666 N   0  0  0  0  0  0  0  0  0  0  0  0
    2.3823    2.6220   -4.0951 N   0  0  0  0  0  0  0  0  0  0  0  0
   -1.6128    7.7008    1.1569 N   0  0  2  0  0  0  0  0  0  0  0  0
    0.6519    9.1424    0.7069 O   0  0  0  0  0  0  0  0  0  0  0  0
   -0.7526    8.3433   -1.3448 O   0  0  0  0  0  0  0  0  0  0  0  0
    3.2448    2.5175   -0.8954 H   0  0  0  0  0  0  0  0  0  0  0  0
    2.2345    1.5927    1.4856 H   0  0  0  0  0  0  0  0  0  0  0  0
    3.7447    2.4552    1.8421 H   0  0  0  0  0  0  0  0  0  0  0  0
    2.4187    4.3301    2.0658 H   0  0  0  0  0  0  0  0  0  0  0  0
    2.5650   -0.8094    0.5259 H   0  0  0  0  0  0  0  0  0  0  0  0
    0.4901    6.1364   -1.9805 H   0  0  0  0  0  0  0  0  0  0  0  0
    4.3246   -2.4199   -0.2059 H   0  0  0  0  0  0  0  0  0  0  0  0
    6.6561   -1.4000   -0.4308 H   0  0  0  0  0  0  0  0  0  0  0  0
    0.3980    4.8522   -3.6941 H   0  0  0  0  0  0  0  0  0  0  0  0
   -2.1258    8.5843    1.1834 H   0  0  0  0  0  0  0  0  0  0  0  0
   -1.2494    7.5442    2.0988 H   0  0  0  0  0  0  0  0  0  0  0  0
  1  2  1  0  0  0  0 
  1  3  1  0  0  0  0 
  2  4  1  0  0  0  0 
  3  5  2  0  0  0  0 
  3  6  1  0  0  0  0 
  4  7  2  0  0  0  0 
  4  8  1  0  0  0  0 
  5  9  1  0  0  0  0 
  5 10  1  0  0  0  0 
  6 11  2  0  0  0  0 
  7 12  1  0  0  0  0 
  8 13  1  0  0  0  0 
  9 14  2  0  0  0  0 
 10 15  1  0  0  0  0 
 10 16  2  0  0  0  0 
 11 14  1  0  0  0  0 
 11 17  1  0  0  0  0 
 12 13  2  0  0  0  0 
 14 18  1  0  0  0  0 
 15 19  1  0  0  0  0 
 16 20  1  0  0  0  0 
 18 21  1  0  0  0  0 
 18 22  2  0  0  0  0 
 18 23  2  0  0  0  0 
 19 20  2  0  0  0  0 
 24  1  1  0  0  0  0 
 25  2  1  0  0  0  0 
 26  2  1  0  0  0  0 
 27  6  1  0  0  0  0 
 28  7  1  0  0  0  0 
 29  9  1  0  0  0  0 
 30 12  1  0  0  0  0 
 31 13  1  0  0  0  0 
 32 15  1  0  0  0  0 
 33 21  1  0  0  0  0 
 34 21  1  0  0  0  0 
M  END
> <cdk:Title>
azosemide

> <Conformer>
1

> <SuperDrugID>
SD000232

$$$$
