noscapine
  CDK     0628171801

 53 57  0  0  0  0  0  0  0  0999 V2000
    1.8128   -2.8376   -4.5115 O   0  0  0  0  0  0  0  0  0  0  0  0
    2.3086   -3.8024   -5.4591 C   0  0  0  0  0  0  0  0  0  0  0  0
    0.8318   -2.0435   -5.0401 C   0  0  0  0  0  0  0  0  0  0  0  0
    1.0948   -0.7431   -5.5592 C   0  0  0  0  0  0  0  0  0  0  0  0
   -0.4842   -2.5383   -5.0625 C   0  0  0  0  0  0  0  0  0  0  0  0
    2.4423   -0.1026   -5.4062 C   0  0  1  0  0  0  0  0  0  0  0  0
    0.0439   -0.0282   -6.2094 C   0  0  0  0  0  0  0  0  0  0  0  0
   -1.5091   -1.8213   -5.6501 C   0  0  0  0  0  0  0  0  0  0  0  0
   -0.9175   -3.7145   -4.5679 O   0  0  0  0  0  0  0  0  0  0  0  0
    2.7315    0.7559   -6.6036 N   0  0  2  0  0  0  0  0  0  0  0  0
    2.5839    0.6377   -4.0260 C   0  0  2  0  0  0  0  0  0  0  0  0
   -1.2635   -0.5727   -6.2384 C   0  0  0  0  0  0  0  0  0  0  0  0
    0.2728    1.2704   -6.9023 C   0  0  2  0  0  0  0  0  0  0  0  0
   -2.6807   -2.4829   -5.5919 O   0  0  0  0  0  0  0  0  0  0  0  0
   -2.3412   -3.5947   -4.7400 C   0  0  2  0  0  0  0  0  0  0  0  0
    4.1414    1.2274   -6.7408 C   0  0  0  0  0  0  0  0  0  0  0  0
    1.7217    1.8277   -6.8395 C   0  0  1  0  0  0  0  0  0  0  0  0
    2.5865   -0.2598   -2.8561 C   0  0  0  0  0  0  0  0  0  0  0  0
    1.4427    1.4594   -3.7216 O   0  0  0  0  0  0  0  0  0  0  0  0
    1.4675   -0.0323   -2.0595 C   0  0  0  0  0  0  0  0  0  0  0  0
    3.5182   -1.2565   -2.5147 C   0  0  0  0  0  0  0  0  0  0  0  0
    0.7947    1.0509   -2.6035 C   0  0  0  0  0  0  0  0  0  0  0  0
    1.1783   -0.8475   -0.9447 C   0  0  0  0  0  0  0  0  0  0  0  0
    3.2668   -2.0631   -1.3871 C   0  0  0  0  0  0  0  0  0  0  0  0
   -0.2402    1.5897   -2.1525 O   0  0  0  0  0  0  0  0  0  0  0  0
    0.0460   -0.6549   -0.1996 O   0  0  0  0  0  0  0  0  0  0  0  0
    2.0966   -1.8749   -0.6123 C   0  0  0  0  0  0  0  0  0  0  0  0
   -1.0988   -1.3428   -0.7407 C   0  0  0  0  0  0  0  0  0  0  0  0
    1.8239   -2.7313    0.4210 O   0  0  0  0  0  0  0  0  0  0  0  0
    2.4135   -2.3293    1.6693 C   0  0  0  0  0  0  0  0  0  0  0  0
    3.1917   -0.8986   -5.4350 H   0  0  0  0  0  0  0  0  0  0  0  0
    3.4840    1.2530   -4.0007 H   0  0  0  0  0  0  0  0  0  0  0  0
    3.0998   -4.3742   -4.9768 H   0  0  0  0  0  0  0  0  0  0  0  0
    1.5254   -4.5007   -5.7638 H   0  0  0  0  0  0  0  0  0  0  0  0
    2.7283   -3.3214   -6.3464 H   0  0  0  0  0  0  0  0  0  0  0  0
   -2.0319   -0.0689   -6.6867 H   0  0  0  0  0  0  0  0  0  0  0  0
   -0.4060    2.0220   -6.4889 H   0  0  0  0  0  0  0  0  0  0  0  0
    0.0048    1.1313   -7.9543 H   0  0  0  0  0  0  0  0  0  0  0  0
   -2.8083   -3.4519   -3.7608 H   0  0  0  0  0  0  0  0  0  0  0  0
   -2.7278   -4.5198   -5.1725 H   0  0  0  0  0  0  0  0  0  0  0  0
    4.3158    1.5729   -7.7601 H   0  0  0  0  0  0  0  0  0  0  0  0
    4.8497    0.4200   -6.5435 H   0  0  0  0  0  0  0  0  0  0  0  0
    4.3551    2.0531   -6.0593 H   0  0  0  0  0  0  0  0  0  0  0  0
    1.7928    2.5852   -6.0546 H   0  0  0  0  0  0  0  0  0  0  0  0
    1.9362    2.3319   -7.7867 H   0  0  0  0  0  0  0  0  0  0  0  0
    4.3525   -1.4061   -3.0849 H   0  0  0  0  0  0  0  0  0  0  0  0
    3.9315   -2.7991   -1.1372 H   0  0  0  0  0  0  0  0  0  0  0  0
   -1.9530   -1.1487   -0.0911 H   0  0  0  0  0  0  0  0  0  0  0  0
   -1.3518   -0.9779   -1.7395 H   0  0  0  0  0  0  0  0  0  0  0  0
   -0.9370   -2.4244   -0.7800 H   0  0  0  0  0  0  0  0  0  0  0  0
    2.1646   -3.0848    2.4159 H   0  0  0  0  0  0  0  0  0  0  0  0
    3.5034   -2.2677    1.5968 H   0  0  0  0  0  0  0  0  0  0  0  0
    2.0099   -1.3708    2.0067 H   0  0  0  0  0  0  0  0  0  0  0  0
  1  2  1  0  0  0  0 
  1  3  1  0  0  0  0 
  3  4  2  0  0  0  0 
  3  5  1  0  0  0  0 
  6  4  1  0  0  0  0 
  4  7  1  0  0  0  0 
  5  8  2  0  0  0  0 
  5  9  1  0  0  0  0 
  6 10  1  0  0  0  0 
 11  6  1  0  0  0  0 
  6 31  1  0  0  0  0 
  7 12  2  0  0  0  0 
  7 13  1  0  0  0  0 
  8 12  1  0  0  0  0 
  8 14  1  0  0  0  0 
  9 15  1  0  0  0  0 
 10 16  1  0  0  0  0 
 10 17  1  0  0  0  0 
 11 18  1  0  0  0  0 
 11 19  1  0  0  0  0 
 11 32  1  0  0  0  0 
 13 17  1  0  0  0  0 
 14 15  1  0  0  0  0 
 18 20  2  0  0  0  0 
 18 21  1  0  0  0  0 
 19 22  1  0  0  0  0 
 20 22  1  0  0  0  0 
 20 23  1  0  0  0  0 
 21 24  2  0  0  0  0 
 22 25  2  0  0  0  0 
 23 26  1  0  0  0  0 
 23 27  2  0  0  0  0 
 24 27  1  0  0  0  0 
 26 28  1  0  0  0  0 
 27 29  1  0  0  0  0 
 29 30  1  0  0  0  0 
  2 33  1  0  0  0  0 
  2 34  1  0  0  0  0 
  2 35  1  0  0  0  0 
 12 36  1  0  0  0  0 
 13 37  1  0  0  0  0 
 13 38  1  0  0  0  0 
 15 39  1  0  0  0  0 
 15 40  1  0  0  0  0 
 16 41  1  0  0  0  0 
 16 42  1  0  0  0  0 
 16 43  1  0  0  0  0 
 17 44  1  0  0  0  0 
 17 45  1  0  0  0  0 
 21 46  1  0  0  0  0 
 24 47  1  0  0  0  0 
 28 48  1  0  0  0  0 
 28 49  1  0  0  0  0 
 28 50  1  0  0  0  0 
 30 51  1  0  0  0  0 
 30 52  1  0  0  0  0 
 30 53  1  0  0  0  0 
M  END
> <cdk:Title>
noscapine

> <Conformer>
1

> <SuperDrugID>
SD001764

$$$$
