ditiocarb
  CDK     0628171802

 19 18  0  0  0  0  0  0  0  0999 V2000
    1.1407   -1.8131    0.9055 C   0  0  0  0  0  0  0  0  0  0  0  0
    0.6332   -1.0665   -0.3495 C   0  0  2  0  0  0  0  0  0  0  0  0
    1.7069   -0.4245   -1.0831 N   0  0  0  0  0  0  0  0  0  0  0  0
    2.5187   -1.2122   -1.9943 C   0  0  2  0  0  0  0  0  0  0  0  0
    3.0945   -0.4582   -3.2186 C   0  0  0  0  0  0  0  0  0  0  0  0
    1.9754    0.8724   -0.8556 C   0  0  0  0  0  0  0  0  0  0  0  0
    3.4349    1.3597   -0.1082 S   0  0  0  0  0  0  0  0  0  0  0  0
    0.8883    2.0944   -1.3328 S   0  0  0  0  0  0  0  0  0  0  0  0
    1.8580   -2.5900    0.6368 H   0  0  0  0  0  0  0  0  0  0  0  0
    1.6167   -1.1164    1.5970 H   0  0  0  0  0  0  0  0  0  0  0  0
    0.3002   -2.2839    1.4179 H   0  0  0  0  0  0  0  0  0  0  0  0
   -0.1201   -0.3456   -0.0205 H   0  0  0  0  0  0  0  0  0  0  0  0
    0.1073   -1.7802   -0.9895 H   0  0  0  0  0  0  0  0  0  0  0  0
    1.9299   -2.0430   -2.3958 H   0  0  0  0  0  0  0  0  0  0  0  0
    3.3476   -1.6497   -1.4346 H   0  0  0  0  0  0  0  0  0  0  0  0
    3.5300   -1.1688   -3.9234 H   0  0  0  0  0  0  0  0  0  0  0  0
    3.8778    0.2357   -2.9090 H   0  0  0  0  0  0  0  0  0  0  0  0
    2.3022    0.0983   -3.7225 H   0  0  0  0  0  0  0  0  0  0  0  0
    3.9274    0.0930   -0.0064 H   0  0  0  0  0  0  0  0  0  0  0  0
  1  2  1  0  0  0  0 
  2  3  1  0  0  0  0 
  3  4  1  0  0  0  0 
  4  5  1  0  0  0  0 
  3  6  1  0  0  0  0 
  6  7  1  0  0  0  0 
  6  8  2  0  0  0  0 
  1  9  1  0  0  0  0 
  1 10  1  0  0  0  0 
  1 11  1  0  0  0  0 
  2 12  1  0  0  0  0 
  2 13  1  0  0  0  0 
  4 14  1  0  0  0  0 
  4 15  1  0  0  0  0 
  5 16  1  0  0  0  0 
  5 17  1  0  0  0  0 
  5 18  1  0  0  0  0 
  7 19  1  0  0  0  0 
M  END
> <cdk:Title>
ditiocarb

> <Conformer>
1

> <SuperDrugID>
SD000828

$$$$
