tromantadine
  CDK     0628171801

 48 50  0  0  0  0  0  0  0  0999 V2000
   -3.7913    4.1918   -1.4278 C   0  0  2  0  0  0  0  0  0  0  0  0
   -4.7132    5.3459   -1.9380 C   0  0  1  0  0  0  0  0  0  0  0  0
   -4.6772    5.3863   -3.4987 C   0  0  1  0  0  0  0  0  0  0  0  0
   -5.1749    4.0189   -4.0609 C   0  0  1  0  0  0  0  0  0  0  0  0
   -4.2549    2.8615   -3.5520 C   0  0  2  0  0  0  0  0  0  0  0  0
   -4.2698    2.7954   -1.9852 C   0  0  2  0  0  0  0  0  0  0  0  0
   -5.7477    2.5621   -1.5147 C   0  0  1  0  0  0  0  0  0  0  0  0
   -6.6388    3.7757   -3.5711 C   0  0  1  0  0  0  0  0  0  0  0  0
   -6.6711    3.7214   -2.0093 C   0  0  2  0  0  0  0  0  0  0  0  0
   -6.1687    5.0839   -1.4357 C   0  0  1  0  0  0  0  0  0  0  0  0
   -3.5206    1.6213   -1.5955 N   0  0  0  0  0  0  0  0  0  0  0  0
   -2.5011    1.4849   -0.6945 C   0  0  0  0  0  0  0  0  0  0  0  0
   -1.9592    0.1462   -0.3881 C   0  0  2  0  0  0  0  0  0  0  0  0
   -2.0158    2.4493   -0.0602 O   0  0  0  0  0  0  0  0  0  0  0  0
   -0.5190    0.1517   -0.4843 O   0  0  0  0  0  0  0  0  0  0  0  0
    0.0882   -1.1211   -0.1821 C   0  0  2  0  0  0  0  0  0  0  0  0
    1.6308   -1.0092   -0.2276 C   0  0  2  0  0  0  0  0  0  0  0  0
    2.2322    0.0435    0.6578 N   0  0  2  0  0  0  0  0  0  0  0  0
    3.7022    0.1831    0.4368 C   0  0  0  0  0  0  0  0  0  0  0  0
    1.8916   -0.1019    2.1045 C   0  0  0  0  0  0  0  0  0  0  0  0
   -3.8120    4.1936   -0.3331 H   0  0  0  0  0  0  0  0  0  0  0  0
   -2.7635    4.3903   -1.7441 H   0  0  0  0  0  0  0  0  0  0  0  0
   -4.3624    6.3052   -1.5434 H   0  0  0  0  0  0  0  0  0  0  0  0
   -5.3153    6.1944   -3.8673 H   0  0  0  0  0  0  0  0  0  0  0  0
   -3.6614    5.5917   -3.8472 H   0  0  0  0  0  0  0  0  0  0  0  0
   -5.1539    4.0452   -5.1550 H   0  0  0  0  0  0  0  0  0  0  0  0
   -3.2318    3.0125   -3.9103 H   0  0  0  0  0  0  0  0  0  0  0  0
   -4.6053    1.9141   -3.9761 H   0  0  0  0  0  0  0  0  0  0  0  0
   -6.1275    1.6099   -1.9010 H   0  0  0  0  0  0  0  0  0  0  0  0
   -5.7838    2.4977   -0.4227 H   0  0  0  0  0  0  0  0  0  0  0  0
   -7.2890    4.5802   -3.9256 H   0  0  0  0  0  0  0  0  0  0  0  0
   -7.0235    2.8407   -3.9864 H   0  0  0  0  0  0  0  0  0  0  0  0
   -7.6941    3.5378   -1.6664 H   0  0  0  0  0  0  0  0  0  0  0  0
   -6.1921    5.0645   -0.3413 H   0  0  0  0  0  0  0  0  0  0  0  0
   -6.8317    5.8918   -1.7573 H   0  0  0  0  0  0  0  0  0  0  0  0
   -3.8093    0.7974   -2.0205 H   0  0  0  0  0  0  0  0  0  0  0  0
   -2.3793   -0.6015   -1.0689 H   0  0  0  0  0  0  0  0  0  0  0  0
   -2.2637   -0.1007    0.6336 H   0  0  0  0  0  0  0  0  0  0  0  0
   -0.2271   -1.8609   -0.9235 H   0  0  0  0  0  0  0  0  0  0  0  0
   -0.2165   -1.4833    0.8038 H   0  0  0  0  0  0  0  0  0  0  0  0
    1.8936   -0.7936   -1.2674 H   0  0  0  0  0  0  0  0  0  0  0  0
    2.0540   -1.9874    0.0223 H   0  0  0  0  0  0  0  0  0  0  0  0
    3.9146    0.3797   -0.6163 H   0  0  0  0  0  0  0  0  0  0  0  0
    4.0962    1.0283    1.0056 H   0  0  0  0  0  0  0  0  0  0  0  0
    4.2346   -0.7228    0.7408 H   0  0  0  0  0  0  0  0  0  0  0  0
    0.8547    0.1977    2.2599 H   0  0  0  0  0  0  0  0  0  0  0  0
    2.5063    0.5445    2.7348 H   0  0  0  0  0  0  0  0  0  0  0  0
    2.0209   -1.1329    2.4429 H   0  0  0  0  0  0  0  0  0  0  0  0
  1  2  1  0  0  0  0 
  1  6  1  0  0  0  0 
  2  3  1  0  0  0  0 
  3  4  1  0  0  0  0 
  4  5  1  0  0  0  0 
  5  6  1  0  0  0  0 
  6  7  1  0  0  0  0 
  4  8  1  0  0  0  0 
  7  9  1  0  0  0  0 
  9  8  1  0  0  0  0 
  2 10  1  0  0  0  0 
 10  9  1  0  0  0  0 
  6 11  1  0  0  0  0 
 11 12  1  0  0  0  0 
 12 13  1  0  0  0  0 
 12 14  2  0  0  0  0 
 13 15  1  0  0  0  0 
 15 16  1  0  0  0  0 
 16 17  1  0  0  0  0 
 17 18  1  0  0  0  0 
 18 19  1  0  0  0  0 
 18 20  1  0  0  0  0 
  1 21  1  0  0  0  0 
  1 22  1  0  0  0  0 
  2 23  1  0  0  0  0 
  3 24  1  0  0  0  0 
  3 25  1  0  0  0  0 
  4 26  1  0  0  0  0 
  5 27  1  0  0  0  0 
  5 28  1  0  0  0  0 
  7 29  1  0  0  0  0 
  7 30  1  0  0  0  0 
  8 31  1  0  0  0  0 
  8 32  1  0  0  0  0 
  9 33  1  0  0  0  0 
 10 34  1  0  0  0  0 
 10 35  1  0  0  0  0 
 11 36  1  0  0  0  0 
 13 37  1  0  0  0  0 
 13 38  1  0  0  0  0 
 16 39  1  0  0  0  0 
 16 40  1  0  0  0  0 
 17 41  1  0  0  0  0 
 17 42  1  0  0  0  0 
 19 43  1  0  0  0  0 
 19 44  1  0  0  0  0 
 19 45  1  0  0  0  0 
 20 46  1  0  0  0  0 
 20 47  1  0  0  0  0 
 20 48  1  0  0  0  0 
M  END
> <cdk:Title>
tromantadine

> <Conformer>
1

> <SuperDrugID>
SD003114

$$$$
