methenamine
  CDK     0628171801

 22 24  0  0  0  0  0  0  0  0999 V2000
   -0.7815    0.5476   -0.5195 C   0  0  1  0  0  0  0  0  0  0  0  0
    0.0573    1.7183   -0.9424 N   0  0  2  0  0  0  0  0  0  0  0  0
    0.1315    2.7019    0.1889 C   0  0  1  0  0  0  0  0  0  0  0  0
   -1.2451    3.1734    0.5563 N   0  0  2  0  0  0  0  0  0  0  0  0
   -2.0763    1.9940    0.9685 C   0  0  2  0  0  0  0  0  0  0  0  0
   -2.1644    1.0039   -0.1558 N   0  0  1  0  0  0  0  0  0  0  0  0
   -2.7898    1.6682   -1.3473 C   0  0  2  0  0  0  0  0  0  0  0  0
   -1.9657    2.8473   -1.7757 N   0  0  2  0  0  0  0  0  0  0  0  0
   -0.5837    2.3798   -2.1273 C   0  0  1  0  0  0  0  0  0  0  0  0
   -1.8754    3.8241   -0.6401 C   0  0  2  0  0  0  0  0  0  0  0  0
   -0.8267   -0.1945   -1.3230 H   0  0  0  0  0  0  0  0  0  0  0  0
   -0.3175    0.0361    0.3303 H   0  0  0  0  0  0  0  0  0  0  0  0
    0.6184    2.2459    1.0566 H   0  0  0  0  0  0  0  0  0  0  0  0
    0.7602    3.5524   -0.0916 H   0  0  0  0  0  0  0  0  0  0  0  0
   -3.0780    2.3214    1.2619 H   0  0  0  0  0  0  0  0  0  0  0  0
   -1.6462    1.5201    1.8556 H   0  0  0  0  0  0  0  0  0  0  0  0
   -3.8097    1.9860   -1.1094 H   0  0  0  0  0  0  0  0  0  0  0  0
   -2.8856    0.9542   -2.1716 H   0  0  0  0  0  0  0  0  0  0  0  0
    0.0271    3.2238   -2.4626 H   0  0  0  0  0  0  0  0  0  0  0  0
   -0.6219    1.6862   -2.9727 H   0  0  0  0  0  0  0  0  0  0  0  0
   -1.2945    4.7007   -0.9430 H   0  0  0  0  0  0  0  0  0  0  0  0
   -2.8707    4.2005   -0.3857 H   0  0  0  0  0  0  0  0  0  0  0  0
  1  2  1  0  0  0  0 
  4 10  1  0  0  0  0 
  3  4  1  0  0  0  0 
  4  5  1  0  0  0  0 
  2  9  1  0  0  0  0 
  1  6  1  0  0  0  0 
  6  7  1  0  0  0  0 
  7  8  1  0  0  0  0 
  8  9  1  0  0  0  0 
  5  6  1  0  0  0  0 
  8 10  1  0  0  0  0 
  2  3  1  0  0  0  0 
  1 11  1  0  0  0  0 
  1 12  1  0  0  0  0 
  3 13  1  0  0  0  0 
  3 14  1  0  0  0  0 
  5 15  1  0  0  0  0 
  5 16  1  0  0  0  0 
  7 17  1  0  0  0  0 
  7 18  1  0  0  0  0 
  9 19  1  0  0  0  0 
  9 20  1  0  0  0  0 
 10 21  1  0  0  0  0 
 10 22  1  0  0  0  0 
M  END
> <cdk:Title>
methenamine

> <Conformer>
1

> <SuperDrugID>
SD002886

$$$$
