prolintane
  CDK     0628171801

 39 40  0  0  0  0  0  0  0  0999 V2000
   -0.2316   -2.3261    0.8724 C   0  0  2  0  0  0  0  0  0  0  0  0
    0.7988   -3.3295    0.2459 C   0  0  1  0  0  0  0  0  0  0  0  0
   -0.5684   -1.1222   -0.0802 C   0  0  1  0  0  0  0  0  0  0  0  0
    0.2700   -1.9315    2.2400 N   0  0  1  0  0  0  0  0  0  0  0  0
    2.1294   -2.7299   -0.0705 C   0  0  0  0  0  0  0  0  0  0  0  0
   -1.1727   -1.5042   -1.4615 C   0  0  1  0  0  0  0  0  0  0  0  0
   -0.0326   -0.5969    2.8061 C   0  0  1  0  0  0  0  0  0  0  0  0
    0.0229   -2.8862    3.3495 C   0  0  1  0  0  0  0  0  0  0  0  0
    3.0419   -2.3955    0.9615 C   0  0  0  0  0  0  0  0  0  0  0  0
    2.5097   -2.4711   -1.4105 C   0  0  0  0  0  0  0  0  0  0  0  0
   -1.5106   -0.2736   -2.3334 C   0  0  0  0  0  0  0  0  0  0  0  0
    0.4660   -0.6587    4.2632 C   0  0  1  0  0  0  0  0  0  0  0  0
    0.5030   -2.1574    4.6186 C   0  0  1  0  0  0  0  0  0  0  0  0
    4.2691   -1.7749    0.6667 C   0  0  0  0  0  0  0  0  0  0  0  0
    3.7365   -1.8491   -1.7064 C   0  0  0  0  0  0  0  0  0  0  0  0
    4.6120   -1.4936   -0.6663 C   0  0  0  0  0  0  0  0  0  0  0  0
   -1.1746   -2.8678    1.0025 H   0  0  0  0  0  0  0  0  0  0  0  0
    0.9521   -4.1742    0.9202 H   0  0  0  0  0  0  0  0  0  0  0  0
    0.3581   -3.7744   -0.6486 H   0  0  0  0  0  0  0  0  0  0  0  0
   -1.3090   -0.4854    0.4099 H   0  0  0  0  0  0  0  0  0  0  0  0
    0.3299   -0.5206   -0.2330 H   0  0  0  0  0  0  0  0  0  0  0  0
   -0.4702   -2.1156   -2.0259 H   0  0  0  0  0  0  0  0  0  0  0  0
   -2.0812   -2.0916   -1.3065 H   0  0  0  0  0  0  0  0  0  0  0  0
    0.4876    0.1893    2.2500 H   0  0  0  0  0  0  0  0  0  0  0  0
   -1.1089   -0.4024    2.7901 H   0  0  0  0  0  0  0  0  0  0  0  0
   -1.0441   -3.1183    3.4310 H   0  0  0  0  0  0  0  0  0  0  0  0
    0.5780   -3.8160    3.2138 H   0  0  0  0  0  0  0  0  0  0  0  0
    2.8195   -2.6015    1.9378 H   0  0  0  0  0  0  0  0  0  0  0  0
    1.8933   -2.7265   -2.1838 H   0  0  0  0  0  0  0  0  0  0  0  0
   -1.8432   -0.6033   -3.3203 H   0  0  0  0  0  0  0  0  0  0  0  0
   -0.6288    0.3588   -2.4606 H   0  0  0  0  0  0  0  0  0  0  0  0
   -2.3075    0.3133   -1.8717 H   0  0  0  0  0  0  0  0  0  0  0  0
    1.4666   -0.2252    4.3376 H   0  0  0  0  0  0  0  0  0  0  0  0
   -0.2036   -0.1044    4.9270 H   0  0  0  0  0  0  0  0  0  0  0  0
   -0.1455   -2.3799    5.4687 H   0  0  0  0  0  0  0  0  0  0  0  0
    1.5246   -2.4588    4.8660 H   0  0  0  0  0  0  0  0  0  0  0  0
    4.9105   -1.5275    1.4245 H   0  0  0  0  0  0  0  0  0  0  0  0
    3.9875   -1.6541   -2.6780 H   0  0  0  0  0  0  0  0  0  0  0  0
    5.4987   -1.0321   -0.8803 H   0  0  0  0  0  0  0  0  0  0  0  0
  1  2  1  0  0  0  0 
  1  3  1  0  0  0  0 
  1  4  1  0  0  0  0 
  2  5  1  0  0  0  0 
  3  6  1  0  0  0  0 
  4  7  1  0  0  0  0 
  4  8  1  0  0  0  0 
  5  9  2  0  0  0  0 
  5 10  1  0  0  0  0 
  6 11  1  0  0  0  0 
  7 12  1  0  0  0  0 
  8 13  1  0  0  0  0 
  9 14  1  0  0  0  0 
 10 15  2  0  0  0  0 
 12 13  1  0  0  0  0 
 14 16  2  0  0  0  0 
 15 16  1  0  0  0  0 
  1 17  1  0  0  0  0 
  2 18  1  0  0  0  0 
  2 19  1  0  0  0  0 
  3 20  1  0  0  0  0 
  3 21  1  0  0  0  0 
  6 22  1  0  0  0  0 
  6 23  1  0  0  0  0 
  7 24  1  0  0  0  0 
  7 25  1  0  0  0  0 
  8 26  1  0  0  0  0 
  8 27  1  0  0  0  0 
  9 28  1  0  0  0  0 
 10 29  1  0  0  0  0 
 11 30  1  0  0  0  0 
 11 31  1  0  0  0  0 
 11 32  1  0  0  0  0 
 12 33  1  0  0  0  0 
 12 34  1  0  0  0  0 
 13 35  1  0  0  0  0 
 13 36  1  0  0  0  0 
 14 37  1  0  0  0  0 
 15 38  1  0  0  0  0 
 16 39  1  0  0  0  0 
M  END
> <cdk:Title>
prolintane

> <Conformer>
1

> <SuperDrugID>
SD002049

$$$$
