metralindole
  CDK     0628171801

 36 39  0  0  0  0  0  0  0  0999 V2000
    0.9542    5.2591    6.9144 C   0  0  0  0  0  0  0  0  0  0  0  0
    1.2641    4.3071    5.8672 N   0  0  0  0  0  0  0  0  0  0  0  0
    0.4469    4.2070    4.7844 C   0  0  0  0  0  0  0  0  0  0  0  0
    2.4574    3.4738    6.0133 C   0  0  2  0  0  0  0  0  0  0  0  0
    0.6861    3.2156    3.8622 C   0  0  0  0  0  0  0  0  0  0  0  0
   -0.5559    4.9975    4.5716 N   0  0  0  0  0  0  0  0  0  0  0  0
    2.6156    2.2762    5.0132 C   0  0  2  0  0  0  0  0  0  0  0  0
   -0.0903    3.0108    2.7315 C   0  0  0  0  0  0  0  0  0  0  0  0
    1.6741    2.3108    3.9383 N   0  0  0  0  0  0  0  0  0  0  0  0
   -1.4625    4.9896    3.4894 C   0  0  2  0  0  0  0  0  0  0  0  0
    0.4614    1.9020    2.1002 C   0  0  0  0  0  0  0  0  0  0  0  0
   -1.2435    3.8729    2.4050 C   0  0  1  0  0  0  0  0  0  0  0  0
    1.5599    1.4930    2.8668 C   0  0  0  0  0  0  0  0  0  0  0  0
    0.0873    1.2175    0.9322 C   0  0  0  0  0  0  0  0  0  0  0  0
    2.3357    0.3870    2.4666 C   0  0  0  0  0  0  0  0  0  0  0  0
    0.8401    0.0873    0.5376 C   0  0  0  0  0  0  0  0  0  0  0  0
    1.9697   -0.3112    1.2957 C   0  0  0  0  0  0  0  0  0  0  0  0
    0.4878   -0.5918   -0.5976 O   0  0  0  0  0  0  0  0  0  0  0  0
   -0.4379   -1.6660   -0.3496 C   0  0  0  0  0  0  0  0  0  0  0  0
   -0.0187    5.0212    7.3541 H   0  0  0  0  0  0  0  0  0  0  0  0
    0.9136    6.2706    6.5041 H   0  0  0  0  0  0  0  0  0  0  0  0
    1.6898    5.2609    7.7222 H   0  0  0  0  0  0  0  0  0  0  0  0
    2.4860    3.0584    7.0250 H   0  0  0  0  0  0  0  0  0  0  0  0
    3.3306    4.1241    5.9084 H   0  0  0  0  0  0  0  0  0  0  0  0
    2.4803    1.3313    5.5478 H   0  0  0  0  0  0  0  0  0  0  0  0
    3.6239    2.2784    4.5920 H   0  0  0  0  0  0  0  0  0  0  0  0
   -1.4031    5.9708    3.0107 H   0  0  0  0  0  0  0  0  0  0  0  0
   -2.4684    4.8918    3.9072 H   0  0  0  0  0  0  0  0  0  0  0  0
   -1.0716    4.3298    1.4261 H   0  0  0  0  0  0  0  0  0  0  0  0
   -2.1377    3.2492    2.3331 H   0  0  0  0  0  0  0  0  0  0  0  0
   -0.7160    1.5262    0.3813 H   0  0  0  0  0  0  0  0  0  0  0  0
    3.1510    0.0948    3.0097 H   0  0  0  0  0  0  0  0  0  0  0  0
    2.5273   -1.1131    0.9985 H   0  0  0  0  0  0  0  0  0  0  0  0
   -0.7473   -2.0769   -1.3100 H   0  0  0  0  0  0  0  0  0  0  0  0
   -1.3352   -1.3237    0.1730 H   0  0  0  0  0  0  0  0  0  0  0  0
    0.0365   -2.4635    0.2258 H   0  0  0  0  0  0  0  0  0  0  0  0
  1  2  1  0  0  0  0 
  2  3  1  0  0  0  0 
  2  4  1  0  0  0  0 
  3  5  1  0  0  0  0 
  3  6  2  0  0  0  0 
  4  7  1  0  0  0  0 
  5  8  2  0  0  0  0 
  5  9  1  0  0  0  0 
  6 10  1  0  0  0  0 
  7  9  1  0  0  0  0 
  8 11  1  0  0  0  0 
  8 12  1  0  0  0  0 
  9 13  1  0  0  0  0 
 10 12  1  0  0  0  0 
 11 13  1  0  0  0  0 
 11 14  2  0  0  0  0 
 13 15  2  0  0  0  0 
 14 16  1  0  0  0  0 
 15 17  1  0  0  0  0 
 16 17  2  0  0  0  0 
 16 18  1  0  0  0  0 
 18 19  1  0  0  0  0 
  1 20  1  0  0  0  0 
  1 21  1  0  0  0  0 
  1 22  1  0  0  0  0 
  4 23  1  0  0  0  0 
  4 24  1  0  0  0  0 
  7 25  1  0  0  0  0 
  7 26  1  0  0  0  0 
 10 27  1  0  0  0  0 
 10 28  1  0  0  0  0 
 12 29  1  0  0  0  0 
 12 30  1  0  0  0  0 
 14 31  1  0  0  0  0 
 15 32  1  0  0  0  0 
 17 33  1  0  0  0  0 
 19 34  1  0  0  0  0 
 19 35  1  0  0  0  0 
 19 36  1  0  0  0  0 
M  END
> <cdk:Title>
metralindole

> <Conformer>
1

> <SuperDrugID>
SD002897

$$$$
