butinoline
  CDK     0628171801

 43 45  0  0  0  0  0  0  0  0999 V2000
   -0.7509   -2.6063    0.5222 C   0  0  1  0  0  0  0  0  0  0  0  0
   -0.3630   -2.0657   -0.6837 C   0  0  0  0  0  0  0  0  0  0  0  0
   -2.1688   -2.4225    0.4010 O   0  0  0  0  0  0  0  0  0  0  0  0
   -0.3918   -4.0726    0.5977 C   0  0  0  0  0  0  0  0  0  0  0  0
   -0.1922   -1.8124    1.6792 C   0  0  0  0  0  0  0  0  0  0  0  0
   -0.0211   -1.6155   -1.7366 C   0  0  0  0  0  0  0  0  0  0  0  0
   -1.3601   -5.0574    0.9375 C   0  0  0  0  0  0  0  0  0  0  0  0
    0.9254   -4.5340    0.3226 C   0  0  0  0  0  0  0  0  0  0  0  0
   -1.0284   -1.3535    2.7333 C   0  0  0  0  0  0  0  0  0  0  0  0
    1.1881   -1.4777    1.7570 C   0  0  0  0  0  0  0  0  0  0  0  0
    0.3846   -1.1375   -2.9504 C   0  0  2  0  0  0  0  0  0  0  0  0
   -1.0395   -6.4282    0.9654 C   0  0  0  0  0  0  0  0  0  0  0  0
    1.2570   -5.9005    0.3791 C   0  0  0  0  0  0  0  0  0  0  0  0
   -0.5223   -0.5630    3.7825 C   0  0  0  0  0  0  0  0  0  0  0  0
    1.7023   -0.7141    2.8208 C   0  0  0  0  0  0  0  0  0  0  0  0
    1.8695   -1.2048   -3.1183 N   0  0  1  0  0  0  0  0  0  0  0  0
    0.2714   -6.8499    0.6900 C   0  0  0  0  0  0  0  0  0  0  0  0
    0.8446   -0.2448    3.8273 C   0  0  0  0  0  0  0  0  0  0  0  0
    2.4974   -2.5539   -3.0613 C   0  0  2  0  0  0  0  0  0  0  0  0
    2.3687   -0.5896   -4.3791 C   0  0  2  0  0  0  0  0  0  0  0  0
    2.6726   -3.0224   -4.5115 C   0  0  2  0  0  0  0  0  0  0  0  0
    2.8531   -1.7226   -5.3100 C   0  0  2  0  0  0  0  0  0  0  0  0
   -2.5573   -2.7866    1.2225 H   0  0  0  0  0  0  0  0  0  0  0  0
   -2.3197   -4.7922    1.1695 H   0  0  0  0  0  0  0  0  0  0  0  0
    1.6613   -3.8782    0.0605 H   0  0  0  0  0  0  0  0  0  0  0  0
   -2.0241   -1.5843    2.7524 H   0  0  0  0  0  0  0  0  0  0  0  0
    1.8367   -1.7718    1.0261 H   0  0  0  0  0  0  0  0  0  0  0  0
    0.0645   -0.0940   -2.9987 H   0  0  0  0  0  0  0  0  0  0  0  0
   -0.1290   -1.6953   -3.7375 H   0  0  0  0  0  0  0  0  0  0  0  0
   -1.7596   -7.1185    1.1917 H   0  0  0  0  0  0  0  0  0  0  0  0
    2.2142   -6.2040    0.1847 H   0  0  0  0  0  0  0  0  0  0  0  0
   -1.1489   -0.2237    4.5156 H   0  0  0  0  0  0  0  0  0  0  0  0
    2.6995   -0.4917    2.8556 H   0  0  0  0  0  0  0  0  0  0  0  0
    0.5074   -7.8443    0.7176 H   0  0  0  0  0  0  0  0  0  0  0  0
    1.2141    0.3243    4.5915 H   0  0  0  0  0  0  0  0  0  0  0  0
    1.9232   -3.2878   -2.4905 H   0  0  0  0  0  0  0  0  0  0  0  0
    3.4765   -2.4523   -2.5854 H   0  0  0  0  0  0  0  0  0  0  0  0
    3.2083    0.0619   -4.1236 H   0  0  0  0  0  0  0  0  0  0  0  0
    1.6184    0.0251   -4.8877 H   0  0  0  0  0  0  0  0  0  0  0  0
    1.7773   -3.5548   -4.8443 H   0  0  0  0  0  0  0  0  0  0  0  0
    3.5377   -3.6837   -4.6126 H   0  0  0  0  0  0  0  0  0  0  0  0
    3.9068   -1.5761   -5.5671 H   0  0  0  0  0  0  0  0  0  0  0  0
    2.2669   -1.7566   -6.2328 H   0  0  0  0  0  0  0  0  0  0  0  0
  1  2  1  0  0  0  0 
  1  3  1  0  0  0  0 
  1  4  1  0  0  0  0 
  1  5  1  0  0  0  0 
  2  6  3  0  0  0  0 
  4  7  2  0  0  0  0 
  4  8  1  0  0  0  0 
  5  9  2  0  0  0  0 
  5 10  1  0  0  0  0 
  6 11  1  0  0  0  0 
  7 12  1  0  0  0  0 
  8 13  2  0  0  0  0 
  9 14  1  0  0  0  0 
 10 15  2  0  0  0  0 
 11 16  1  0  0  0  0 
 12 17  2  0  0  0  0 
 13 17  1  0  0  0  0 
 14 18  2  0  0  0  0 
 15 18  1  0  0  0  0 
 16 19  1  0  0  0  0 
 16 20  1  0  0  0  0 
 19 21  1  0  0  0  0 
 20 22  1  0  0  0  0 
 21 22  1  0  0  0  0 
  3 23  1  0  0  0  0 
  7 24  1  0  0  0  0 
  8 25  1  0  0  0  0 
  9 26  1  0  0  0  0 
 10 27  1  0  0  0  0 
 11 28  1  0  0  0  0 
 11 29  1  0  0  0  0 
 12 30  1  0  0  0  0 
 13 31  1  0  0  0  0 
 14 32  1  0  0  0  0 
 15 33  1  0  0  0  0 
 17 34  1  0  0  0  0 
 18 35  1  0  0  0  0 
 19 36  1  0  0  0  0 
 19 37  1  0  0  0  0 
 20 38  1  0  0  0  0 
 20 39  1  0  0  0  0 
 21 40  1  0  0  0  0 
 21 41  1  0  0  0  0 
 22 42  1  0  0  0  0 
 22 43  1  0  0  0  0 
M  END
> <cdk:Title>
butinoline

> <Conformer>
1

> <SuperDrugID>
SD000390

$$$$
