ofloxacin
  CDK     0628171801

 46 49  0  0  0  0  0  0  0  0999 V2000
    2.0345   -0.4137   -1.4397 C   0  0  0  0  0  0  0  0  0  0  0  0
    1.2388    0.1361   -0.4056 C   0  0  0  0  0  0  0  0  0  0  0  0
    1.8855    0.7081    0.7146 C   0  0  0  0  0  0  0  0  0  0  0  0
    3.2867    0.7601    0.7859 C   0  0  0  0  0  0  0  0  0  0  0  0
    4.0876    0.2090   -0.2415 C   0  0  0  0  0  0  0  0  0  0  0  0
    3.4532   -0.4168   -1.3474 C   0  0  0  0  0  0  0  0  0  0  0  0
    4.1960   -1.0219   -2.3346 N   0  0  0  0  0  0  0  0  0  0  0  0
    5.5027    0.2471   -0.2090 C   0  0  0  0  0  0  0  0  0  0  0  0
    6.2720   -0.3605   -1.2361 C   0  0  0  0  0  0  0  0  0  0  0  0
    5.5629   -1.0085   -2.2740 C   0  0  0  0  0  0  0  0  0  0  0  0
    6.0721    0.8251    0.7491 O   0  0  0  0  0  0  0  0  0  0  0  0
    7.7011   -0.3385   -1.2643 C   0  0  0  0  0  0  0  0  0  0  0  0
    8.4158   -1.0153   -2.2000 O   0  0  0  0  0  0  0  0  0  0  0  0
    8.3851    0.3087   -0.4383 O   0  0  0  0  0  0  0  0  0  0  0  0
    2.1692   -1.0376   -3.7324 C   0  0  2  0  0  0  0  0  0  0  0  0
    1.3928   -0.9699   -2.5262 O   0  0  0  0  0  0  0  0  0  0  0  0
    3.5384   -1.7092   -3.4367 C   0  0  2  0  0  0  0  0  0  0  0  0
    3.3717   -3.2178   -3.1038 C   0  0  0  0  0  0  0  0  0  0  0  0
    1.2064    1.1904    1.7210 F   0  0  0  0  0  0  0  0  0  0  0  0
   -0.1373    0.1039   -0.4900 N   0  0  0  0  0  0  0  0  0  0  0  0
   -1.9384   -1.2933    0.4431 C   0  0  1  0  0  0  0  0  0  0  0  0
   -2.7793   -0.0592    0.5575 N   0  0  2  0  0  0  0  0  0  0  0  0
   -1.9668    1.1844    0.7302 C   0  0  1  0  0  0  0  0  0  0  0  0
   -0.9212    1.3154   -0.4053 C   0  0  1  0  0  0  0  0  0  0  0  0
   -0.8509   -1.1455   -0.6502 C   0  0  1  0  0  0  0  0  0  0  0  0
   -3.8623   -0.1866    1.5739 C   0  0  0  0  0  0  0  0  0  0  0  0
    3.7185    1.1932    1.6068 H   0  0  0  0  0  0  0  0  0  0  0  0
    6.0923   -1.4859   -3.0110 H   0  0  0  0  0  0  0  0  0  0  0  0
    9.3975   -0.9826   -2.1954 H   0  0  0  0  0  0  0  0  0  0  0  0
    2.3203   -0.0276   -4.1250 H   0  0  0  0  0  0  0  0  0  0  0  0
    1.6078   -1.6049   -4.4781 H   0  0  0  0  0  0  0  0  0  0  0  0
    4.1272   -1.6256   -4.3565 H   0  0  0  0  0  0  0  0  0  0  0  0
    2.7694   -3.3536   -2.2018 H   0  0  0  0  0  0  0  0  0  0  0  0
    4.3464   -3.6811   -2.9379 H   0  0  0  0  0  0  0  0  0  0  0  0
    2.8813   -3.7372   -3.9307 H   0  0  0  0  0  0  0  0  0  0  0  0
   -1.4503   -1.5192    1.3973 H   0  0  0  0  0  0  0  0  0  0  0  0
   -2.5705   -2.1453    0.1774 H   0  0  0  0  0  0  0  0  0  0  0  0
   -2.6155    2.0641    0.6969 H   0  0  0  0  0  0  0  0  0  0  0  0
   -1.4599    1.1758    1.7012 H   0  0  0  0  0  0  0  0  0  0  0  0
   -0.3079    2.2052   -0.2259 H   0  0  0  0  0  0  0  0  0  0  0  0
   -1.4364    1.4732   -1.3561 H   0  0  0  0  0  0  0  0  0  0  0  0
   -1.3193   -1.1649   -1.6399 H   0  0  0  0  0  0  0  0  0  0  0  0
   -0.1853   -2.0147   -0.5874 H   0  0  0  0  0  0  0  0  0  0  0  0
   -3.4537   -0.3509    2.5755 H   0  0  0  0  0  0  0  0  0  0  0  0
   -4.5162   -1.0233    1.3184 H   0  0  0  0  0  0  0  0  0  0  0  0
   -4.4774    0.7162    1.5918 H   0  0  0  0  0  0  0  0  0  0  0  0
  1  2  1  0  0  0  0 
  2  3  2  0  0  0  0 
  3  4  1  0  0  0  0 
  4  5  2  0  0  0  0 
  5  6  1  0  0  0  0 
  1  6  2  0  0  0  0 
  8  9  1  0  0  0  0 
  9 10  2  0  0  0  0 
  7 10  1  0  0  0  0 
  5  8  1  0  0  0  0 
  7  6  1  0  0  0  0 
  8 11  2  0  0  0  0 
  9 12  1  0  0  0  0 
 12 13  1  0  0  0  0 
 12 14  2  0  0  0  0 
 15 16  1  0  0  0  0 
 17 15  1  0  0  0  0 
 16  1  1  0  0  0  0 
 17  7  1  0  0  0  0 
 17 18  1  0  0  0  0 
  3 19  1  0  0  0  0 
  2 20  1  0  0  0  0 
 21 22  1  0  0  0  0 
 22 23  1  0  0  0  0 
 23 24  1  0  0  0  0 
 21 25  1  0  0  0  0 
 24 20  1  0  0  0  0 
 20 25  1  0  0  0  0 
 22 26  1  0  0  0  0 
  4 27  1  0  0  0  0 
 10 28  1  0  0  0  0 
 13 29  1  0  0  0  0 
 15 30  1  0  0  0  0 
 15 31  1  0  0  0  0 
 17 32  1  0  0  0  0 
 18 33  1  0  0  0  0 
 18 34  1  0  0  0  0 
 18 35  1  0  0  0  0 
 21 36  1  0  0  0  0 
 21 37  1  0  0  0  0 
 23 38  1  0  0  0  0 
 23 39  1  0  0  0  0 
 24 40  1  0  0  0  0 
 24 41  1  0  0  0  0 
 25 42  1  0  0  0  0 
 25 43  1  0  0  0  0 
 26 44  1  0  0  0  0 
 26 45  1  0  0  0  0 
 26 46  1  0  0  0  0 
M  END
> <cdk:Title>
ofloxacin

> <Conformer>
1

> <SuperDrugID>
SD001772

$$$$
