belinostat
  CDK     0628171802

 36 37  0  0  0  0  0  0  0  0999 V2000
    1.0453    2.2800   -4.1751 C   0  0  0  0  0  0  0  0  0  0  0  0
    2.1071    2.8986   -3.4887 C   0  0  0  0  0  0  0  0  0  0  0  0
    3.1758    2.1251   -3.0017 C   0  0  0  0  0  0  0  0  0  0  0  0
    3.1866    0.7359   -3.2106 C   0  0  0  0  0  0  0  0  0  0  0  0
    2.1245    0.1174   -3.8937 C   0  0  0  0  0  0  0  0  0  0  0  0
    1.0329    0.8819   -4.3744 C   0  0  0  0  0  0  0  0  0  0  0  0
   -0.0463    0.3546   -5.0157 N   0  0  0  0  0  0  0  0  0  0  0  0
   -0.4776   -1.3072   -5.0704 S   0  0  1  0  0  0  0  0  0  0  0  0
   -0.5425   -1.9870   -3.4345 C   0  0  0  0  0  0  0  0  0  0  0  0
   -0.0476   -3.2807   -3.1686 C   0  0  0  0  0  0  0  0  0  0  0  0
   -0.0832   -3.8431   -1.8631 C   0  0  0  0  0  0  0  0  0  0  0  0
   -0.6678   -3.0517   -0.8379 C   0  0  0  0  0  0  0  0  0  0  0  0
   -1.1680   -1.7619   -1.0957 C   0  0  0  0  0  0  0  0  0  0  0  0
   -1.0960   -1.2269   -2.3892 C   0  0  0  0  0  0  0  0  0  0  0  0
   -1.9300   -1.4144   -5.7451 O   0  0  0  0  0  0  0  0  0  0  0  0
    0.5763   -2.0947   -5.9894 O   0  0  0  0  0  0  0  0  0  0  0  0
    0.4322   -5.1135   -1.5363 C   0  0  0  0  0  0  0  0  0  0  0  0
    1.1199   -5.9431   -2.3477 C   0  0  0  0  0  0  0  0  0  0  0  0
    1.6452   -7.1837   -1.9986 C   0  0  0  0  0  0  0  0  0  0  0  0
    2.1404   -7.8894   -2.9111 O   0  0  0  0  0  0  0  0  0  0  0  0
    1.6636   -7.6644   -0.7275 N   0  0  0  0  0  0  0  0  0  0  0  0
    2.1755   -8.8312   -0.4297 O   0  0  0  0  0  0  0  0  0  0  0  0
    0.2752    2.8593   -4.5214 H   0  0  0  0  0  0  0  0  0  0  0  0
    2.0983    3.9097   -3.3388 H   0  0  0  0  0  0  0  0  0  0  0  0
    3.9434    2.5711   -2.4937 H   0  0  0  0  0  0  0  0  0  0  0  0
    3.9642    0.1731   -2.8611 H   0  0  0  0  0  0  0  0  0  0  0  0
    2.1609   -0.8925   -4.0346 H   0  0  0  0  0  0  0  0  0  0  0  0
   -0.6509    0.9732   -5.4544 H   0  0  0  0  0  0  0  0  0  0  0  0
    0.3418   -3.8007   -3.9523 H   0  0  0  0  0  0  0  0  0  0  0  0
   -0.7345   -3.4060    0.1214 H   0  0  0  0  0  0  0  0  0  0  0  0
   -1.5820   -1.2116   -0.3419 H   0  0  0  0  0  0  0  0  0  0  0  0
   -1.4482   -0.2830   -2.5617 H   0  0  0  0  0  0  0  0  0  0  0  0
    0.2757   -5.4317   -0.6089 H   0  0  0  0  0  0  0  0  0  0  0  0
    1.2802   -5.6628   -3.2834 H   0  0  0  0  0  0  0  0  0  0  0  0
    1.2895   -7.1275   -0.0125 H   0  0  0  0  0  0  0  0  0  0  0  0
    3.1242   -8.6583   -0.2498 H   0  0  0  0  0  0  0  0  0  0  0  0
  1  2  2  0  0  0  0 
  1  6  1  0  0  0  0 
  2  3  1  0  0  0  0 
  3  4  2  0  0  0  0 
  4  5  1  0  0  0  0 
  5  6  2  0  0  0  0 
  6  7  1  0  0  0  0 
  7  8  1  0  0  0  0 
  8  9  1  0  0  0  0 
 10 11  1  0  0  0  0 
 11 12  2  0  0  0  0 
 12 13  1  0  0  0  0 
 13 14  2  0  0  0  0 
  9 10  2  0  0  0  0 
  9 14  1  0  0  0  0 
  8 15  2  0  0  0  0 
  8 16  2  0  0  0  0 
 11 17  1  0  0  0  0 
 17 18  2  0  0  0  0 
 18 19  1  0  0  0  0 
 19 20  2  0  0  0  0 
 19 21  1  0  0  0  0 
 21 22  1  0  0  0  0 
  1 23  1  0  0  0  0 
  2 24  1  0  0  0  0 
  3 25  1  0  0  0  0 
  4 26  1  0  0  0  0 
  5 27  1  0  0  0  0 
  7 28  1  0  0  0  0 
 10 29  1  0  0  0  0 
 12 30  1  0  0  0  0 
 13 31  1  0  0  0  0 
 14 32  1  0  0  0  0 
 17 33  1  0  0  0  0 
 18 34  1  0  0  0  0 
 21 35  1  0  0  0  0 
 22 36  1  0  0  0  0 
M  END
> <cdk:Title>
belinostat

> <Conformer>
1

> <SuperDrugID>
SD003818

$$$$
