meticillin
  CDK     0628171801

 46 48  0  0  0  0  0  0  0  0999 V2000
   -3.0052    2.3165   -1.5744 C   0  0  0  0  0  0  0  0  0  0  0  0
   -3.0688    3.4665   -2.2878 O   0  0  0  0  0  0  0  0  0  0  0  0
   -3.4636    1.2716   -2.0910 O   0  0  0  0  0  0  0  0  0  0  0  0
   -2.3907    2.3125   -0.2262 C   0  0  2  0  0  0  0  0  0  0  0  0
   -1.4048    1.2878   -0.1468 N   0  0  0  0  0  0  0  0  0  0  0  0
   -3.3299    2.0411    1.0225 C   0  0  2  0  0  0  0  0  0  0  0  0
   -1.5810   -0.0024    0.3885 C   0  0  2  0  0  0  0  0  0  0  0  0
   -0.0763    1.2548   -0.1652 C   0  0  0  0  0  0  0  0  0  0  0  0
   -2.6578    0.4972    1.7675 S   0  0  0  0  0  0  0  0  0  0  0  0
   -0.0211   -0.0585    0.4802 C   0  0  1  0  0  0  0  0  0  0  0  0
    0.7938    2.0963   -0.4797 O   0  0  0  0  0  0  0  0  0  0  0  0
    0.4857    0.0212    1.8106 N   0  0  0  0  0  0  0  0  0  0  0  0
    1.7998    0.0203    2.1655 C   0  0  0  0  0  0  0  0  0  0  0  0
    2.6899   -0.2416    1.3216 O   0  0  0  0  0  0  0  0  0  0  0  0
    2.1731    0.3740    3.4894 C   0  0  0  0  0  0  0  0  0  0  0  0
    3.2008   -0.3244    4.1793 C   0  0  0  0  0  0  0  0  0  0  0  0
    1.5427    1.4725    4.1369 C   0  0  0  0  0  0  0  0  0  0  0  0
    3.8248   -1.4051    3.6087 O   0  0  0  0  0  0  0  0  0  0  0  0
    3.5972    0.0874    5.4706 C   0  0  0  0  0  0  0  0  0  0  0  0
    0.5948    2.2357    3.5025 O   0  0  0  0  0  0  0  0  0  0  0  0
    1.8954    1.8210    5.4550 C   0  0  0  0  0  0  0  0  0  0  0  0
    3.3096   -2.6640    4.0837 C   0  0  0  0  0  0  0  0  0  0  0  0
    2.9314    1.1428    6.1150 C   0  0  0  0  0  0  0  0  0  0  0  0
    1.1740    3.3515    2.8018 C   0  0  0  0  0  0  0  0  0  0  0  0
   -2.0459   -0.6841   -0.3286 H   0  0  0  0  0  0  0  0  0  0  0  0
   -4.8375    1.7928    0.7020 C   0  0  0  0  0  0  0  0  0  0  0  0
   -3.2119    3.1749    2.0870 C   0  0  0  0  0  0  0  0  0  0  0  0
   -3.4726    3.4780   -3.1815 H   0  0  0  0  0  0  0  0  0  0  0  0
   -1.8771    3.2760   -0.1154 H   0  0  0  0  0  0  0  0  0  0  0  0
    0.4311   -0.8290   -0.1506 H   0  0  0  0  0  0  0  0  0  0  0  0
   -0.1634    0.1592    2.5174 H   0  0  0  0  0  0  0  0  0  0  0  0
    4.3695   -0.3865    5.9440 H   0  0  0  0  0  0  0  0  0  0  0  0
    1.4114    2.5883    5.9278 H   0  0  0  0  0  0  0  0  0  0  0  0
    3.7629   -3.4596    3.4931 H   0  0  0  0  0  0  0  0  0  0  0  0
    3.5780   -2.8248    5.1308 H   0  0  0  0  0  0  0  0  0  0  0  0
    2.2230   -2.7335    3.9728 H   0  0  0  0  0  0  0  0  0  0  0  0
    3.1988    1.4179    7.0621 H   0  0  0  0  0  0  0  0  0  0  0  0
    0.3835    3.8406    2.2361 H   0  0  0  0  0  0  0  0  0  0  0  0
    1.5914    4.0780    3.5030 H   0  0  0  0  0  0  0  0  0  0  0  0
    1.9490    3.0387    2.0952 H   0  0  0  0  0  0  0  0  0  0  0  0
   -5.4053    1.5777    1.6105 H   0  0  0  0  0  0  0  0  0  0  0  0
   -5.2719    2.6770    0.2308 H   0  0  0  0  0  0  0  0  0  0  0  0
   -4.9668    0.9426    0.0306 H   0  0  0  0  0  0  0  0  0  0  0  0
   -3.7833    2.9345    2.9860 H   0  0  0  0  0  0  0  0  0  0  0  0
   -3.5943    4.1134    1.6784 H   0  0  0  0  0  0  0  0  0  0  0  0
   -2.1719    3.3281    2.3820 H   0  0  0  0  0  0  0  0  0  0  0  0
  1  2  1  0  0  0  0 
  1  3  2  0  0  0  0 
  4  1  1  0  0  0  0 
  4  5  1  0  0  0  0 
  4  6  1  0  0  0  0 
  7  5  1  0  0  0  0 
  5  8  1  0  0  0  0 
  6  9  1  0  0  0  0 
  7  9  1  0  0  0  0 
 10  7  1  0  0  0  0 
  7 25  1  0  0  0  0 
 10  8  1  0  0  0  0 
  8 11  2  0  0  0  0 
 10 12  1  0  0  0  0 
 12 13  1  0  0  0  0 
 13 14  2  0  0  0  0 
 13 15  1  0  0  0  0 
 15 16  2  0  0  0  0 
 15 17  1  0  0  0  0 
 16 18  1  0  0  0  0 
 16 19  1  0  0  0  0 
 17 20  1  0  0  0  0 
 17 21  2  0  0  0  0 
 18 22  1  0  0  0  0 
 19 23  2  0  0  0  0 
 20 24  1  0  0  0  0 
 21 23  1  0  0  0  0 
  6 26  1  0  0  0  0 
  6 27  1  0  0  0  0 
  2 28  1  0  0  0  0 
  4 29  1  0  0  0  0 
 10 30  1  0  0  0  0 
 12 31  1  0  0  0  0 
 19 32  1  0  0  0  0 
 21 33  1  0  0  0  0 
 22 34  1  0  0  0  0 
 22 35  1  0  0  0  0 
 22 36  1  0  0  0  0 
 23 37  1  0  0  0  0 
 24 38  1  0  0  0  0 
 24 39  1  0  0  0  0 
 24 40  1  0  0  0  0 
 26 41  1  0  0  0  0 
 26 42  1  0  0  0  0 
 26 43  1  0  0  0  0 
 27 44  1  0  0  0  0 
 27 45  1  0  0  0  0 
 27 46  1  0  0  0  0 
M  END
> <cdk:Title>
meticillin

> <Conformer>
1

> <SuperDrugID>
SD001544

$$$$
