lactose
  CDK     0628171801

 45 46  0  0  0  0  0  0  0  0999 V2000
   -4.2013    0.4954    2.4237 O   0  0  0  0  0  0  0  0  0  0  0  0
   -5.0751    1.4773    1.8772 C   0  0  1  0  0  0  0  0  0  0  0  0
   -4.3135    2.4037    0.8958 C   0  0  1  0  0  0  0  0  0  0  0  0
   -3.7688    1.5921   -0.1726 O   0  0  0  0  0  0  0  0  0  0  0  0
   -2.9490    2.3222   -1.1160 C   0  0  1  0  0  0  0  0  0  0  0  0
   -2.4143    1.4550   -2.1378 O   0  0  0  0  0  0  0  0  0  0  0  0
   -3.8087    3.4031   -1.8194 C   0  0  2  0  0  0  0  0  0  0  0  0
   -3.0172    4.1485   -2.7428 O   0  0  0  0  0  0  0  0  0  0  0  0
   -4.4453    4.3487   -0.7662 C   0  0  1  0  0  0  0  0  0  0  0  0
   -5.3111    5.2863   -1.4052 O   0  0  0  0  0  0  0  0  0  0  0  0
   -5.2094    3.5504    0.3280 C   0  0  1  0  0  0  0  0  0  0  0  0
   -6.4247    3.0399   -0.2194 O   0  0  0  0  0  0  0  0  0  0  0  0
    1.5947   -0.0196    0.3159 O   0  0  0  0  0  0  0  0  0  0  0  0
    0.4311   -0.5060   -0.3439 C   0  0  1  0  0  0  0  0  0  0  0  0
   -0.2616    0.6440   -1.1278 C   0  0  1  0  0  0  0  0  0  0  0  0
    0.5964    1.2621   -2.1156 O   0  0  0  0  0  0  0  0  0  0  0  0
    0.8383    0.4957   -3.3153 C   0  0  2  0  0  0  0  0  0  0  0  0
    1.6326    1.2946   -4.1878 O   0  0  0  0  0  0  0  0  0  0  0  0
   -0.4758    0.0843   -4.0324 C   0  0  2  0  0  0  0  0  0  0  0  0
   -1.0731    1.2256   -4.6504 O   0  0  0  0  0  0  0  0  0  0  0  0
   -1.4840   -0.5651   -3.0416 C   0  0  1  0  0  0  0  0  0  0  0  0
   -1.0779   -1.8985   -2.7348 O   0  0  0  0  0  0  0  0  0  0  0  0
   -1.6542    0.2842   -1.7463 C   0  0  2  0  0  0  0  0  0  0  0  0
   -4.7756   -0.0663    2.9866 H   0  0  0  0  0  0  0  0  0  0  0  0
   -5.8889    0.9615    1.3646 H   0  0  0  0  0  0  0  0  0  0  0  0
   -5.4923    2.0631    2.6997 H   0  0  0  0  0  0  0  0  0  0  0  0
   -3.4870    2.8532    1.4599 H   0  0  0  0  0  0  0  0  0  0  0  0
   -2.1259    2.8214   -0.5984 H   0  0  0  0  0  0  0  0  0  0  0  0
   -4.6022    2.9093   -2.3888 H   0  0  0  0  0  0  0  0  0  0  0  0
   -2.3114    4.5572   -2.1992 H   0  0  0  0  0  0  0  0  0  0  0  0
   -3.6493    4.9259   -0.2848 H   0  0  0  0  0  0  0  0  0  0  0  0
   -5.9920    4.7434   -1.8555 H   0  0  0  0  0  0  0  0  0  0  0  0
   -5.4749    4.2378    1.1374 H   0  0  0  0  0  0  0  0  0  0  0  0
   -6.9302    2.7014    0.5497 H   0  0  0  0  0  0  0  0  0  0  0  0
    1.9618   -0.7931    0.7938 H   0  0  0  0  0  0  0  0  0  0  0  0
    0.7273   -1.3220   -1.0011 H   0  0  0  0  0  0  0  0  0  0  0  0
   -0.2497   -0.9054    0.4121 H   0  0  0  0  0  0  0  0  0  0  0  0
   -0.4222    1.4126   -0.3713 H   0  0  0  0  0  0  0  0  0  0  0  0
    1.4259   -0.3945   -3.0792 H   0  0  0  0  0  0  0  0  0  0  0  0
    2.4369    1.5105   -3.6719 H   0  0  0  0  0  0  0  0  0  0  0  0
   -0.2394   -0.6270   -4.8286 H   0  0  0  0  0  0  0  0  0  0  0  0
   -1.8635    0.8766   -5.1150 H   0  0  0  0  0  0  0  0  0  0  0  0
   -2.4538   -0.6585   -3.5409 H   0  0  0  0  0  0  0  0  0  0  0  0
   -1.8105   -2.2688   -2.1983 H   0  0  0  0  0  0  0  0  0  0  0  0
   -2.2436   -0.2984   -1.0323 H   0  0  0  0  0  0  0  0  0  0  0  0
  1  2  1  0  0  0  0 
  3  2  1  0  0  0  0 
  3  4  1  0  0  0  0 
  4  5  1  0  0  0  0 
  5  6  1  0  0  0  0 
  5  7  1  0  0  0  0 
  7  8  1  0  0  0  0 
  7  9  1  0  0  0  0 
  9 10  1  0  0  0  0 
  9 11  1  0  0  0  0 
  3 11  1  0  0  0  0 
 11 12  1  0  0  0  0 
 13 14  1  0  0  0  0 
 15 14  1  0  0  0  0 
 15 16  1  0  0  0  0 
 16 17  1  0  0  0  0 
 17 18  1  0  0  0  0 
 17 19  1  0  0  0  0 
 19 20  1  0  0  0  0 
 19 21  1  0  0  0  0 
 21 22  1  0  0  0  0 
 21 23  1  0  0  0  0 
 15 23  1  0  0  0  0 
 23  6  1  0  0  0  0 
  1 24  1  0  0  0  0 
  2 25  1  0  0  0  0 
  2 26  1  0  0  0  0 
  3 27  1  0  0  0  0 
  5 28  1  0  0  0  0 
  7 29  1  0  0  0  0 
  8 30  1  0  0  0  0 
  9 31  1  0  0  0  0 
 10 32  1  0  0  0  0 
 11 33  1  0  0  0  0 
 12 34  1  0  0  0  0 
 13 35  1  0  0  0  0 
 14 36  1  0  0  0  0 
 14 37  1  0  0  0  0 
 15 38  1  0  0  0  0 
 17 39  1  0  0  0  0 
 18 40  1  0  0  0  0 
 19 41  1  0  0  0  0 
 20 42  1  0  0  0  0 
 21 43  1  0  0  0  0 
 22 44  1  0  0  0  0 
 23 45  1  0  0  0  0 
M  END
> <cdk:Title>
lactose

> <Conformer>
1

> <SuperDrugID>
SD001358

$$$$
