lubeluzole
  CDK     0628171801

 55 58  0  0  0  0  0  0  0  0999 V2000
    6.9467    2.4372   -3.0660 N   0  0  0  0  0  0  0  0  0  0  0  0
    7.9647    2.1824   -2.0716 C   0  0  0  0  0  0  0  0  0  0  0  0
    7.2893    2.9220   -4.3170 C   0  0  0  0  0  0  0  0  0  0  0  0
    5.5564    2.0736   -2.7969 C   0  0  2  0  0  0  0  0  0  0  0  0
    6.4964    2.8836   -5.4206 N   0  0  0  0  0  0  0  0  0  0  0  0
    8.8122    3.6374   -4.8482 S   0  0  0  0  0  0  0  0  0  0  0  0
    5.0931    2.1265   -1.3002 C   0  0  2  0  0  0  0  0  0  0  0  0
    5.2398    0.6759   -3.4154 C   0  0  1  0  0  0  0  0  0  0  0  0
    7.0254    3.3104   -6.5955 C   0  0  0  0  0  0  0  0  0  0  0  0
    8.3466    3.7744   -6.5302 C   0  0  0  0  0  0  0  0  0  0  0  0
    3.6304    1.6268   -1.1233 C   0  0  1  0  0  0  0  0  0  0  0  0
    3.7598    0.2753   -3.1830 C   0  0  1  0  0  0  0  0  0  0  0  0
    6.3688    3.2781   -7.8403 C   0  0  0  0  0  0  0  0  0  0  0  0
    9.0526    4.2013   -7.6657 C   0  0  0  0  0  0  0  0  0  0  0  0
    3.3927    0.2761   -1.7327 N   0  0  1  0  0  0  0  0  0  0  0  0
    7.0595    3.6933   -8.9996 C   0  0  0  0  0  0  0  0  0  0  0  0
    8.3963    4.1442   -8.9135 C   0  0  0  0  0  0  0  0  0  0  0  0
    3.9369   -0.9055   -0.9817 C   0  0  2  0  0  0  0  0  0  0  0  0
    3.2502   -1.2270    0.3747 C   0  0  1  0  0  0  0  0  0  0  0  0
    1.7111   -1.3866    0.2906 C   0  0  1  0  0  0  0  0  0  0  0  0
    3.7956   -2.4528    0.8657 O   0  0  0  0  0  0  0  0  0  0  0  0
    1.0895   -0.0965    0.1151 O   0  0  0  0  0  0  0  0  0  0  0  0
   -0.2666   -0.1225    0.2941 C   0  0  0  0  0  0  0  0  0  0  0  0
   -0.8014    0.0342    1.5899 C   0  0  0  0  0  0  0  0  0  0  0  0
   -1.1339   -0.2743   -0.8069 C   0  0  0  0  0  0  0  0  0  0  0  0
   -2.1941    0.0127    1.7909 C   0  0  0  0  0  0  0  0  0  0  0  0
   -2.5267   -0.2879   -0.6086 C   0  0  0  0  0  0  0  0  0  0  0  0
   -2.6735    0.1501    2.9969 F   0  0  0  0  0  0  0  0  0  0  0  0
   -3.0583   -0.1554    0.6897 C   0  0  0  0  0  0  0  0  0  0  0  0
   -4.3521   -0.1862    0.8640 F   0  0  0  0  0  0  0  0  0  0  0  0
    7.8958    1.1515   -1.7198 H   0  0  0  0  0  0  0  0  0  0  0  0
    7.8288    2.8513   -1.2213 H   0  0  0  0  0  0  0  0  0  0  0  0
    8.9821    2.3139   -2.4346 H   0  0  0  0  0  0  0  0  0  0  0  0
    4.9187    2.8075   -3.3041 H   0  0  0  0  0  0  0  0  0  0  0  0
    5.1636    3.1563   -0.9378 H   0  0  0  0  0  0  0  0  0  0  0  0
    5.7382    1.5090   -0.6724 H   0  0  0  0  0  0  0  0  0  0  0  0
    5.4247    0.6833   -4.4901 H   0  0  0  0  0  0  0  0  0  0  0  0
    5.8996   -0.0774   -2.9785 H   0  0  0  0  0  0  0  0  0  0  0  0
    3.3764    1.6239   -0.0621 H   0  0  0  0  0  0  0  0  0  0  0  0
    2.9541    2.3485   -1.5950 H   0  0  0  0  0  0  0  0  0  0  0  0
    3.1164    0.9829   -3.7115 H   0  0  0  0  0  0  0  0  0  0  0  0
    3.5729   -0.7031   -3.6340 H   0  0  0  0  0  0  0  0  0  0  0  0
    5.4026    2.9433   -7.9086 H   0  0  0  0  0  0  0  0  0  0  0  0
   10.0143    4.5341   -7.5898 H   0  0  0  0  0  0  0  0  0  0  0  0
    6.5907    3.6594   -9.9074 H   0  0  0  0  0  0  0  0  0  0  0  0
    8.8918    4.4286   -9.7609 H   0  0  0  0  0  0  0  0  0  0  0  0
    5.0069   -0.7740   -0.8025 H   0  0  0  0  0  0  0  0  0  0  0  0
    3.8304   -1.8034   -1.5983 H   0  0  0  0  0  0  0  0  0  0  0  0
    3.4933   -0.4540    1.1091 H   0  0  0  0  0  0  0  0  0  0  0  0
    1.4527   -2.0472   -0.5432 H   0  0  0  0  0  0  0  0  0  0  0  0
    1.3728   -1.8573    1.2220 H   0  0  0  0  0  0  0  0  0  0  0  0
    4.7670   -2.3259    0.8628 H   0  0  0  0  0  0  0  0  0  0  0  0
   -0.1712    0.1604    2.3861 H   0  0  0  0  0  0  0  0  0  0  0  0
   -0.7523   -0.3739   -1.7505 H   0  0  0  0  0  0  0  0  0  0  0  0
   -3.1517   -0.3940   -1.4102 H   0  0  0  0  0  0  0  0  0  0  0  0
  1  2  1  0  0  0  0 
  1  3  1  0  0  0  0 
  1  4  1  0  0  0  0 
  3  5  2  0  0  0  0 
  3  6  1  0  0  0  0 
  4  7  1  0  0  0  0 
  4  8  1  0  0  0  0 
  5  9  1  0  0  0  0 
  6 10  1  0  0  0  0 
  7 11  1  0  0  0  0 
  8 12  1  0  0  0  0 
  9 10  1  0  0  0  0 
  9 13  2  0  0  0  0 
 10 14  2  0  0  0  0 
 11 15  1  0  0  0  0 
 12 15  1  0  0  0  0 
 13 16  1  0  0  0  0 
 14 17  1  0  0  0  0 
 15 18  1  0  0  0  0 
 16 17  2  0  0  0  0 
 19 18  1  0  0  0  0 
 19 20  1  0  0  0  0 
 19 21  1  0  0  0  0 
 20 22  1  0  0  0  0 
 22 23  1  0  0  0  0 
 23 24  2  0  0  0  0 
 23 25  1  0  0  0  0 
 24 26  1  0  0  0  0 
 25 27  2  0  0  0  0 
 26 28  1  0  0  0  0 
 26 29  2  0  0  0  0 
 27 29  1  0  0  0  0 
 29 30  1  0  0  0  0 
  2 31  1  0  0  0  0 
  2 32  1  0  0  0  0 
  2 33  1  0  0  0  0 
  4 34  1  0  0  0  0 
  7 35  1  0  0  0  0 
  7 36  1  0  0  0  0 
  8 37  1  0  0  0  0 
  8 38  1  0  0  0  0 
 11 39  1  0  0  0  0 
 11 40  1  0  0  0  0 
 12 41  1  0  0  0  0 
 12 42  1  0  0  0  0 
 13 43  1  0  0  0  0 
 14 44  1  0  0  0  0 
 16 45  1  0  0  0  0 
 17 46  1  0  0  0  0 
 18 47  1  0  0  0  0 
 18 48  1  0  0  0  0 
 19 49  1  0  0  0  0 
 20 50  1  0  0  0  0 
 20 51  1  0  0  0  0 
 21 52  1  0  0  0  0 
 24 53  1  0  0  0  0 
 25 54  1  0  0  0  0 
 27 55  1  0  0  0  0 
M  END
> <cdk:Title>
lubeluzole

> <Conformer>
1

> <SuperDrugID>
SD002872

$$$$
