formaldehyde
  CDK     0628171801

  4  3  0  0  0  0  0  0  0  0999 V2000
    0.0000    0.0000    0.0000 C   0  0  0  0  0  0  0  0  0  0  0  0
   -0.6250   -1.0825    0.0000 O   0  0  0  0  0  0  0  0  0  0  0  0
   -0.5100    0.8833    0.0000 H   0  0  0  0  0  0  0  0  0  0  0  0
    1.0200    0.0000    0.0000 H   0  0  0  0  0  0  0  0  0  0  0  0
  1  2  2  0  0  0  0 
  1  3  1  0  0  0  0 
  1  4  1  0  0  0  0 
M  END
> <cdk:Title>
formaldehyde

> <Conformer>
1

> <SuperDrugID>
SD002806

$$$$
