artemisinin
  CDK     0628171801

 42 45  0  0  0  0  0  0  0  0999 V2000
   -0.0573   -2.4193   -0.7966 C   0  0  0  0  0  0  0  0  0  0  0  0
   -0.7340   -1.3265    0.0804 C   0  0  2  0  0  0  0  0  0  0  0  0
   -2.2610   -1.1098   -0.2274 C   0  0  1  0  0  0  0  0  0  0  0  0
    0.0157   -0.0460    0.0468 C   0  0  0  0  0  0  0  0  0  0  0  0
   -2.8443    0.1138    0.5738 C   0  0  1  0  0  0  0  0  0  0  0  0
   -2.5930   -0.9570   -1.7506 C   0  0  1  0  0  0  0  0  0  0  0  0
    1.2665   -0.0223    0.1168 O   0  0  0  0  0  0  0  0  0  0  0  0
   -0.6204    1.1552   -0.0157 O   0  0  0  0  0  0  0  0  0  0  0  0
   -2.0156    1.4064    0.2120 C   0  0  2  0  0  0  0  0  0  0  0  0
   -4.4094    0.2115    0.3328 C   0  0  1  0  0  0  0  0  0  0  0  0
   -2.6010   -0.1007    1.9895 O   0  0  0  0  0  0  0  0  0  0  0  0
   -4.1051   -0.7777   -2.0227 C   0  0  2  0  0  0  0  0  0  0  0  0
   -1.9925    2.4119    1.2398 O   0  0  0  0  0  0  0  0  0  0  0  0
   -5.1467    1.1837    1.3229 C   0  0  1  0  0  0  0  0  0  0  0  0
   -4.7835    0.3601   -1.1931 C   0  0  1  0  0  0  0  0  0  0  0  0
   -2.8309    0.9169    2.8454 O   0  0  0  0  0  0  0  0  0  0  0  0
   -2.9704    2.2463    2.2789 C   0  0  2  0  0  0  0  0  0  0  0  0
   -4.4084    2.4890    1.7099 C   0  0  2  0  0  0  0  0  0  0  0  0
   -6.3171    0.3401   -1.4906 C   0  0  0  0  0  0  0  0  0  0  0  0
   -2.6078    3.2788    3.3771 C   0  0  0  0  0  0  0  0  0  0  0  0
   -2.3914    1.8747   -0.6970 H   0  0  0  0  0  0  0  0  0  0  0  0
   -4.8084   -0.7732    0.6078 H   0  0  0  0  0  0  0  0  0  0  0  0
   -2.7738   -2.0148    0.1198 H   0  0  0  0  0  0  0  0  0  0  0  0
    0.9232   -2.6785   -0.3921 H   0  0  0  0  0  0  0  0  0  0  0  0
    0.0803   -2.0679   -1.8218 H   0  0  0  0  0  0  0  0  0  0  0  0
   -0.6641   -3.3263   -0.8124 H   0  0  0  0  0  0  0  0  0  0  0  0
   -0.6598   -1.6883    1.1107 H   0  0  0  0  0  0  0  0  0  0  0  0
   -2.0486   -0.1108   -2.1777 H   0  0  0  0  0  0  0  0  0  0  0  0
   -2.2777   -1.8520   -2.2912 H   0  0  0  0  0  0  0  0  0  0  0  0
   -4.6034   -1.7281   -1.8062 H   0  0  0  0  0  0  0  0  0  0  0  0
   -4.2353   -0.5786   -3.0909 H   0  0  0  0  0  0  0  0  0  0  0  0
   -6.1331    1.4549    0.9533 H   0  0  0  0  0  0  0  0  0  0  0  0
   -5.3342    0.6392    2.2545 H   0  0  0  0  0  0  0  0  0  0  0  0
   -4.4126    1.3193   -1.5617 H   0  0  0  0  0  0  0  0  0  0  0  0
   -5.0280    2.9987    2.4561 H   0  0  0  0  0  0  0  0  0  0  0  0
   -4.3589    3.1448    0.8362 H   0  0  0  0  0  0  0  0  0  0  0  0
   -6.5090    0.2206   -2.5594 H   0  0  0  0  0  0  0  0  0  0  0  0
   -6.8030   -0.4826   -0.9621 H   0  0  0  0  0  0  0  0  0  0  0  0
   -6.7868    1.2772   -1.1919 H   0  0  0  0  0  0  0  0  0  0  0  0
   -1.5880    3.1108    3.7282 H   0  0  0  0  0  0  0  0  0  0  0  0
   -2.6768    4.2941    2.9805 H   0  0  0  0  0  0  0  0  0  0  0  0
   -3.2863    3.1858    4.2278 H   0  0  0  0  0  0  0  0  0  0  0  0
  2  1  1  0  0  0  0 
  3  2  1  0  0  0  0 
  2  4  1  0  0  0  0 
  5  3  1  0  0  0  0 
  3  6  1  0  0  0  0 
  3 23  1  0  0  0  0 
  4  7  2  0  0  0  0 
  4  8  1  0  0  0  0 
  5  9  1  0  0  0  0 
 10  5  1  0  0  0  0 
  5 11  1  0  0  0  0 
  6 12  1  0  0  0  0 
  9  8  1  0  0  0  0 
  9 13  1  0  0  0  0 
  9 21  1  0  0  0  0 
 10 14  1  0  0  0  0 
 15 10  1  0  0  0  0 
 10 22  1  0  0  0  0 
 11 16  1  0  0  0  0 
 15 12  1  0  0  0  0 
 17 13  1  0  0  0  0 
 14 18  1  0  0  0  0 
 15 19  1  0  0  0  0 
 17 16  1  0  0  0  0 
 17 18  1  0  0  0  0 
 17 20  1  0  0  0  0 
  1 24  1  0  0  0  0 
  1 25  1  0  0  0  0 
  1 26  1  0  0  0  0 
  2 27  1  0  0  0  0 
  6 28  1  0  0  0  0 
  6 29  1  0  0  0  0 
 12 30  1  0  0  0  0 
 12 31  1  0  0  0  0 
 14 32  1  0  0  0  0 
 14 33  1  0  0  0  0 
 15 34  1  0  0  0  0 
 18 35  1  0  0  0  0 
 18 36  1  0  0  0  0 
 19 37  1  0  0  0  0 
 19 38  1  0  0  0  0 
 19 39  1  0  0  0  0 
 20 40  1  0  0  0  0 
 20 41  1  0  0  0  0 
 20 42  1  0  0  0  0 
M  END
> <cdk:Title>
artemisinin

> <Conformer>
1

> <SuperDrugID>
SD003287

$$$$
