oxetacaine
  CDK     0628171801

 75 76  0  0  0  0  0  0  0  0999 V2000
   -1.8985    0.4818    0.2170 C   0  0  1  0  0  0  0  0  0  0  0  0
   -1.6335   -0.2899    1.4702 N   0  0  0  0  0  0  0  0  0  0  0  0
   -3.2403    1.3354    0.2796 C   0  0  2  0  0  0  0  0  0  0  0  0
   -0.7861    1.4945   -0.2456 C   0  0  0  0  0  0  0  0  0  0  0  0
   -2.0403   -0.5559   -0.9533 C   0  0  0  0  0  0  0  0  0  0  0  0
   -0.4380   -0.3619    2.2278 C   0  0  0  0  0  0  0  0  0  0  0  0
   -2.6996   -1.1593    1.9852 C   0  0  0  0  0  0  0  0  0  0  0  0
   -3.2461    2.4837    1.2345 C   0  0  0  0  0  0  0  0  0  0  0  0
    0.9748   -0.0421    1.8531 C   0  0  2  0  0  0  0  0  0  0  0  0
   -0.4823   -0.8720    3.3783 O   0  0  0  0  0  0  0  0  0  0  0  0
   -2.9397    3.7925    0.7858 C   0  0  0  0  0  0  0  0  0  0  0  0
   -3.5856    2.3035    2.5960 C   0  0  0  0  0  0  0  0  0  0  0  0
    1.5447    1.2861    2.2996 N   0  0  1  0  0  0  0  0  0  0  0  0
   -2.9401    4.8808    1.6761 C   0  0  0  0  0  0  0  0  0  0  0  0
   -3.5843    3.3904    3.4896 C   0  0  0  0  0  0  0  0  0  0  0  0
    1.4415    1.5183    3.7880 C   0  0  1  0  0  0  0  0  0  0  0  0
    2.9291    1.5315    1.7492 C   0  0  1  0  0  0  0  0  0  0  0  0
   -3.2564    4.6776    3.0303 C   0  0  0  0  0  0  0  0  0  0  0  0
    1.8436    2.8652    4.3200 C   0  0  0  0  0  0  0  0  0  0  0  0
    2.9177    2.0498    0.2922 C   0  0  2  0  0  0  0  0  0  0  0  0
    1.2681    4.1008    3.9639 N   0  0  0  0  0  0  0  0  0  0  0  0
    2.7642    2.7781    5.1644 O   0  0  0  0  0  0  0  0  0  0  0  0
    4.2304    2.4104   -0.1220 O   0  0  0  0  0  0  0  0  0  0  0  0
    1.5711    5.4265    4.5875 C   0  0  1  0  0  0  0  0  0  0  0  0
    0.3228    4.0569    2.8552 C   0  0  0  0  0  0  0  0  0  0  0  0
    0.2613    6.1327    5.1419 C   0  0  2  0  0  0  0  0  0  0  0  0
    2.6213    5.4682    5.7691 C   0  0  0  0  0  0  0  0  0  0  0  0
    2.2133    6.3327    3.4708 C   0  0  0  0  0  0  0  0  0  0  0  0
   -0.3414    5.5450    6.3766 C   0  0  0  0  0  0  0  0  0  0  0  0
   -0.3038    6.2566    7.6025 C   0  0  0  0  0  0  0  0  0  0  0  0
   -0.9815    4.2819    6.3549 C   0  0  0  0  0  0  0  0  0  0  0  0
   -0.8964    5.7303    8.7646 C   0  0  0  0  0  0  0  0  0  0  0  0
   -1.5511    3.7423    7.5241 C   0  0  0  0  0  0  0  0  0  0  0  0
   -1.5153    4.4701    8.7263 C   0  0  0  0  0  0  0  0  0  0  0  0
   -4.1117    0.7186    0.4895 H   0  0  0  0  0  0  0  0  0  0  0  0
   -3.4564    1.7276   -0.7198 H   0  0  0  0  0  0  0  0  0  0  0  0
   -1.1527    2.1747   -1.0175 H   0  0  0  0  0  0  0  0  0  0  0  0
    0.0695    0.9973   -0.6962 H   0  0  0  0  0  0  0  0  0  0  0  0
   -0.4527    2.1007    0.5926 H   0  0  0  0  0  0  0  0  0  0  0  0
   -2.1769   -0.0572   -1.9156 H   0  0  0  0  0  0  0  0  0  0  0  0
   -1.1450   -1.1763   -1.0190 H   0  0  0  0  0  0  0  0  0  0  0  0
   -2.8938   -1.2183   -0.8118 H   0  0  0  0  0  0  0  0  0  0  0  0
   -2.3380   -2.1897    2.0283 H   0  0  0  0  0  0  0  0  0  0  0  0
   -3.6079   -1.1966    1.3895 H   0  0  0  0  0  0  0  0  0  0  0  0
   -2.9965   -0.8595    2.9919 H   0  0  0  0  0  0  0  0  0  0  0  0
    1.0896   -0.1919    0.7874 H   0  0  0  0  0  0  0  0  0  0  0  0
    1.6148   -0.8257    2.2749 H   0  0  0  0  0  0  0  0  0  0  0  0
   -2.7119    3.9633   -0.1971 H   0  0  0  0  0  0  0  0  0  0  0  0
   -3.8542    1.3823    2.9446 H   0  0  0  0  0  0  0  0  0  0  0  0
   -2.7080    5.8170    1.3376 H   0  0  0  0  0  0  0  0  0  0  0  0
   -3.8223    3.2440    4.4731 H   0  0  0  0  0  0  0  0  0  0  0  0
    0.4053    1.3973    4.1060 H   0  0  0  0  0  0  0  0  0  0  0  0
    2.0134    0.7252    4.2880 H   0  0  0  0  0  0  0  0  0  0  0  0
    3.4578    2.2913    2.3294 H   0  0  0  0  0  0  0  0  0  0  0  0
    3.5374    0.6233    1.8012 H   0  0  0  0  0  0  0  0  0  0  0  0
   -3.2497    5.4658    3.6792 H   0  0  0  0  0  0  0  0  0  0  0  0
    2.2833    2.9328    0.2081 H   0  0  0  0  0  0  0  0  0  0  0  0
    2.5510    1.2833   -0.3891 H   0  0  0  0  0  0  0  0  0  0  0  0
    4.1178    2.7470   -1.0365 H   0  0  0  0  0  0  0  0  0  0  0  0
   -0.5051    3.3860    3.0712 H   0  0  0  0  0  0  0  0  0  0  0  0
   -0.1155    5.0099    2.5841 H   0  0  0  0  0  0  0  0  0  0  0  0
    0.8248    3.7187    1.9544 H   0  0  0  0  0  0  0  0  0  0  0  0
   -0.5281    6.1746    4.3929 H   0  0  0  0  0  0  0  0  0  0  0  0
    0.4994    7.1841    5.3316 H   0  0  0  0  0  0  0  0  0  0  0  0
    2.7024    6.5858    6.1361 H   0  0  0  0  0  0  0  0  0  0  0  0
    3.5959    5.0337    5.3856 H   0  0  0  0  0  0  0  0  0  0  0  0
    2.2725    4.7380    6.5619 H   0  0  0  0  0  0  0  0  0  0  0  0
    2.5304    7.3012    3.8652 H   0  0  0  0  0  0  0  0  0  0  0  0
    3.0894    5.8391    3.0438 H   0  0  0  0  0  0  0  0  0  0  0  0
    1.5231    6.5480    2.6559 H   0  0  0  0  0  0  0  0  0  0  0  0
    0.1549    7.1691    7.6579 H   0  0  0  0  0  0  0  0  0  0  0  0
   -1.0465    3.7467    5.4891 H   0  0  0  0  0  0  0  0  0  0  0  0
   -0.8779    6.2646    9.6349 H   0  0  0  0  0  0  0  0  0  0  0  0
   -1.9982    2.8219    7.4971 H   0  0  0  0  0  0  0  0  0  0  0  0
   -1.9420    4.0851    9.5722 H   0  0  0  0  0  0  0  0  0  0  0  0
  1  2  1  0  0  0  0 
  1  3  1  0  0  0  0 
  1  4  1  0  0  0  0 
  1  5  1  0  0  0  0 
  2  6  1  0  0  0  0 
  2  7  1  0  0  0  0 
  3  8  1  0  0  0  0 
  6  9  1  0  0  0  0 
  6 10  2  0  0  0  0 
  8 11  2  0  0  0  0 
  8 12  1  0  0  0  0 
  9 13  1  0  0  0  0 
 11 14  1  0  0  0  0 
 12 15  2  0  0  0  0 
 13 16  1  0  0  0  0 
 13 17  1  0  0  0  0 
 14 18  2  0  0  0  0 
 15 18  1  0  0  0  0 
 16 19  1  0  0  0  0 
 17 20  1  0  0  0  0 
 19 21  1  0  0  0  0 
 19 22  2  0  0  0  0 
 20 23  1  0  0  0  0 
 21 24  1  0  0  0  0 
 21 25  1  0  0  0  0 
 24 26  1  0  0  0  0 
 24 27  1  0  0  0  0 
 24 28  1  0  0  0  0 
 26 29  1  0  0  0  0 
 29 30  2  0  0  0  0 
 29 31  1  0  0  0  0 
 30 32  1  0  0  0  0 
 31 33  2  0  0  0  0 
 32 34  2  0  0  0  0 
 33 34  1  0  0  0  0 
  3 35  1  0  0  0  0 
  3 36  1  0  0  0  0 
  4 37  1  0  0  0  0 
  4 38  1  0  0  0  0 
  4 39  1  0  0  0  0 
  5 40  1  0  0  0  0 
  5 41  1  0  0  0  0 
  5 42  1  0  0  0  0 
  7 43  1  0  0  0  0 
  7 44  1  0  0  0  0 
  7 45  1  0  0  0  0 
  9 46  1  0  0  0  0 
  9 47  1  0  0  0  0 
 11 48  1  0  0  0  0 
 12 49  1  0  0  0  0 
 14 50  1  0  0  0  0 
 15 51  1  0  0  0  0 
 16 52  1  0  0  0  0 
 16 53  1  0  0  0  0 
 17 54  1  0  0  0  0 
 17 55  1  0  0  0  0 
 18 56  1  0  0  0  0 
 20 57  1  0  0  0  0 
 20 58  1  0  0  0  0 
 23 59  1  0  0  0  0 
 25 60  1  0  0  0  0 
 25 61  1  0  0  0  0 
 25 62  1  0  0  0  0 
 26 63  1  0  0  0  0 
 26 64  1  0  0  0  0 
 27 65  1  0  0  0  0 
 27 66  1  0  0  0  0 
 27 67  1  0  0  0  0 
 28 68  1  0  0  0  0 
 28 69  1  0  0  0  0 
 28 70  1  0  0  0  0 
 30 71  1  0  0  0  0 
 31 72  1  0  0  0  0 
 32 73  1  0  0  0  0 
 33 74  1  0  0  0  0 
 34 75  1  0  0  0  0 
M  END
> <cdk:Title>
oxetacaine

> <Conformer>
1

> <SuperDrugID>
SD002933

$$$$
