tofogliflozin
  CDK     0628171802

 54 57  0  0  0  0  0  0  0  0999 V2000
    6.7091    1.2472    2.1929 C   0  0  0  0  0  0  0  0  0  0  0  0
    5.8745    0.8036    1.1513 C   0  0  0  0  0  0  0  0  0  0  0  0
    5.3170   -0.4639    1.1711 C   0  0  0  0  0  0  0  0  0  0  0  0
    5.5517   -1.3376    2.2505 C   0  0  0  0  0  0  0  0  0  0  0  0
    6.3773   -0.9154    3.3216 C   0  0  0  0  0  0  0  0  0  0  0  0
    6.9554    0.3817    3.2788 C   0  0  0  0  0  0  0  0  0  0  0  0
    6.6676   -1.8380    4.4484 C   0  0  2  0  0  0  0  0  0  0  0  0
    7.8800   -2.6367    4.1375 C   0  0  0  0  0  0  0  0  0  0  0  0
   10.3168   -2.8991    4.1722 C   0  0  0  0  0  0  0  0  0  0  0  0
    9.1643   -2.1557    4.4820 C   0  0  0  0  0  0  0  0  0  0  0  0
    7.7798   -3.8723    3.4544 C   0  0  0  0  0  0  0  0  0  0  0  0
    8.9328   -4.6164    3.1452 C   0  0  0  0  0  0  0  0  0  0  0  0
   10.2153   -4.1426    3.5069 C   0  0  0  0  0  0  0  0  0  0  0  0
   11.4379   -4.9176    3.1606 C   0  0  2  0  0  0  0  0  0  0  0  0
   11.9769   -4.5188    1.7706 C   0  0  0  0  0  0  0  0  0  0  0  0
    4.5463   -0.6890   -0.0576 C   0  0  2  0  0  0  0  0  0  0  0  0
    4.6010    0.5823   -0.7542 O   0  0  0  0  0  0  0  0  0  0  0  0
    5.4682    1.4971   -0.0621 C   0  0  2  0  0  0  0  0  0  0  0  0
    3.1799   -1.0017    0.3024 O   0  0  0  0  0  0  0  0  0  0  0  0
    2.2824   -1.2038   -0.8172 C   0  0  1  0  0  0  0  0  0  0  0  0
    2.7978   -2.3467   -1.7457 C   0  0  2  0  0  0  0  0  0  0  0  0
    4.2684   -2.0896   -2.1744 C   0  0  1  0  0  0  0  0  0  0  0  0
    5.1621   -1.8245   -0.9350 C   0  0  1  0  0  0  0  0  0  0  0  0
    6.4877   -1.4914   -1.3511 O   0  0  0  0  0  0  0  0  0  0  0  0
    4.7667   -3.2099   -2.9048 O   0  0  0  0  0  0  0  0  0  0  0  0
    1.9734   -2.4594   -2.9058 O   0  0  0  0  0  0  0  0  0  0  0  0
    0.8587   -1.4856   -0.2665 C   0  0  2  0  0  0  0  0  0  0  0  0
    0.4061   -0.4108    0.5533 O   0  0  0  0  0  0  0  0  0  0  0  0
    7.1322    2.1776    2.1612 H   0  0  0  0  0  0  0  0  0  0  0  0
    5.1343   -2.2723    2.2470 H   0  0  0  0  0  0  0  0  0  0  0  0
    7.5688    0.7001    4.0344 H   0  0  0  0  0  0  0  0  0  0  0  0
    5.8125   -2.4950    4.6300 H   0  0  0  0  0  0  0  0  0  0  0  0
    6.8055   -1.2788    5.3783 H   0  0  0  0  0  0  0  0  0  0  0  0
   11.2348   -2.5217    4.4266 H   0  0  0  0  0  0  0  0  0  0  0  0
    9.2677   -1.2532    4.9543 H   0  0  0  0  0  0  0  0  0  0  0  0
    6.8646   -4.2325    3.1702 H   0  0  0  0  0  0  0  0  0  0  0  0
    8.8325   -5.5044    2.6433 H   0  0  0  0  0  0  0  0  0  0  0  0
   11.2250   -5.9904    3.1632 H   0  0  0  0  0  0  0  0  0  0  0  0
   12.2216   -4.7486    3.9049 H   0  0  0  0  0  0  0  0  0  0  0  0
   12.8721   -5.0961    1.5357 H   0  0  0  0  0  0  0  0  0  0  0  0
   12.2342   -3.4586    1.7545 H   0  0  0  0  0  0  0  0  0  0  0  0
   11.2264   -4.7156    1.0034 H   0  0  0  0  0  0  0  0  0  0  0  0
    6.3322    1.7298   -0.6854 H   0  0  0  0  0  0  0  0  0  0  0  0
    4.9208    2.4097    0.1757 H   0  0  0  0  0  0  0  0  0  0  0  0
    2.2231   -0.2786   -1.3999 H   0  0  0  0  0  0  0  0  0  0  0  0
    2.7504   -3.2975   -1.2072 H   0  0  0  0  0  0  0  0  0  0  0  0
    4.2994   -1.2197   -2.8361 H   0  0  0  0  0  0  0  0  0  0  0  0
    5.2221   -2.7462   -0.3486 H   0  0  0  0  0  0  0  0  0  0  0  0
    6.8200   -2.2832   -1.8263 H   0  0  0  0  0  0  0  0  0  0  0  0
    5.6709   -2.9554   -3.1901 H   0  0  0  0  0  0  0  0  0  0  0  0
    2.0264   -1.5844   -3.3461 H   0  0  0  0  0  0  0  0  0  0  0  0
    0.8531   -2.4021    0.3267 H   0  0  0  0  0  0  0  0  0  0  0  0
    0.1502   -1.6013   -1.0898 H   0  0  0  0  0  0  0  0  0  0  0  0
   -0.5072   -0.6564    0.8180 H   0  0  0  0  0  0  0  0  0  0  0  0
  1  2  2  0  0  0  0 
  1  6  1  0  0  0  0 
  2  3  1  0  0  0  0 
  3  4  2  0  0  0  0 
  4  5  1  0  0  0  0 
  5  6  2  0  0  0  0 
  5  7  1  0  0  0  0 
  7  8  1  0  0  0  0 
  9 10  1  0  0  0  0 
 11 12  2  0  0  0  0 
 12 13  1  0  0  0  0 
  9 13  2  0  0  0  0 
 10  8  2  0  0  0  0 
  8 11  1  0  0  0  0 
 13 14  1  0  0  0  0 
 14 15  1  0  0  0  0 
 16 17  1  0  0  0  0 
 17 18  1  0  0  0  0 
  2 18  1  0  0  0  0 
 16  3  1  0  0  0  0 
 19 20  1  0  0  0  0 
 20 21  1  0  0  0  0 
 21 22  1  0  0  0  0 
 22 23  1  0  0  0  0 
 16 19  1  0  0  0  0 
 16 23  1  0  0  0  0 
 23 24  1  0  0  0  0 
 22 25  1  0  0  0  0 
 21 26  1  0  0  0  0 
 20 27  1  0  0  0  0 
 27 28  1  0  0  0  0 
  1 29  1  0  0  0  0 
  4 30  1  0  0  0  0 
  6 31  1  0  0  0  0 
  7 32  1  0  0  0  0 
  7 33  1  0  0  0  0 
  9 34  1  0  0  0  0 
 10 35  1  0  0  0  0 
 11 36  1  0  0  0  0 
 12 37  1  0  0  0  0 
 14 38  1  0  0  0  0 
 14 39  1  0  0  0  0 
 15 40  1  0  0  0  0 
 15 41  1  0  0  0  0 
 15 42  1  0  0  0  0 
 18 43  1  0  0  0  0 
 18 44  1  0  0  0  0 
 20 45  1  0  0  0  0 
 21 46  1  0  0  0  0 
 22 47  1  0  0  0  0 
 23 48  1  0  0  0  0 
 24 49  1  0  0  0  0 
 25 50  1  0  0  0  0 
 26 51  1  0  0  0  0 
 27 52  1  0  0  0  0 
 27 53  1  0  0  0  0 
 28 54  1  0  0  0  0 
M  END
> <cdk:Title>
tofogliflozin

> <Conformer>
1

> <SuperDrugID>
SD003830

$$$$
