hexylcaine
  CDK     0628171801

 42 43  0  0  0  0  0  0  0  0999 V2000
   -1.3899   -0.9373    0.2242 C   0  0  0  0  0  0  0  0  0  0  0  0
   -2.4848   -1.7573    0.1582 O   0  0  0  0  0  0  0  0  0  0  0  0
   -0.3147   -1.3822    0.6939 O   0  0  0  0  0  0  0  0  0  0  0  0
   -1.4806    0.4131   -0.2119 C   0  0  0  0  0  0  0  0  0  0  0  0
   -2.6280   -3.1145    0.6156 C   0  0  2  0  0  0  0  0  0  0  0  0
   -0.3252    1.2121   -0.4114 C   0  0  0  0  0  0  0  0  0  0  0  0
   -2.7454    1.0112   -0.4428 C   0  0  0  0  0  0  0  0  0  0  0  0
   -1.7871   -4.1279   -0.2113 C   0  0  2  0  0  0  0  0  0  0  0  0
   -4.1397   -3.4429    0.5831 C   0  0  0  0  0  0  0  0  0  0  0  0
   -0.4286    2.5589   -0.8080 C   0  0  0  0  0  0  0  0  0  0  0  0
   -2.8533    2.3584   -0.8331 C   0  0  0  0  0  0  0  0  0  0  0  0
   -1.8495   -5.4806    0.3987 N   0  0  1  0  0  0  0  0  0  0  0  0
   -1.6943    3.1350   -1.0098 C   0  0  0  0  0  0  0  0  0  0  0  0
   -0.8209   -6.4605   -0.0421 C   0  0  2  0  0  0  0  0  0  0  0  0
   -1.0314   -6.9412   -1.5103 C   0  0  1  0  0  0  0  0  0  0  0  0
   -0.8511   -7.6827    0.9255 C   0  0  2  0  0  0  0  0  0  0  0  0
    0.0132   -8.0176   -1.9170 C   0  0  2  0  0  0  0  0  0  0  0  0
    0.1925   -8.7638    0.5333 C   0  0  2  0  0  0  0  0  0  0  0  0
    0.0194   -9.2227   -0.9385 C   0  0  2  0  0  0  0  0  0  0  0  0
   -2.3052   -3.1526    1.6606 H   0  0  0  0  0  0  0  0  0  0  0  0
    0.6096    0.8208   -0.2687 H   0  0  0  0  0  0  0  0  0  0  0  0
   -3.6065    0.4761   -0.3169 H   0  0  0  0  0  0  0  0  0  0  0  0
   -0.7526   -3.7853   -0.2437 H   0  0  0  0  0  0  0  0  0  0  0  0
   -2.1649   -4.1702   -1.2335 H   0  0  0  0  0  0  0  0  0  0  0  0
   -4.3319   -4.4247    1.0204 H   0  0  0  0  0  0  0  0  0  0  0  0
   -4.6949   -2.6997    1.1587 H   0  0  0  0  0  0  0  0  0  0  0  0
   -4.5070   -3.4335   -0.4455 H   0  0  0  0  0  0  0  0  0  0  0  0
    0.4157    3.1205   -0.9469 H   0  0  0  0  0  0  0  0  0  0  0  0
   -3.7760    2.7759   -0.9832 H   0  0  0  0  0  0  0  0  0  0  0  0
   -1.6947   -5.3492    1.4007 H   0  0  0  0  0  0  0  0  0  0  0  0
   -1.7745    4.1161   -1.2838 H   0  0  0  0  0  0  0  0  0  0  0  0
    0.1694   -5.9968    0.0413 H   0  0  0  0  0  0  0  0  0  0  0  0
   -2.0403   -7.3510   -1.6207 H   0  0  0  0  0  0  0  0  0  0  0  0
   -0.9396   -6.0957   -2.1953 H   0  0  0  0  0  0  0  0  0  0  0  0
   -1.8491   -8.1322    0.9207 H   0  0  0  0  0  0  0  0  0  0  0  0
   -0.6433   -7.3479    1.9463 H   0  0  0  0  0  0  0  0  0  0  0  0
    1.0094   -7.5640   -1.9298 H   0  0  0  0  0  0  0  0  0  0  0  0
   -0.2032   -8.3723   -2.9287 H   0  0  0  0  0  0  0  0  0  0  0  0
    0.0892   -9.6284    1.1945 H   0  0  0  0  0  0  0  0  0  0  0  0
    1.2001   -8.3593    0.6690 H   0  0  0  0  0  0  0  0  0  0  0  0
    0.8365   -9.8998   -1.2016 H   0  0  0  0  0  0  0  0  0  0  0  0
   -0.9185   -9.7764   -1.0407 H   0  0  0  0  0  0  0  0  0  0  0  0
  1  2  1  0  0  0  0 
  1  3  2  0  0  0  0 
  1  4  1  0  0  0  0 
  5  2  1  0  0  0  0 
  4  6  2  0  0  0  0 
  4  7  1  0  0  0  0 
  5  8  1  0  0  0  0 
  5  9  1  0  0  0  0 
  6 10  1  0  0  0  0 
  7 11  2  0  0  0  0 
  8 12  1  0  0  0  0 
 10 13  2  0  0  0  0 
 11 13  1  0  0  0  0 
 12 14  1  0  0  0  0 
 14 15  1  0  0  0  0 
 14 16  1  0  0  0  0 
 15 17  1  0  0  0  0 
 16 18  1  0  0  0  0 
 17 19  1  0  0  0  0 
 18 19  1  0  0  0  0 
  5 20  1  0  0  0  0 
  6 21  1  0  0  0  0 
  7 22  1  0  0  0  0 
  8 23  1  0  0  0  0 
  8 24  1  0  0  0  0 
  9 25  1  0  0  0  0 
  9 26  1  0  0  0  0 
  9 27  1  0  0  0  0 
 10 28  1  0  0  0  0 
 11 29  1  0  0  0  0 
 12 30  1  0  0  0  0 
 13 31  1  0  0  0  0 
 14 32  1  0  0  0  0 
 15 33  1  0  0  0  0 
 15 34  1  0  0  0  0 
 16 35  1  0  0  0  0 
 16 36  1  0  0  0  0 
 17 37  1  0  0  0  0 
 17 38  1  0  0  0  0 
 18 39  1  0  0  0  0 
 18 40  1  0  0  0  0 
 19 41  1  0  0  0  0 
 19 42  1  0  0  0  0 
M  END
> <cdk:Title>
hexylcaine

> <Conformer>
1

> <SuperDrugID>
SD001219

$$$$
