pitolisant
  CDK     0628171802

 46 47  0  0  0  0  0  0  0  0999 V2000
    2.3140    3.2088   -0.6360 C   0  0  0  0  0  0  0  0  0  0  0  0
    1.5957    2.1405   -1.2225 C   0  0  0  0  0  0  0  0  0  0  0  0
    2.3208    1.1016   -1.8531 C   0  0  0  0  0  0  0  0  0  0  0  0
    3.7283    1.1198   -1.8781 C   0  0  0  0  0  0  0  0  0  0  0  0
    4.4319    2.1800   -1.2745 C   0  0  0  0  0  0  0  0  0  0  0  0
    3.7214    3.2292   -0.6603 C   0  0  0  0  0  0  0  0  0  0  0  0
    6.1246    2.1896   -1.2792 Cl  0  0  0  0  0  0  0  0  0  0  0  0
    0.1095    2.1014   -1.1562 C   0  0  1  0  0  0  0  0  0  0  0  0
   -0.3949    1.3910    0.1303 C   0  0  2  0  0  0  0  0  0  0  0  0
   -1.9361    1.4082    0.2695 C   0  0  1  0  0  0  0  0  0  0  0  0
   -2.5139    0.7161   -0.8515 O   0  0  0  0  0  0  0  0  0  0  0  0
   -3.9515    0.7321   -0.9162 C   0  0  2  0  0  0  0  0  0  0  0  0
   -4.4035   -0.0731   -2.1606 C   0  0  1  0  0  0  0  0  0  0  0  0
   -3.8785    0.5226   -3.5002 C   0  0  1  0  0  0  0  0  0  0  0  0
   -4.3131   -0.1850   -4.7540 N   0  0  2  0  0  0  0  0  0  0  0  0
   -3.8515   -1.6105   -4.8484 C   0  0  2  0  0  0  0  0  0  0  0  0
   -4.3617   -2.3086   -6.1345 C   0  0  1  0  0  0  0  0  0  0  0  0
   -3.9595   -1.5138   -7.3996 C   0  0  1  0  0  0  0  0  0  0  0  0
   -4.4287   -0.0434   -7.2894 C   0  0  2  0  0  0  0  0  0  0  0  0
   -3.9272    0.6046   -5.9746 C   0  0  2  0  0  0  0  0  0  0  0  0
    1.8150    3.9774   -0.1801 H   0  0  0  0  0  0  0  0  0  0  0  0
    1.8268    0.3202   -2.2921 H   0  0  0  0  0  0  0  0  0  0  0  0
    4.2354    0.3556   -2.3324 H   0  0  0  0  0  0  0  0  0  0  0  0
    4.2227    4.0076   -0.2246 H   0  0  0  0  0  0  0  0  0  0  0  0
   -0.2881    3.1191   -1.1877 H   0  0  0  0  0  0  0  0  0  0  0  0
   -0.2856    1.5847   -2.0351 H   0  0  0  0  0  0  0  0  0  0  0  0
    0.0344    1.8815    1.0078 H   0  0  0  0  0  0  0  0  0  0  0  0
   -0.0546    0.3518    0.1259 H   0  0  0  0  0  0  0  0  0  0  0  0
   -2.2170    0.9047    1.1996 H   0  0  0  0  0  0  0  0  0  0  0  0
   -2.2801    2.4465    0.3168 H   0  0  0  0  0  0  0  0  0  0  0  0
   -4.3266    1.7573   -0.9914 H   0  0  0  0  0  0  0  0  0  0  0  0
   -4.3722    0.2653   -0.0199 H   0  0  0  0  0  0  0  0  0  0  0  0
   -4.0388   -1.0953   -2.0349 H   0  0  0  0  0  0  0  0  0  0  0  0
   -5.4967   -0.1020   -2.1878 H   0  0  0  0  0  0  0  0  0  0  0  0
   -4.2416    1.5545   -3.5405 H   0  0  0  0  0  0  0  0  0  0  0  0
   -2.7855    0.5616   -3.4675 H   0  0  0  0  0  0  0  0  0  0  0  0
   -4.2349   -2.1905   -4.0090 H   0  0  0  0  0  0  0  0  0  0  0  0
   -2.7588   -1.6578   -4.8204 H   0  0  0  0  0  0  0  0  0  0  0  0
   -3.9509   -3.3206   -6.1939 H   0  0  0  0  0  0  0  0  0  0  0  0
   -5.4519   -2.3891   -6.0898 H   0  0  0  0  0  0  0  0  0  0  0  0
   -2.8715   -1.5463   -7.5208 H   0  0  0  0  0  0  0  0  0  0  0  0
   -4.4109   -1.9768   -8.2818 H   0  0  0  0  0  0  0  0  0  0  0  0
   -5.5213   -0.0070   -7.3166 H   0  0  0  0  0  0  0  0  0  0  0  0
   -4.0493    0.5215   -8.1453 H   0  0  0  0  0  0  0  0  0  0  0  0
   -2.8381    0.7144   -6.0301 H   0  0  0  0  0  0  0  0  0  0  0  0
   -4.3588    1.6083   -5.9235 H   0  0  0  0  0  0  0  0  0  0  0  0
  1  2  2  0  0  0  0 
  1  6  1  0  0  0  0 
  2  3  1  0  0  0  0 
  3  4  2  0  0  0  0 
  4  5  1  0  0  0  0 
  5  6  2  0  0  0  0 
  5  7  1  0  0  0  0 
  2  8  1  0  0  0  0 
  8  9  1  0  0  0  0 
  9 10  1  0  0  0  0 
 10 11  1  0  0  0  0 
 11 12  1  0  0  0  0 
 12 13  1  0  0  0  0 
 13 14  1  0  0  0  0 
 14 15  1  0  0  0  0 
 16 17  1  0  0  0  0 
 17 18  1  0  0  0  0 
 18 19  1  0  0  0  0 
 19 20  1  0  0  0  0 
 15 16  1  0  0  0  0 
 15 20  1  0  0  0  0 
  1 21  1  0  0  0  0 
  3 22  1  0  0  0  0 
  4 23  1  0  0  0  0 
  6 24  1  0  0  0  0 
  8 25  1  0  0  0  0 
  8 26  1  0  0  0  0 
  9 27  1  0  0  0  0 
  9 28  1  0  0  0  0 
 10 29  1  0  0  0  0 
 10 30  1  0  0  0  0 
 12 31  1  0  0  0  0 
 12 32  1  0  0  0  0 
 13 33  1  0  0  0  0 
 13 34  1  0  0  0  0 
 14 35  1  0  0  0  0 
 14 36  1  0  0  0  0 
 16 37  1  0  0  0  0 
 16 38  1  0  0  0  0 
 17 39  1  0  0  0  0 
 17 40  1  0  0  0  0 
 18 41  1  0  0  0  0 
 18 42  1  0  0  0  0 
 19 43  1  0  0  0  0 
 19 44  1  0  0  0  0 
 20 45  1  0  0  0  0 
 20 46  1  0  0  0  0 
M  END
> <cdk:Title>
pitolisant

> <Conformer>
1

> <SuperDrugID>
SD003886

$$$$
