sulisatin
  CDK     0628171801

 50 53  0  0  0  0  0  0  0  0999 V2000
    6.1370    5.5214   -0.9195 O   0  0  0  0  0  0  0  0  0  0  0  0
    4.9644    5.4780   -0.4799 C   0  0  0  0  0  0  0  0  0  0  0  0
    3.7295    5.7797   -1.2676 C   0  0  1  0  0  0  0  0  0  0  0  0
    4.7113    5.1444    0.7952 N   0  0  0  0  0  0  0  0  0  0  0  0
    2.7541    5.3665   -0.2157 C   0  0  0  0  0  0  0  0  0  0  0  0
    3.7857    7.2682   -1.5726 C   0  0  0  0  0  0  0  0  0  0  0  0
    3.5434    4.8896   -2.4831 C   0  0  0  0  0  0  0  0  0  0  0  0
    3.3966    5.0556    0.9867 C   0  0  0  0  0  0  0  0  0  0  0  0
    1.3537    5.2283   -0.3088 C   0  0  0  0  0  0  0  0  0  0  0  0
    4.7851    7.7558   -2.4595 C   0  0  0  0  0  0  0  0  0  0  0  0
    2.8905    8.2278   -1.0282 C   0  0  0  0  0  0  0  0  0  0  0  0
    3.7941    3.4927   -2.4185 C   0  0  0  0  0  0  0  0  0  0  0  0
    3.0761    5.3937   -3.7281 C   0  0  0  0  0  0  0  0  0  0  0  0
    2.6913    4.6803    2.1517 C   0  0  0  0  0  0  0  0  0  0  0  0
    0.6260    4.7975    0.8197 C   0  0  0  0  0  0  0  0  0  0  0  0
    4.8713    9.1129   -2.8087 C   0  0  0  0  0  0  0  0  0  0  0  0
    2.9711    9.5909   -1.3743 C   0  0  0  0  0  0  0  0  0  0  0  0
    3.6362    2.6613   -3.5430 C   0  0  0  0  0  0  0  0  0  0  0  0
    2.9440    4.5734   -4.8612 C   0  0  0  0  0  0  0  0  0  0  0  0
    3.4009    4.4497    3.4321 C   0  0  0  0  0  0  0  0  0  0  0  0
    1.2867    4.5383    2.0395 C   0  0  0  0  0  0  0  0  0  0  0  0
    3.9490   10.0359   -2.2847 C   0  0  0  0  0  0  0  0  0  0  0  0
    3.2218    3.1963   -4.7760 C   0  0  0  0  0  0  0  0  0  0  0  0
    4.0249   11.3457   -2.6508 O   0  0  0  0  0  0  0  0  0  0  0  0
    3.1303    2.3761   -5.8633 O   0  0  0  0  0  0  0  0  0  0  0  0
    2.9235   11.7040   -3.9223 S   0  0  1  0  0  0  0  0  0  0  0  0
    1.5055    2.1421   -6.3727 S   0  0  1  0  0  0  0  0  0  0  0  0
    3.6026   12.7658   -4.9092 O   0  0  0  0  0  0  0  0  0  0  0  0
    2.4889   10.4014   -4.7471 O   0  0  0  0  0  0  0  0  0  0  0  0
    1.5341   12.4163   -3.2313 O   0  0  0  0  0  0  0  0  0  0  0  0
    1.1934    3.1461   -7.5799 O   0  0  0  0  0  0  0  0  0  0  0  0
    1.3237    0.6290   -6.8625 O   0  0  0  0  0  0  0  0  0  0  0  0
    0.4083    2.4426   -5.0977 O   0  0  0  0  0  0  0  0  0  0  0  0
    5.3850    4.9627    1.4679 H   0  0  0  0  0  0  0  0  0  0  0  0
    0.8724    5.4287   -1.1870 H   0  0  0  0  0  0  0  0  0  0  0  0
    5.4632    7.1143   -2.8782 H   0  0  0  0  0  0  0  0  0  0  0  0
    2.1650    7.9518   -0.3671 H   0  0  0  0  0  0  0  0  0  0  0  0
    4.0943    3.0589   -1.5431 H   0  0  0  0  0  0  0  0  0  0  0  0
    2.8208    6.3751   -3.8375 H   0  0  0  0  0  0  0  0  0  0  0  0
   -0.3883    4.6771    0.7586 H   0  0  0  0  0  0  0  0  0  0  0  0
    5.6023    9.4205   -3.4542 H   0  0  0  0  0  0  0  0  0  0  0  0
    2.3141   10.2596   -0.9644 H   0  0  0  0  0  0  0  0  0  0  0  0
    3.8287    1.6606   -3.4602 H   0  0  0  0  0  0  0  0  0  0  0  0
    2.6400    4.9825   -5.7487 H   0  0  0  0  0  0  0  0  0  0  0  0
    2.7096    4.2298    4.2489 H   0  0  0  0  0  0  0  0  0  0  0  0
    4.0920    3.6113    3.3302 H   0  0  0  0  0  0  0  0  0  0  0  0
    3.9668    5.3434    3.7049 H   0  0  0  0  0  0  0  0  0  0  0  0
    0.7311    4.2422    2.8458 H   0  0  0  0  0  0  0  0  0  0  0  0
    1.8025   12.6497   -2.3176 H   0  0  0  0  0  0  0  0  0  0  0  0
    0.1010    3.3613   -5.2485 H   0  0  0  0  0  0  0  0  0  0  0  0
  1  2  2  0  0  0  0 
  2  3  1  0  0  0  0 
  2  4  1  0  0  0  0 
  3  5  1  0  0  0  0 
  3  6  1  0  0  0  0 
  3  7  1  0  0  0  0 
  4  8  1  0  0  0  0 
  5  8  2  0  0  0  0 
  5  9  1  0  0  0  0 
  6 10  2  0  0  0  0 
  6 11  1  0  0  0  0 
  7 12  2  0  0  0  0 
  7 13  1  0  0  0  0 
  8 14  1  0  0  0  0 
  9 15  2  0  0  0  0 
 10 16  1  0  0  0  0 
 11 17  2  0  0  0  0 
 12 18  1  0  0  0  0 
 13 19  2  0  0  0  0 
 14 20  1  0  0  0  0 
 14 21  2  0  0  0  0 
 15 21  1  0  0  0  0 
 16 22  2  0  0  0  0 
 17 22  1  0  0  0  0 
 18 23  2  0  0  0  0 
 19 23  1  0  0  0  0 
 22 24  1  0  0  0  0 
 23 25  1  0  0  0  0 
 24 26  1  0  0  0  0 
 25 27  1  0  0  0  0 
 26 28  2  0  0  0  0 
 26 29  2  0  0  0  0 
 26 30  1  0  0  0  0 
 27 31  2  0  0  0  0 
 27 32  2  0  0  0  0 
 27 33  1  0  0  0  0 
  4 34  1  0  0  0  0 
  9 35  1  0  0  0  0 
 10 36  1  0  0  0  0 
 11 37  1  0  0  0  0 
 12 38  1  0  0  0  0 
 13 39  1  0  0  0  0 
 15 40  1  0  0  0  0 
 16 41  1  0  0  0  0 
 17 42  1  0  0  0  0 
 18 43  1  0  0  0  0 
 19 44  1  0  0  0  0 
 20 45  1  0  0  0  0 
 20 46  1  0  0  0  0 
 20 47  1  0  0  0  0 
 21 48  1  0  0  0  0 
 30 49  1  0  0  0  0 
 33 50  1  0  0  0  0 
M  END
> <cdk:Title>
sulisatin

> <Conformer>
1

> <SuperDrugID>
SD002280

$$$$
