ximelagatran
  CDK     0628171801

 69 71  0  0  0  0  0  0  0  0999 V2000
   -3.7261    5.2617    2.0863 C   0  0  0  0  0  0  0  0  0  0  0  0
   -2.6804    5.0290    1.0456 C   0  0  2  0  0  0  0  0  0  0  0  0
   -4.8882    5.5354    1.6988 O   0  0  0  0  0  0  0  0  0  0  0  0
   -3.5085    5.2092    3.4397 N   0  0  0  0  0  0  0  0  0  0  0  0
   -2.2297    3.6250    1.2524 N   0  0  1  0  0  0  0  0  0  0  0  0
   -1.4724    6.0495    1.0412 C   0  0  2  0  0  0  0  0  0  0  0  0
   -4.4160    5.4088    4.5212 C   0  0  2  0  0  0  0  0  0  0  0  0
   -2.3388    4.9396    4.1989 C   0  0  1  0  0  0  0  0  0  0  0  0
   -2.1672    2.7275    0.0786 C   0  0  2  0  0  0  0  0  0  0  0  0
   -1.8562    7.5019    1.4777 C   0  0  1  0  0  0  0  0  0  0  0  0
   -0.7766    6.1127   -0.3623 C   0  0  2  0  0  0  0  0  0  0  0  0
   -5.1085    6.7188    4.5553 C   0  0  0  0  0  0  0  0  0  0  0  0
   -3.1906    5.2323    5.4509 C   0  0  2  0  0  0  0  0  0  0  0  0
   -1.8218    1.3689    0.5227 C   0  0  0  0  0  0  0  0  0  0  0  0
   -0.6508    8.4773    1.4542 C   0  0  2  0  0  0  0  0  0  0  0  0
    0.3793    7.1464   -0.4670 C   0  0  2  0  0  0  0  0  0  0  0  0
   -4.4027    7.8710    4.4079 N   0  0  0  0  0  0  0  0  0  0  0  0
   -6.3516    6.7303    4.7136 O   0  0  0  0  0  0  0  0  0  0  0  0
   -0.6134    0.8299    0.1863 O   0  0  0  0  0  0  0  0  0  0  0  0
   -2.6427    0.7312    1.2239 O   0  0  0  0  0  0  0  0  0  0  0  0
   -0.0238    8.5522    0.0432 C   0  0  2  0  0  0  0  0  0  0  0  0
   -4.9418    9.1925    4.4117 C   0  0  2  0  0  0  0  0  0  0  0  0
   -0.1878   -0.5075    0.4703 C   0  0  1  0  0  0  0  0  0  0  0  0
   -4.2428   10.0073    3.3870 C   0  0  0  0  0  0  0  0  0  0  0  0
    1.2860   -0.6914    0.0715 C   0  0  0  0  0  0  0  0  0  0  0  0
   -4.4949    9.8161    1.9668 C   0  0  0  0  0  0  0  0  0  0  0  0
   -3.2984   10.9994    3.7487 C   0  0  0  0  0  0  0  0  0  0  0  0
   -3.8260   10.5769    0.8899 C   0  0  0  0  0  0  0  0  0  0  0  0
   -2.6090   11.7836    2.8007 C   0  0  0  0  0  0  0  0  0  0  0  0
   -2.8767   11.5668    1.3779 C   0  0  0  0  0  0  0  0  0  0  0  0
   -2.1750   12.3372    0.4323 C   0  0  0  0  0  0  0  0  0  0  0  0
   -2.6265   12.5013   -0.8146 N   0  0  0  0  0  0  0  0  0  0  0  0
   -1.0692   12.9038    0.7546 N   0  0  0  0  0  0  0  0  0  0  0  0
   -2.0153   13.2204   -1.7205 O   0  0  0  0  0  0  0  0  0  0  0  0
   -3.1872    5.1123    0.0762 H   0  0  0  0  0  0  0  0  0  0  0  0
   -1.3052    3.6450    1.6851 H   0  0  0  0  0  0  0  0  0  0  0  0
   -0.7268    5.6903    1.7583 H   0  0  0  0  0  0  0  0  0  0  0  0
   -5.1114    4.5670    4.6111 H   0  0  0  0  0  0  0  0  0  0  0  0
   -2.0135    3.8991    4.1265 H   0  0  0  0  0  0  0  0  0  0  0  0
   -1.5317    5.6585    4.0490 H   0  0  0  0  0  0  0  0  0  0  0  0
   -1.4153    3.0822   -0.6262 H   0  0  0  0  0  0  0  0  0  0  0  0
   -3.1341    2.6941   -0.4320 H   0  0  0  0  0  0  0  0  0  0  0  0
   -2.6410    7.8799    0.8193 H   0  0  0  0  0  0  0  0  0  0  0  0
   -2.2454    7.5009    2.4957 H   0  0  0  0  0  0  0  0  0  0  0  0
   -1.5196    6.3558   -1.1276 H   0  0  0  0  0  0  0  0  0  0  0  0
   -0.3597    5.1353   -0.6057 H   0  0  0  0  0  0  0  0  0  0  0  0
   -3.2720    4.3806    6.1294 H   0  0  0  0  0  0  0  0  0  0  0  0
   -2.8791    6.1457    5.9658 H   0  0  0  0  0  0  0  0  0  0  0  0
    0.1038    8.1529    2.1770 H   0  0  0  0  0  0  0  0  0  0  0  0
   -0.9784    9.4742    1.7516 H   0  0  0  0  0  0  0  0  0  0  0  0
    0.6872    7.2299   -1.5138 H   0  0  0  0  0  0  0  0  0  0  0  0
    1.2395    6.7877    0.1057 H   0  0  0  0  0  0  0  0  0  0  0  0
   -3.4431    7.7882    4.2976 H   0  0  0  0  0  0  0  0  0  0  0  0
    0.8602    9.1958    0.0741 H   0  0  0  0  0  0  0  0  0  0  0  0
   -0.7406    9.0025   -0.6497 H   0  0  0  0  0  0  0  0  0  0  0  0
   -4.7935    9.6065    5.4124 H   0  0  0  0  0  0  0  0  0  0  0  0
   -6.0160    9.2067    4.2059 H   0  0  0  0  0  0  0  0  0  0  0  0
   -0.2972   -0.7174    1.5365 H   0  0  0  0  0  0  0  0  0  0  0  0
   -0.8083   -1.2057   -0.0964 H   0  0  0  0  0  0  0  0  0  0  0  0
    1.5849   -1.7302    0.2267 H   0  0  0  0  0  0  0  0  0  0  0  0
    1.4246   -0.4351   -0.9804 H   0  0  0  0  0  0  0  0  0  0  0  0
    1.9204   -0.0471    0.6834 H   0  0  0  0  0  0  0  0  0  0  0  0
   -5.2235    9.0500    1.7855 H   0  0  0  0  0  0  0  0  0  0  0  0
   -3.0942   11.1621    4.7377 H   0  0  0  0  0  0  0  0  0  0  0  0
   -4.0171   10.3873   -0.0961 H   0  0  0  0  0  0  0  0  0  0  0  0
   -1.9392   12.4848    3.1273 H   0  0  0  0  0  0  0  0  0  0  0  0
   -3.4638   12.0828   -1.0678 H   0  0  0  0  0  0  0  0  0  0  0  0
   -0.5892   13.4171    0.1379 H   0  0  0  0  0  0  0  0  0  0  0  0
   -2.4157   12.9467   -2.5732 H   0  0  0  0  0  0  0  0  0  0  0  0
  2  1  1  0  0  0  0 
  1  3  2  0  0  0  0 
  1  4  1  0  0  0  0 
  2  5  1  0  0  0  0 
  2  6  1  0  0  0  0 
  7  4  1  0  0  0  0 
  4  8  1  0  0  0  0 
  5  9  1  0  0  0  0 
  6 10  1  0  0  0  0 
  6 11  1  0  0  0  0 
  7 12  1  0  0  0  0 
  7 13  1  0  0  0  0 
  8 13  1  0  0  0  0 
  9 14  1  0  0  0  0 
 10 15  1  0  0  0  0 
 11 16  1  0  0  0  0 
 12 17  1  0  0  0  0 
 12 18  2  0  0  0  0 
 14 19  1  0  0  0  0 
 14 20  2  0  0  0  0 
 15 21  1  0  0  0  0 
 16 21  1  0  0  0  0 
 17 22  1  0  0  0  0 
 19 23  1  0  0  0  0 
 22 24  1  0  0  0  0 
 23 25  1  0  0  0  0 
 24 26  2  0  0  0  0 
 24 27  1  0  0  0  0 
 26 28  1  0  0  0  0 
 27 29  2  0  0  0  0 
 28 30  2  0  0  0  0 
 29 30  1  0  0  0  0 
 30 31  1  0  0  0  0 
 31 32  1  0  0  0  0 
 31 33  2  0  0  0  0 
 32 34  1  0  0  0  0 
  2 35  1  0  0  0  0 
 36  5  1  0  0  0  0 
 37  6  1  0  0  0  0 
  7 38  1  0  0  0  0 
 39  8  1  0  0  0  0 
 40  8  1  0  0  0  0 
 41  9  1  0  0  0  0 
 42  9  1  0  0  0  0 
 43 10  1  0  0  0  0 
 44 10  1  0  0  0  0 
 45 11  1  0  0  0  0 
 46 11  1  0  0  0  0 
 47 13  1  0  0  0  0 
 48 13  1  0  0  0  0 
 49 15  1  0  0  0  0 
 50 15  1  0  0  0  0 
 51 16  1  0  0  0  0 
 52 16  1  0  0  0  0 
 53 17  1  0  0  0  0 
 54 21  1  0  0  0  0 
 55 21  1  0  0  0  0 
 56 22  1  0  0  0  0 
 57 22  1  0  0  0  0 
 58 23  1  0  0  0  0 
 59 23  1  0  0  0  0 
 60 25  1  0  0  0  0 
 61 25  1  0  0  0  0 
 62 25  1  0  0  0  0 
 63 26  1  0  0  0  0 
 64 27  1  0  0  0  0 
 65 28  1  0  0  0  0 
 66 29  1  0  0  0  0 
 67 32  1  0  0  0  0 
 68 33  1  0  0  0  0 
 69 34  1  0  0  0  0 
M  END
> <cdk:Title>
ximelagatran

> <Conformer>
1

> <SuperDrugID>
SD002569

$$$$
