etilamfetamine
  CDK     0628171801

 29 29  0  0  0  0  0  0  0  0999 V2000
    2.9530   -1.6555   -1.5366 C   0  0  0  0  0  0  0  0  0  0  0  0
    1.5889   -2.3670   -1.4387 C   0  0  1  0  0  0  0  0  0  0  0  0
    0.4861   -1.3966   -1.6311 N   0  0  2  0  0  0  0  0  0  0  0  0
   -0.9057   -1.8745   -1.4070 C   0  0  1  0  0  0  0  0  0  0  0  0
   -1.8015   -0.6077   -1.3935 C   0  0  0  0  0  0  0  0  0  0  0  0
   -1.3619   -2.9206   -2.4754 C   0  0  1  0  0  0  0  0  0  0  0  0
   -2.7484   -3.4453   -2.3009 C   0  0  0  0  0  0  0  0  0  0  0  0
   -3.7318   -3.2410   -3.2996 C   0  0  0  0  0  0  0  0  0  0  0  0
   -5.0330   -3.7510   -3.1475 C   0  0  0  0  0  0  0  0  0  0  0  0
   -5.3726   -4.4750   -1.9901 C   0  0  0  0  0  0  0  0  0  0  0  0
   -4.4136   -4.6828   -0.9835 C   0  0  0  0  0  0  0  0  0  0  0  0
   -3.1114   -4.1723   -1.1403 C   0  0  0  0  0  0  0  0  0  0  0  0
    3.7584   -2.3881   -1.4511 H   0  0  0  0  0  0  0  0  0  0  0  0
    3.0599   -0.9225   -0.7342 H   0  0  0  0  0  0  0  0  0  0  0  0
    3.0446   -1.1467   -2.4982 H   0  0  0  0  0  0  0  0  0  0  0  0
    1.5478   -3.1376   -2.2109 H   0  0  0  0  0  0  0  0  0  0  0  0
    1.5076   -2.8427   -0.4580 H   0  0  0  0  0  0  0  0  0  0  0  0
    0.5430   -1.0448   -2.5887 H   0  0  0  0  0  0  0  0  0  0  0  0
   -0.9607   -2.3298   -0.4140 H   0  0  0  0  0  0  0  0  0  0  0  0
   -1.4470    0.0914   -0.6318 H   0  0  0  0  0  0  0  0  0  0  0  0
   -1.7743   -0.1065   -2.3647 H   0  0  0  0  0  0  0  0  0  0  0  0
   -2.8367   -0.8634   -1.1592 H   0  0  0  0  0  0  0  0  0  0  0  0
   -1.2400   -2.4715   -3.4649 H   0  0  0  0  0  0  0  0  0  0  0  0
   -0.6951   -3.7830   -2.4438 H   0  0  0  0  0  0  0  0  0  0  0  0
   -3.5074   -2.7210   -4.1509 H   0  0  0  0  0  0  0  0  0  0  0  0
   -5.7321   -3.5979   -3.8794 H   0  0  0  0  0  0  0  0  0  0  0  0
   -6.3171   -4.8487   -1.8821 H   0  0  0  0  0  0  0  0  0  0  0  0
   -4.6620   -5.2068   -0.1403 H   0  0  0  0  0  0  0  0  0  0  0  0
   -2.4288   -4.3409   -0.3987 H   0  0  0  0  0  0  0  0  0  0  0  0
  1  2  1  0  0  0  0 
  2  3  1  0  0  0  0 
  4  3  1  0  0  0  0 
  4  5  1  0  0  0  0 
  4  6  1  0  0  0  0 
  6  7  1  0  0  0  0 
  7  8  2  0  0  0  0 
  8  9  1  0  0  0  0 
  9 10  2  0  0  0  0 
 10 11  1  0  0  0  0 
 11 12  2  0  0  0  0 
  7 12  1  0  0  0  0 
  1 13  1  0  0  0  0 
  1 14  1  0  0  0  0 
  1 15  1  0  0  0  0 
  2 16  1  0  0  0  0 
  2 17  1  0  0  0  0 
  3 18  1  0  0  0  0 
  4 19  1  0  0  0  0 
  5 20  1  0  0  0  0 
  5 21  1  0  0  0  0 
  5 22  1  0  0  0  0 
  6 23  1  0  0  0  0 
  6 24  1  0  0  0  0 
  8 25  1  0  0  0  0 
  9 26  1  0  0  0  0 
 10 27  1  0  0  0  0 
 11 28  1  0  0  0  0 
 12 29  1  0  0  0  0 
M  END
> <cdk:Title>
etilamfetamine

> <Conformer>
1

> <SuperDrugID>
SD000981

$$$$
