butazopyridine
  CDK     0628171801

 39 40  0  0  0  0  0  0  0  0999 V2000
   -2.6472    3.8848    0.0189 N   0  0  0  0  0  0  0  0  0  0  0  0
   -3.4925    4.7723    0.0705 N   0  0  0  0  0  0  0  0  0  0  0  0
   -1.4869    3.8403    0.6657 C   0  0  0  0  0  0  0  0  0  0  0  0
   -4.6445    4.8351   -0.5795 C   0  0  0  0  0  0  0  0  0  0  0  0
   -0.9713    4.8496    1.5235 C   0  0  0  0  0  0  0  0  0  0  0  0
   -0.6946    2.6883    0.4602 C   0  0  0  0  0  0  0  0  0  0  0  0
   -5.0802    3.8718   -1.5191 C   0  0  0  0  0  0  0  0  0  0  0  0
   -5.4878    5.9355   -0.3187 C   0  0  0  0  0  0  0  0  0  0  0  0
   -1.6213    5.9943    1.8179 N   0  0  0  0  0  0  0  0  0  0  0  0
    0.2499    4.6874    2.0961 N   0  0  0  0  0  0  0  0  0  0  0  0
    0.5611    2.5549    1.0807 C   0  0  0  0  0  0  0  0  0  0  0  0
   -6.3247    4.0162   -2.1578 C   0  0  0  0  0  0  0  0  0  0  0  0
   -6.6875    6.0433   -0.9468 N   0  0  0  0  0  0  0  0  0  0  0  0
    1.0275    3.5918    1.9062 C   0  0  0  0  0  0  0  0  0  0  0  0
   -7.1366    5.1234   -1.8407 C   0  0  0  0  0  0  0  0  0  0  0  0
    2.2300    3.5144    2.5076 N   0  0  0  0  0  0  0  0  0  0  0  0
   -8.3682    5.2761   -2.4173 O   0  0  0  0  0  0  0  0  0  0  0  0
   -9.4104    4.6682   -1.6266 C   0  0  2  0  0  0  0  0  0  0  0  0
  -10.7728    4.8258   -2.3405 C   0  0  1  0  0  0  0  0  0  0  0  0
  -11.9280    4.1482   -1.5564 C   0  0  1  0  0  0  0  0  0  0  0  0
  -13.2952    4.2862   -2.2593 C   0  0  0  0  0  0  0  0  0  0  0  0
   -1.0255    1.9329   -0.1461 H   0  0  0  0  0  0  0  0  0  0  0  0
   -4.4967    3.0631   -1.7441 H   0  0  0  0  0  0  0  0  0  0  0  0
   -5.2110    6.6629    0.3451 H   0  0  0  0  0  0  0  0  0  0  0  0
   -1.2097    6.6476    2.4042 H   0  0  0  0  0  0  0  0  0  0  0  0
   -2.5002    6.1708    1.4535 H   0  0  0  0  0  0  0  0  0  0  0  0
    1.1269    1.7157    0.9284 H   0  0  0  0  0  0  0  0  0  0  0  0
   -6.6414    3.3205   -2.8357 H   0  0  0  0  0  0  0  0  0  0  0  0
    2.5381    4.2427    3.0691 H   0  0  0  0  0  0  0  0  0  0  0  0
    2.7888    2.7294    2.3847 H   0  0  0  0  0  0  0  0  0  0  0  0
   -9.4680    5.1513   -0.6453 H   0  0  0  0  0  0  0  0  0  0  0  0
   -9.2096    3.5999   -1.4859 H   0  0  0  0  0  0  0  0  0  0  0  0
  -10.9881    5.8918   -2.4545 H   0  0  0  0  0  0  0  0  0  0  0  0
  -10.7034    4.3812   -3.3374 H   0  0  0  0  0  0  0  0  0  0  0  0
  -11.7084    3.0838   -1.4358 H   0  0  0  0  0  0  0  0  0  0  0  0
  -12.0012    4.5962   -0.5617 H   0  0  0  0  0  0  0  0  0  0  0  0
  -13.5594    5.3391   -2.3735 H   0  0  0  0  0  0  0  0  0  0  0  0
  -13.2643    3.8158   -3.2439 H   0  0  0  0  0  0  0  0  0  0  0  0
  -14.0664    3.7956   -1.6630 H   0  0  0  0  0  0  0  0  0  0  0  0
  1  2  2  0  0  0  0 
  1  3  1  0  0  0  0 
  2  4  1  0  0  0  0 
  3  5  2  0  0  0  0 
  3  6  1  0  0  0  0 
  4  7  2  0  0  0  0 
  4  8  1  0  0  0  0 
  5  9  1  0  0  0  0 
  5 10  1  0  0  0  0 
  6 11  2  0  0  0  0 
  7 12  1  0  0  0  0 
  8 13  2  0  0  0  0 
 10 14  2  0  0  0  0 
 11 14  1  0  0  0  0 
 12 15  2  0  0  0  0 
 13 15  1  0  0  0  0 
 14 16  1  0  0  0  0 
 15 17  1  0  0  0  0 
 17 18  1  0  0  0  0 
 18 19  1  0  0  0  0 
 19 20  1  0  0  0  0 
 20 21  1  0  0  0  0 
  6 22  1  0  0  0  0 
  7 23  1  0  0  0  0 
  8 24  1  0  0  0  0 
  9 25  1  0  0  0  0 
  9 26  1  0  0  0  0 
 11 27  1  0  0  0  0 
 12 28  1  0  0  0  0 
 16 29  1  0  0  0  0 
 16 30  1  0  0  0  0 
 18 31  1  0  0  0  0 
 18 32  1  0  0  0  0 
 19 33  1  0  0  0  0 
 19 34  1  0  0  0  0 
 20 35  1  0  0  0  0 
 20 36  1  0  0  0  0 
 21 37  1  0  0  0  0 
 21 38  1  0  0  0  0 
 21 39  1  0  0  0  0 
M  END
> <cdk:Title>
butazopyridine

> <Conformer>
1

> <SuperDrugID>
SD001693

$$$$
