Spiramycin I
  CDK     0628171801

133136  0  0  0  0  0  0  0  0999 V2000
    0.3788   -0.2327   10.6850 O   0  0  0  0  0  0  0  0  0  0  0  0
    1.0009   -0.3494    9.3663 C   0  0  1  0  0  0  0  0  0  0  0  0
   -1.0638   -0.2558   10.8425 C   0  0  1  0  0  0  0  0  0  0  0  0
    2.5635   -0.1549    9.5615 C   0  0  1  0  0  0  0  0  0  0  0  0
    0.6503   -1.7056    8.6155 C   0  0  1  0  0  0  0  0  0  0  0  0
   -1.4416   -0.9020   12.2033 C   0  0  2  0  0  0  0  0  0  0  0  0
   -1.7248    1.0067   10.5948 O   0  0  0  0  0  0  0  0  0  0  0  0
    3.4289   -0.2028    8.2400 C   0  0  2  0  0  0  0  0  0  0  0  0
    2.9750    1.0707   10.4629 C   0  0  2  0  0  0  0  0  0  0  0  0
    0.5694   -2.7685    9.5986 O   0  0  0  0  0  0  0  0  0  0  0  0
   -0.6183   -1.6406    7.6796 C   0  0  2  0  0  0  0  0  0  0  0  0
   -2.7749   -1.4142   12.1267 O   0  0  0  0  0  0  0  0  0  0  0  0
   -1.2977    0.1022   13.3953 C   0  0  1  0  0  0  0  0  0  0  0  0
   -1.9485    1.9464   11.6758 C   0  0  1  0  0  0  0  0  0  0  0  0
    4.2401   -1.4292    8.0727 C   0  0  0  0  0  0  0  0  0  0  0  0
    2.4232    2.5152   10.1684 C   0  0  1  0  0  0  0  0  0  0  0  0
    0.9305   -4.0884    9.1404 C   0  0  0  0  0  0  0  0  0  0  0  0
   -1.6734   -2.4670    8.1775 O   0  0  0  0  0  0  0  0  0  0  0  0
   -0.3696   -2.0559    6.1905 C   0  0  2  0  0  0  0  0  0  0  0  0
    0.1378    0.4848   13.7366 N   0  0  1  0  0  0  0  0  0  0  0  0
   -2.2561    1.3111   13.0722 C   0  0  1  0  0  0  0  0  0  0  0  0
   -0.8537    3.0311   11.7290 C   0  0  0  0  0  0  0  0  0  0  0  0
    5.4911   -1.3917    8.0837 O   0  0  0  0  0  0  0  0  0  0  0  0
    2.7761    3.4424   11.3772 C   0  0  0  0  0  0  0  0  0  0  0  0
    2.8567    3.2336    8.8377 C   0  0  1  0  0  0  0  0  0  0  0  0
   -1.2561   -1.3218    5.2693 C   0  0  0  0  0  0  0  0  0  0  0  0
    0.2675    1.4151   14.9091 C   0  0  0  0  0  0  0  0  0  0  0  0
    1.0700   -0.6777   13.9351 C   0  0  0  0  0  0  0  0  0  0  0  0
   -3.6681    0.9780   13.0591 O   0  0  0  0  0  0  0  0  0  0  0  0
    4.3030    3.1662    8.7599 O   0  0  0  0  0  0  0  0  0  0  0  0
    2.1338    2.7502    7.6568 C   0  0  0  0  0  0  0  0  0  0  0  0
   -2.2530   -1.8690    4.7434 O   0  0  0  0  0  0  0  0  0  0  0  0
   -0.9259   -0.0198    5.0428 O   0  0  0  0  0  0  0  0  0  0  0  0
   -4.3517    0.5990   14.2750 C   0  0  1  0  0  0  0  0  0  0  0  0
    4.9754    3.9117    7.7241 C   0  0  2  0  0  0  0  0  0  0  0  0
    0.8298    3.0007    7.4256 C   0  0  0  0  0  0  0  0  0  0  0  0
   -1.5411    0.9689    4.2085 C   0  0  2  0  0  0  0  0  0  0  0  0
   -4.2314    1.6269   15.4363 C   0  0  1  0  0  0  0  0  0  0  0  0
   -5.7234    0.4934   13.8395 O   0  0  0  0  0  0  0  0  0  0  0  0
    4.9488    3.1053    6.5299 O   0  0  0  0  0  0  0  0  0  0  0  0
    6.4377    4.1653    8.1761 C   0  0  1  0  0  0  0  0  0  0  0  0
    0.1401    2.5032    6.3566 C   0  0  0  0  0  0  0  0  0  0  0  0
   -0.5613    1.3304    3.0652 C   0  0  0  0  0  0  0  0  0  0  0  0
   -2.0117    2.1732    5.0848 C   0  0  2  0  0  0  0  0  0  0  0  0
   -5.1987    1.3162   16.6168 C   0  0  1  0  0  0  0  0  0  0  0  0
   -6.7161    0.1427   14.8274 C   0  0  2  0  0  0  0  0  0  0  0  0
    5.6370    3.6592    5.3895 C   0  0  2  0  0  0  0  0  0  0  0  0
    7.2891    4.7297    7.0101 C   0  0  1  0  0  0  0  0  0  0  0  0
   -1.1786    2.7021    6.1653 C   0  0  0  0  0  0  0  0  0  0  0  0
   -4.6693    0.1776   17.5390 C   0  0  0  0  0  0  0  0  0  0  0  0
   -5.2365    2.4726   17.4607 O   0  0  0  0  0  0  0  0  0  0  0  0
   -6.6781    1.1037   16.0662 C   0  0  2  0  0  0  0  0  0  0  0  0
   -6.7310   -1.3812   15.1237 C   0  0  0  0  0  0  0  0  0  0  0  0
    5.3953    2.6797    4.2159 C   0  0  0  0  0  0  0  0  0  0  0  0
    7.1520    3.8522    5.7270 C   0  0  2  0  0  0  0  0  0  0  0  0
   -7.3166    2.3663   15.5907 O   0  0  0  0  0  0  0  0  0  0  0  0
    7.9673    4.3231    4.5488 N   0  0  1  0  0  0  0  0  0  0  0  0
    7.7799    5.7356    4.1042 C   0  0  0  0  0  0  0  0  0  0  0  0
    9.4050    3.9248    4.5894 C   0  0  0  0  0  0  0  0  0  0  0  0
   -1.4846   -0.9230   10.1024 H   0  0  0  0  0  0  0  0  0  0  0  0
   -3.9885   -0.3786   14.5937 H   0  0  0  0  0  0  0  0  0  0  0  0
    4.4852    4.8765    7.5505 H   0  0  0  0  0  0  0  0  0  0  0  0
    0.6579    0.4883    8.7605 H   0  0  0  0  0  0  0  0  0  0  0  0
    2.8628   -1.0217   10.1654 H   0  0  0  0  0  0  0  0  0  0  0  0
    1.4908   -1.9307    7.9661 H   0  0  0  0  0  0  0  0  0  0  0  0
   -0.8279   -1.7882   12.3645 H   0  0  0  0  0  0  0  0  0  0  0  0
    4.1189    0.6400    8.1968 H   0  0  0  0  0  0  0  0  0  0  0  0
    2.7893   -0.1112    7.3604 H   0  0  0  0  0  0  0  0  0  0  0  0
    4.0671    1.1219   10.5106 H   0  0  0  0  0  0  0  0  0  0  0  0
    2.6624    0.8050   11.4788 H   0  0  0  0  0  0  0  0  0  0  0  0
   -1.0125   -0.6204    7.6998 H   0  0  0  0  0  0  0  0  0  0  0  0
   -2.9382   -1.8311   12.9992 H   0  0  0  0  0  0  0  0  0  0  0  0
   -1.6869   -0.4034   14.2833 H   0  0  0  0  0  0  0  0  0  0  0  0
   -2.8433    2.4950   11.3648 H   0  0  0  0  0  0  0  0  0  0  0  0
    3.7864   -2.3296    7.9171 H   0  0  0  0  0  0  0  0  0  0  0  0
    1.3415    2.4332   10.1530 H   0  0  0  0  0  0  0  0  0  0  0  0
    0.2862   -4.4224    8.3270 H   0  0  0  0  0  0  0  0  0  0  0  0
    0.8220   -4.7851    9.9704 H   0  0  0  0  0  0  0  0  0  0  0  0
    1.9699   -4.1162    8.8072 H   0  0  0  0  0  0  0  0  0  0  0  0
   -2.4368   -2.2943    7.5877 H   0  0  0  0  0  0  0  0  0  0  0  0
   -0.5104   -3.1337    6.0711 H   0  0  0  0  0  0  0  0  0  0  0  0
    0.6552   -1.8378    5.8784 H   0  0  0  0  0  0  0  0  0  0  0  0
   -2.1490    2.0970   13.8143 H   0  0  0  0  0  0  0  0  0  0  0  0
   -1.1342    3.8322   12.4163 H   0  0  0  0  0  0  0  0  0  0  0  0
   -0.7170    3.4693   10.7394 H   0  0  0  0  0  0  0  0  0  0  0  0
    0.0777    2.5943   12.0713 H   0  0  0  0  0  0  0  0  0  0  0  0
    2.2974    4.4184   11.2721 H   0  0  0  0  0  0  0  0  0  0  0  0
    3.8557    3.5944   11.4465 H   0  0  0  0  0  0  0  0  0  0  0  0
    2.4352    3.0141   12.3216 H   0  0  0  0  0  0  0  0  0  0  0  0
    2.5982    4.2947    8.9259 H   0  0  0  0  0  0  0  0  0  0  0  0
    1.3136    1.6182   15.1487 H   0  0  0  0  0  0  0  0  0  0  0  0
   -0.1677    2.3884   14.6985 H   0  0  0  0  0  0  0  0  0  0  0  0
   -0.2126    0.9964   15.7970 H   0  0  0  0  0  0  0  0  0  0  0  0
    2.0608   -0.3566   14.2652 H   0  0  0  0  0  0  0  0  0  0  0  0
    1.2400   -1.2116   13.0023 H   0  0  0  0  0  0  0  0  0  0  0  0
    0.6732   -1.3762   14.6764 H   0  0  0  0  0  0  0  0  0  0  0  0
    2.6329    2.1999    6.9999 H   0  0  0  0  0  0  0  0  0  0  0  0
    0.3417    3.5641    8.0856 H   0  0  0  0  0  0  0  0  0  0  0  0
   -2.4279    0.5488    3.7208 H   0  0  0  0  0  0  0  0  0  0  0  0
   -3.2065    1.6491   15.8139 H   0  0  0  0  0  0  0  0  0  0  0  0
   -4.4584    2.6156   15.0279 H   0  0  0  0  0  0  0  0  0  0  0  0
    6.4463    4.8715    9.0108 H   0  0  0  0  0  0  0  0  0  0  0  0
    6.8842    3.2285    8.5203 H   0  0  0  0  0  0  0  0  0  0  0  0
    0.6391    1.9585    5.6960 H   0  0  0  0  0  0  0  0  0  0  0  0
   -1.0046    2.0678    2.3927 H   0  0  0  0  0  0  0  0  0  0  0  0
    0.3756    1.7257    3.4486 H   0  0  0  0  0  0  0  0  0  0  0  0
   -0.3313    0.4302    2.4910 H   0  0  0  0  0  0  0  0  0  0  0  0
   -2.9438    1.8457    5.5582 H   0  0  0  0  0  0  0  0  0  0  0  0
   -2.2686    3.0085    4.4309 H   0  0  0  0  0  0  0  0  0  0  0  0
   -7.6728    0.3165   14.3239 H   0  0  0  0  0  0  0  0  0  0  0  0
    5.1778    4.6175    5.1286 H   0  0  0  0  0  0  0  0  0  0  0  0
    6.9599    5.7516    6.8050 H   0  0  0  0  0  0  0  0  0  0  0  0
    8.3357    4.7685    7.3223 H   0  0  0  0  0  0  0  0  0  0  0  0
   -1.6628    3.2704    6.8264 H   0  0  0  0  0  0  0  0  0  0  0  0
   -4.4564   -0.7328   16.9857 H   0  0  0  0  0  0  0  0  0  0  0  0
   -3.7420    0.4880   18.0260 H   0  0  0  0  0  0  0  0  0  0  0  0
   -5.3981   -0.0514   18.3184 H   0  0  0  0  0  0  0  0  0  0  0  0
   -5.5418    3.2095   16.8902 H   0  0  0  0  0  0  0  0  0  0  0  0
   -7.2617    0.6131   16.8916 H   0  0  0  0  0  0  0  0  0  0  0  0
   -5.7628   -1.7447   15.4547 H   0  0  0  0  0  0  0  0  0  0  0  0
   -7.4742   -1.6107   15.8886 H   0  0  0  0  0  0  0  0  0  0  0  0
   -6.9967   -1.9293   14.2171 H   0  0  0  0  0  0  0  0  0  0  0  0
    5.8123    1.6967    4.4455 H   0  0  0  0  0  0  0  0  0  0  0  0
    4.3229    2.5681    4.0433 H   0  0  0  0  0  0  0  0  0  0  0  0
    5.8530    3.0538    3.2986 H   0  0  0  0  0  0  0  0  0  0  0  0
    7.5102    2.8536    6.0026 H   0  0  0  0  0  0  0  0  0  0  0  0
   -8.2421    2.1219   15.3823 H   0  0  0  0  0  0  0  0  0  0  0  0
    8.2295    5.8795    3.1194 H   0  0  0  0  0  0  0  0  0  0  0  0
    6.7239    5.9868    4.0137 H   0  0  0  0  0  0  0  0  0  0  0  0
    8.2479    6.4330    4.8020 H   0  0  0  0  0  0  0  0  0  0  0  0
    9.9020    4.1751    3.6499 H   0  0  0  0  0  0  0  0  0  0  0  0
    9.4983    2.8456    4.7241 H   0  0  0  0  0  0  0  0  0  0  0  0
    9.9278    4.4275    5.4053 H   0  0  0  0  0  0  0  0  0  0  0  0
  3  1  1  0  0  0  0 
  2  1  1  0  0  0  0 
  2  4  1  0  0  0  0 
  5  2  1  0  0  0  0 
  6  3  1  0  0  0  0 
  3  7  1  0  0  0  0 
  3 60  1  0  0  0  0 
  4  8  1  0  0  0  0 
  4  9  1  0  0  0  0 
  5 10  1  0  0  0  0 
 11  5  1  0  0  0  0 
  6 12  1  0  0  0  0 
 13  6  1  0  0  0  0 
 14  7  1  0  0  0  0 
  8 15  1  0  0  0  0 
 16  9  1  0  0  0  0 
 10 17  1  0  0  0  0 
 11 18  1  0  0  0  0 
 11 19  1  0  0  0  0 
 13 20  1  0  0  0  0 
 21 13  1  0  0  0  0 
 21 14  1  0  0  0  0 
 14 22  1  0  0  0  0 
 15 23  2  0  0  0  0 
 16 24  1  0  0  0  0 
 25 16  1  0  0  0  0 
 19 26  1  0  0  0  0 
 20 27  1  0  0  0  0 
 20 28  1  0  0  0  0 
 21 29  1  0  0  0  0 
 25 30  1  0  0  0  0 
 25 31  1  0  0  0  0 
 26 32  2  0  0  0  0 
 26 33  1  0  0  0  0 
 34 29  1  0  0  0  0 
 35 30  1  0  0  0  0 
 31 36  2  0  0  0  0 
 37 33  1  0  0  0  0 
 34 38  1  0  0  0  0 
 34 39  1  0  0  0  0 
 34 61  1  0  0  0  0 
 35 40  1  0  0  0  0 
 35 41  1  0  0  0  0 
 35 62  1  0  0  0  0 
 36 42  1  0  0  0  0 
 37 43  1  0  0  0  0 
 37 44  1  0  0  0  0 
 45 38  1  0  0  0  0 
 46 39  1  0  0  0  0 
 47 40  1  0  0  0  0 
 41 48  1  0  0  0  0 
 42 49  2  0  0  0  0 
 44 49  1  0  0  0  0 
 45 50  1  0  0  0  0 
 45 51  1  0  0  0  0 
 52 45  1  0  0  0  0 
 52 46  1  0  0  0  0 
 46 53  1  0  0  0  0 
 47 54  1  0  0  0  0 
 55 47  1  0  0  0  0 
 55 48  1  0  0  0  0 
 52 56  1  0  0  0  0 
 55 57  1  0  0  0  0 
 57 58  1  0  0  0  0 
 57 59  1  0  0  0  0 
  2 63  1  0  0  0  0 
  4 64  1  0  0  0  0 
  5 65  1  0  0  0  0 
  6 66  1  0  0  0  0 
  8 67  1  0  0  0  0 
  8 68  1  0  0  0  0 
  9 69  1  0  0  0  0 
  9 70  1  0  0  0  0 
 11 71  1  0  0  0  0 
 12 72  1  0  0  0  0 
 13 73  1  0  0  0  0 
 14 74  1  0  0  0  0 
 15 75  1  0  0  0  0 
 16 76  1  0  0  0  0 
 17 77  1  0  0  0  0 
 17 78  1  0  0  0  0 
 17 79  1  0  0  0  0 
 18 80  1  0  0  0  0 
 19 81  1  0  0  0  0 
 19 82  1  0  0  0  0 
 21 83  1  0  0  0  0 
 22 84  1  0  0  0  0 
 22 85  1  0  0  0  0 
 22 86  1  0  0  0  0 
 24 87  1  0  0  0  0 
 24 88  1  0  0  0  0 
 24 89  1  0  0  0  0 
 25 90  1  0  0  0  0 
 27 91  1  0  0  0  0 
 27 92  1  0  0  0  0 
 27 93  1  0  0  0  0 
 28 94  1  0  0  0  0 
 28 95  1  0  0  0  0 
 28 96  1  0  0  0  0 
 31 97  1  0  0  0  0 
 36 98  1  0  0  0  0 
 37 99  1  0  0  0  0 
 38100  1  0  0  0  0 
 38101  1  0  0  0  0 
 41102  1  0  0  0  0 
 41103  1  0  0  0  0 
 42104  1  0  0  0  0 
 43105  1  0  0  0  0 
 43106  1  0  0  0  0 
 43107  1  0  0  0  0 
 44108  1  0  0  0  0 
 44109  1  0  0  0  0 
 46110  1  0  0  0  0 
 47111  1  0  0  0  0 
 48112  1  0  0  0  0 
 48113  1  0  0  0  0 
 49114  1  0  0  0  0 
 50115  1  0  0  0  0 
 50116  1  0  0  0  0 
 50117  1  0  0  0  0 
 51118  1  0  0  0  0 
 52119  1  0  0  0  0 
 53120  1  0  0  0  0 
 53121  1  0  0  0  0 
 53122  1  0  0  0  0 
 54123  1  0  0  0  0 
 54124  1  0  0  0  0 
 54125  1  0  0  0  0 
 55126  1  0  0  0  0 
 56127  1  0  0  0  0 
 58128  1  0  0  0  0 
 58129  1  0  0  0  0 
 58130  1  0  0  0  0 
 59131  1  0  0  0  0 
 59132  1  0  0  0  0 
 59133  1  0  0  0  0 
M  END
> <cdk:Title>
Spiramycin I

> <Conformer>
1

> <SuperDrugID>
SD002219

$$$$
