ioxaglic acid
  CDK     0628171801

 64 65  0  0  0  0  0  0  0  0999 V2000
   -3.1357   -0.1044   -1.4913 C   0  0  0  0  0  0  0  0  0  0  0  0
   -2.2042    0.0452   -0.5087 N   0  0  0  0  0  0  0  0  0  0  0  0
   -3.1039    0.5658   -2.5497 O   0  0  0  0  0  0  0  0  0  0  0  0
   -4.1859   -1.0209   -1.2937 C   0  0  0  0  0  0  0  0  0  0  0  0
   -1.1487    1.0130   -0.5004 C   0  0  2  0  0  0  0  0  0  0  0  0
   -4.0015   -2.3863   -1.6055 C   0  0  0  0  0  0  0  0  0  0  0  0
   -5.4273   -0.5836   -0.7693 C   0  0  0  0  0  0  0  0  0  0  0  0
   -1.6344    2.3995   -0.2985 C   0  0  0  0  0  0  0  0  0  0  0  0
   -2.2291   -3.0346   -2.4380 I   0  0  0  0  0  0  0  0  0  0  0  0
   -5.0363   -3.3172   -1.3562 C   0  0  0  0  0  0  0  0  0  0  0  0
   -5.7862    1.4356   -0.5258 I   0  0  0  0  0  0  0  0  0  0  0  0
   -6.4434   -1.5212   -0.4513 C   0  0  0  0  0  0  0  0  0  0  0  0
   -2.7588    2.6073    0.4410 N   0  0  0  0  0  0  0  0  0  0  0  0
   -0.9757    3.3497   -0.7826 O   0  0  0  0  0  0  0  0  0  0  0  0
   -4.8792   -4.6344   -1.7050 N   0  0  0  0  0  0  0  0  0  0  0  0
   -6.2405   -2.8918   -0.7477 C   0  0  0  0  0  0  0  0  0  0  0  0
   -7.6488   -1.0880    0.1497 C   0  0  0  0  0  0  0  0  0  0  0  0
   -3.4303    3.7672    0.7095 C   0  0  0  0  0  0  0  0  0  0  0  0
   -4.2624   -5.5483   -0.8617 C   0  0  0  0  0  0  0  0  0  0  0  0
   -5.3884   -5.0488   -2.9943 C   0  0  0  0  0  0  0  0  0  0  0  0
   -7.6645   -4.3084   -0.2667 I   0  0  0  0  0  0  0  0  0  0  0  0
   -7.6131   -0.4668    1.3624 N   0  0  0  0  0  0  0  0  0  0  0  0
   -8.7334   -1.2685   -0.4543 O   0  0  0  0  0  0  0  0  0  0  0  0
   -3.6899    4.0413    2.0719 C   0  0  0  0  0  0  0  0  0  0  0  0
   -3.9773    4.5995   -0.3010 C   0  0  0  0  0  0  0  0  0  0  0  0
   -3.6609   -5.2360    0.4566 C   0  0  0  0  0  0  0  0  0  0  0  0
   -4.1763   -6.7534   -1.2028 O   0  0  0  0  0  0  0  0  0  0  0  0
   -8.7459    0.0738    2.0346 C   0  0  0  0  0  0  0  0  0  0  0  0
   -2.7976    2.8496    3.5082 I   0  0  0  0  0  0  0  0  0  0  0  0
   -4.5347    5.1149    2.4499 C   0  0  0  0  0  0  0  0  0  0  0  0
   -3.6091    4.1504   -2.3045 I   0  0  0  0  0  0  0  0  0  0  0  0
   -4.8153    5.6880    0.0859 C   0  0  0  0  0  0  0  0  0  0  0  0
   -4.8656    5.2899    3.8132 C   0  0  0  0  0  0  0  0  0  0  0  0
   -5.0982    5.9568    1.4573 C   0  0  0  0  0  0  0  0  0  0  0  0
   -5.4263    6.4770   -0.9074 C   0  0  0  0  0  0  0  0  0  0  0  0
   -4.5394    6.4359    4.4748 N   0  0  0  0  0  0  0  0  0  0  0  0
   -5.4850    4.3644    4.3917 O   0  0  0  0  0  0  0  0  0  0  0  0
   -6.3996    7.4813    2.0420 I   0  0  0  0  0  0  0  0  0  0  0  0
   -6.2827    5.9129   -1.7939 O   0  0  0  0  0  0  0  0  0  0  0  0
   -5.2149    7.7092   -0.9774 O   0  0  0  0  0  0  0  0  0  0  0  0
   -4.8694    6.7196    5.8378 C   0  0  1  0  0  0  0  0  0  0  0  0
   -6.3704    7.0456    6.0259 C   0  0  2  0  0  0  0  0  0  0  0  0
   -6.6567    7.3262    7.3920 O   0  0  0  0  0  0  0  0  0  0  0  0
   -2.2857   -0.5235    0.2742 H   0  0  0  0  0  0  0  0  0  0  0  0
   -0.5716    0.9371   -1.4259 H   0  0  0  0  0  0  0  0  0  0  0  0
   -0.4774    0.7664    0.3237 H   0  0  0  0  0  0  0  0  0  0  0  0
   -3.1312    1.8126    0.8561 H   0  0  0  0  0  0  0  0  0  0  0  0
   -6.0799   -5.8855   -2.8718 H   0  0  0  0  0  0  0  0  0  0  0  0
   -5.9325   -4.2550   -3.5167 H   0  0  0  0  0  0  0  0  0  0  0  0
   -4.5618   -5.3643   -3.6362 H   0  0  0  0  0  0  0  0  0  0  0  0
   -6.7486   -0.3635    1.7911 H   0  0  0  0  0  0  0  0  0  0  0  0
   -2.5877   -5.4308    0.4178 H   0  0  0  0  0  0  0  0  0  0  0  0
   -3.8059   -4.1983    0.7532 H   0  0  0  0  0  0  0  0  0  0  0  0
   -4.1067   -5.8704    1.2240 H   0  0  0  0  0  0  0  0  0  0  0  0
   -9.1625    0.9092    1.4676 H   0  0  0  0  0  0  0  0  0  0  0  0
   -8.4372    0.4379    3.0146 H   0  0  0  0  0  0  0  0  0  0  0  0
   -9.5085   -0.6940    2.1704 H   0  0  0  0  0  0  0  0  0  0  0  0
   -4.0586    7.1197    3.9791 H   0  0  0  0  0  0  0  0  0  0  0  0
   -6.7290    6.4626   -2.4732 H   0  0  0  0  0  0  0  0  0  0  0  0
   -4.5887    5.8735    6.4711 H   0  0  0  0  0  0  0  0  0  0  0  0
   -4.2755    7.5815    6.1491 H   0  0  0  0  0  0  0  0  0  0  0  0
   -6.9832    6.1980    5.7145 H   0  0  0  0  0  0  0  0  0  0  0  0
   -6.6448    7.9151    5.4255 H   0  0  0  0  0  0  0  0  0  0  0  0
   -7.6230    7.4949    7.4154 H   0  0  0  0  0  0  0  0  0  0  0  0
  1  2  1  0  0  0  0 
  1  3  2  0  0  0  0 
  1  4  1  0  0  0  0 
  2  5  1  0  0  0  0 
  4  6  2  0  0  0  0 
  4  7  1  0  0  0  0 
  5  8  1  0  0  0  0 
  6  9  1  0  0  0  0 
  6 10  1  0  0  0  0 
  7 11  1  0  0  0  0 
  7 12  2  0  0  0  0 
  8 13  1  0  0  0  0 
  8 14  2  0  0  0  0 
 10 15  1  0  0  0  0 
 10 16  2  0  0  0  0 
 12 16  1  0  0  0  0 
 12 17  1  0  0  0  0 
 13 18  1  0  0  0  0 
 15 19  1  0  0  0  0 
 15 20  1  0  0  0  0 
 16 21  1  0  0  0  0 
 17 22  1  0  0  0  0 
 17 23  2  0  0  0  0 
 18 24  2  0  0  0  0 
 18 25  1  0  0  0  0 
 19 26  1  0  0  0  0 
 19 27  2  0  0  0  0 
 22 28  1  0  0  0  0 
 24 29  1  0  0  0  0 
 24 30  1  0  0  0  0 
 25 31  1  0  0  0  0 
 25 32  2  0  0  0  0 
 30 33  1  0  0  0  0 
 30 34  2  0  0  0  0 
 32 34  1  0  0  0  0 
 32 35  1  0  0  0  0 
 33 36  1  0  0  0  0 
 33 37  2  0  0  0  0 
 34 38  1  0  0  0  0 
 35 39  1  0  0  0  0 
 35 40  2  0  0  0  0 
 36 41  1  0  0  0  0 
 41 42  1  0  0  0  0 
 42 43  1  0  0  0  0 
  2 44  1  0  0  0  0 
  5 45  1  0  0  0  0 
  5 46  1  0  0  0  0 
 13 47  1  0  0  0  0 
 20 48  1  0  0  0  0 
 20 49  1  0  0  0  0 
 20 50  1  0  0  0  0 
 22 51  1  0  0  0  0 
 26 52  1  0  0  0  0 
 26 53  1  0  0  0  0 
 26 54  1  0  0  0  0 
 28 55  1  0  0  0  0 
 28 56  1  0  0  0  0 
 28 57  1  0  0  0  0 
 36 58  1  0  0  0  0 
 39 59  1  0  0  0  0 
 41 60  1  0  0  0  0 
 41 61  1  0  0  0  0 
 42 62  1  0  0  0  0 
 42 63  1  0  0  0  0 
 43 64  1  0  0  0  0 
M  END
> <cdk:Title>
ioxaglic acid

> <Conformer>
1

> <SuperDrugID>
SD001303

$$$$
