lenalidomide
  CDK     0628171801

 32 34  0  0  0  0  0  0  0  0999 V2000
   -3.7179   -1.8141   -1.2602 O   0  0  0  0  0  0  0  0  0  0  0  0
   -4.5641   -1.0159   -0.7948 C   0  0  0  0  0  0  0  0  0  0  0  0
   -4.3524   -0.0540    0.1552 N   0  0  0  0  0  0  0  0  0  0  0  0
   -5.8898   -0.9755   -1.1940 C   0  0  0  0  0  0  0  0  0  0  0  0
   -5.5638    0.6745    0.4265 C   0  0  2  0  0  0  0  0  0  0  0  0
   -3.0988    0.2849    0.7959 C   0  0  1  0  0  0  0  0  0  0  0  0
   -6.5193    0.0461   -0.4890 C   0  0  0  0  0  0  0  0  0  0  0  0
   -6.5897   -1.7583   -2.1302 C   0  0  0  0  0  0  0  0  0  0  0  0
   -2.2662   -0.8992    1.1521 C   0  0  0  0  0  0  0  0  0  0  0  0
   -2.2912    1.3196   -0.0478 C   0  0  1  0  0  0  0  0  0  0  0  0
   -7.8798    0.3441   -0.7067 C   0  0  0  0  0  0  0  0  0  0  0  0
   -7.9581   -1.4922   -2.3362 C   0  0  0  0  0  0  0  0  0  0  0  0
   -2.6552   -1.6816    2.0482 O   0  0  0  0  0  0  0  0  0  0  0  0
   -1.0928   -1.1815    0.5234 N   0  0  0  0  0  0  0  0  0  0  0  0
   -1.3934    0.6532   -1.1196 C   0  0  1  0  0  0  0  0  0  0  0  0
   -8.4820    1.3635   -0.0602 N   0  0  0  0  0  0  0  0  0  0  0  0
   -8.5994   -0.4511   -1.6280 C   0  0  0  0  0  0  0  0  0  0  0  0
   -0.6185   -0.4610   -0.5281 C   0  0  0  0  0  0  0  0  0  0  0  0
    0.4905   -0.7738   -1.0144 O   0  0  0  0  0  0  0  0  0  0  0  0
   -5.4545    1.7377    0.1971 H   0  0  0  0  0  0  0  0  0  0  0  0
   -5.8787    0.5410    1.4639 H   0  0  0  0  0  0  0  0  0  0  0  0
   -3.3276    0.7827    1.7435 H   0  0  0  0  0  0  0  0  0  0  0  0
   -6.1215   -2.5039   -2.6503 H   0  0  0  0  0  0  0  0  0  0  0  0
   -2.9610    2.0370   -0.5293 H   0  0  0  0  0  0  0  0  0  0  0  0
   -1.6473    1.8927    0.6266 H   0  0  0  0  0  0  0  0  0  0  0  0
   -8.4887   -2.0543   -3.0070 H   0  0  0  0  0  0  0  0  0  0  0  0
   -0.5733   -1.9397    0.8364 H   0  0  0  0  0  0  0  0  0  0  0  0
   -2.0103    0.2606   -1.9324 H   0  0  0  0  0  0  0  0  0  0  0  0
   -0.7197    1.4073   -1.5381 H   0  0  0  0  0  0  0  0  0  0  0  0
   -9.4206    1.5548   -0.2215 H   0  0  0  0  0  0  0  0  0  0  0  0
   -7.9772    1.9157    0.5586 H   0  0  0  0  0  0  0  0  0  0  0  0
   -9.5933   -0.2735   -1.7948 H   0  0  0  0  0  0  0  0  0  0  0  0
  1  2  2  0  0  0  0 
  2  3  1  0  0  0  0 
  2  4  1  0  0  0  0 
  3  5  1  0  0  0  0 
  6  3  1  0  0  0  0 
  4  7  2  0  0  0  0 
  4  8  1  0  0  0  0 
  5  7  1  0  0  0  0 
  6  9  1  0  0  0  0 
  6 10  1  0  0  0  0 
  7 11  1  0  0  0  0 
  8 12  2  0  0  0  0 
  9 13  2  0  0  0  0 
  9 14  1  0  0  0  0 
 10 15  1  0  0  0  0 
 11 16  1  0  0  0  0 
 11 17  2  0  0  0  0 
 12 17  1  0  0  0  0 
 14 18  1  0  0  0  0 
 15 18  1  0  0  0  0 
 18 19  2  0  0  0  0 
  5 20  1  0  0  0  0 
  5 21  1  0  0  0  0 
  6 22  1  0  0  0  0 
  8 23  1  0  0  0  0 
 10 24  1  0  0  0  0 
 10 25  1  0  0  0  0 
 12 26  1  0  0  0  0 
 14 27  1  0  0  0  0 
 15 28  1  0  0  0  0 
 15 29  1  0  0  0  0 
 16 30  1  0  0  0  0 
 16 31  1  0  0  0  0 
 17 32  1  0  0  0  0 
M  END
> <cdk:Title>
lenalidomide

> <Conformer>
1

> <SuperDrugID>
SD002865

$$$$
