dorzolamide
  CDK     0628171802

 35 36  0  0  0  0  0  0  0  0999 V2000
    5.9895   -2.4853   -0.1253 O   0  0  0  0  0  0  0  0  0  0  0  0
    4.5707   -1.7489   -0.2553 S   0  0  2  0  0  0  0  0  0  0  0  0
    4.7084   -0.2334    0.2526 O   0  0  0  0  0  0  0  0  0  0  0  0
    3.3656   -2.5922    0.7154 C   0  0  0  0  0  0  0  0  0  0  0  0
    3.9689   -1.7579   -2.0018 C   0  0  1  0  0  0  0  0  0  0  0  0
    2.0678   -2.8622    0.2672 C   0  0  0  0  0  0  0  0  0  0  0  0
    3.5729   -3.3722    2.2698 S   0  0  0  0  0  0  0  0  0  0  0  0
    5.0825   -2.2045   -2.9817 C   0  0  0  0  0  0  0  0  0  0  0  0
    2.6642   -2.6110   -2.1525 C   0  0  2  0  0  0  0  0  0  0  0  0
    1.5874   -2.3519   -1.0474 C   0  0  2  0  0  0  0  0  0  0  0  0
    1.3143   -3.6845    1.1367 C   0  0  0  0  0  0  0  0  0  0  0  0
    1.9797   -4.1067    2.2959 C   0  0  0  0  0  0  0  0  0  0  0  0
    1.2936   -0.8948   -0.9917 N   0  0  2  0  0  0  0  0  0  0  0  0
    1.4125   -5.2415    3.5192 S   0  0  1  0  0  0  0  0  0  0  0  0
    0.1035   -0.4822   -0.2179 C   0  0  1  0  0  0  0  0  0  0  0  0
    1.5519   -4.5104    5.1100 N   0  0  2  0  0  0  0  0  0  0  0  0
   -0.1169   -5.6493    3.2614 O   0  0  0  0  0  0  0  0  0  0  0  0
    2.3244   -6.5613    3.4948 O   0  0  0  0  0  0  0  0  0  0  0  0
   -0.0542    1.0482   -0.2922 C   0  0  0  0  0  0  0  0  0  0  0  0
    3.7229   -0.7230   -2.2538 H   0  0  0  0  0  0  0  0  0  0  0  0
    5.9545   -1.5550   -2.8763 H   0  0  0  0  0  0  0  0  0  0  0  0
    5.3854   -3.2353   -2.7832 H   0  0  0  0  0  0  0  0  0  0  0  0
    4.7260   -2.1343   -4.0130 H   0  0  0  0  0  0  0  0  0  0  0  0
    2.9231   -3.6756   -2.1506 H   0  0  0  0  0  0  0  0  0  0  0  0
    2.2192   -2.3958   -3.1280 H   0  0  0  0  0  0  0  0  0  0  0  0
    0.6785   -2.8863   -1.3413 H   0  0  0  0  0  0  0  0  0  0  0  0
    0.3566   -3.9733    0.9249 H   0  0  0  0  0  0  0  0  0  0  0  0
    1.1348   -0.5854   -1.9528 H   0  0  0  0  0  0  0  0  0  0  0  0
   -0.7925   -0.9483   -0.6329 H   0  0  0  0  0  0  0  0  0  0  0  0
    0.2091   -0.7781    0.8275 H   0  0  0  0  0  0  0  0  0  0  0  0
    1.2936   -5.2324    5.7842 H   0  0  0  0  0  0  0  0  0  0  0  0
    0.8376   -3.7813    5.1667 H   0  0  0  0  0  0  0  0  0  0  0  0
   -0.9239    1.3620    0.2863 H   0  0  0  0  0  0  0  0  0  0  0  0
   -0.1917    1.3586   -1.3299 H   0  0  0  0  0  0  0  0  0  0  0  0
    0.8299    1.5432    0.1141 H   0  0  0  0  0  0  0  0  0  0  0  0
  1  2  2  0  0  0  0 
  2  3  2  0  0  0  0 
  2  4  1  0  0  0  0 
  5  2  1  0  0  0  0 
  4  6  2  0  0  0  0 
  4  7  1  0  0  0  0 
  5  8  1  0  0  0  0 
  5  9  1  0  0  0  0 
 10  6  1  0  0  0  0 
  6 11  1  0  0  0  0 
  7 12  1  0  0  0  0 
 10  9  1  0  0  0  0 
 10 13  1  0  0  0  0 
 11 12  2  0  0  0  0 
 12 14  1  0  0  0  0 
 13 15  1  0  0  0  0 
 14 16  1  0  0  0  0 
 14 17  2  0  0  0  0 
 14 18  2  0  0  0  0 
 15 19  1  0  0  0  0 
  5 20  1  0  0  0  0 
  8 21  1  0  0  0  0 
  8 22  1  0  0  0  0 
  8 23  1  0  0  0  0 
  9 24  1  0  0  0  0 
  9 25  1  0  0  0  0 
 10 26  1  0  0  0  0 
 11 27  1  0  0  0  0 
 13 28  1  0  0  0  0 
 15 29  1  0  0  0  0 
 15 30  1  0  0  0  0 
 16 31  1  0  0  0  0 
 16 32  1  0  0  0  0 
 19 33  1  0  0  0  0 
 19 34  1  0  0  0  0 
 19 35  1  0  0  0  0 
M  END
> <cdk:Title>
dorzolamide

> <Conformer>
1

> <SuperDrugID>
SD000843

$$$$
