capecitabine
  CDK     0628171802

 47 48  0  0  0  0  0  0  0  0999 V2000
    6.4719   -6.1702    0.2988 O   0  0  0  0  0  0  0  0  0  0  0  0
    6.3379   -5.3220    1.4426 C   0  0  1  0  0  0  0  0  0  0  0  0
    4.9436   -4.6280    1.4676 C   0  0  1  0  0  0  0  0  0  0  0  0
    6.3431   -6.1483    2.7430 C   0  0  2  0  0  0  0  0  0  0  0  0
    4.2168   -5.1545    2.5898 O   0  0  0  0  0  0  0  0  0  0  0  0
    4.9552   -3.1773    1.5989 N   0  0  0  0  0  0  0  0  0  0  0  0
    7.0769   -7.3668    2.6281 O   0  0  0  0  0  0  0  0  0  0  0  0
    4.8378   -6.3822    2.9820 C   0  0  2  0  0  0  0  0  0  0  0  0
    4.2657   -2.3622    0.7322 C   0  0  0  0  0  0  0  0  0  0  0  0
    5.6291   -2.5867    2.6389 C   0  0  0  0  0  0  0  0  0  0  0  0
    4.4689   -6.7091    4.4451 C   0  0  0  0  0  0  0  0  0  0  0  0
    3.6414   -2.7848   -0.2678 O   0  0  0  0  0  0  0  0  0  0  0  0
    4.2094   -1.0214    0.9326 N   0  0  0  0  0  0  0  0  0  0  0  0
    5.6083   -1.1954    2.8377 C   0  0  0  0  0  0  0  0  0  0  0  0
    4.8418   -0.4019    1.9621 C   0  0  0  0  0  0  0  0  0  0  0  0
    6.2748   -0.6787    3.8350 F   0  0  0  0  0  0  0  0  0  0  0  0
    4.7687    0.9453    2.1787 N   0  0  0  0  0  0  0  0  0  0  0  0
    3.9101    1.8473    1.6282 C   0  0  0  0  0  0  0  0  0  0  0  0
    4.0786    3.1521    2.0032 O   0  0  0  0  0  0  0  0  0  0  0  0
    3.0081    1.5239    0.8186 O   0  0  0  0  0  0  0  0  0  0  0  0
    3.3521    4.2980    1.5225 C   0  0  1  0  0  0  0  0  0  0  0  0
    3.9755    5.6062    2.0923 C   0  0  1  0  0  0  0  0  0  0  0  0
    4.1277    6.7407    1.0386 C   0  0  1  0  0  0  0  0  0  0  0  0
    4.8196    8.0135    1.6022 C   0  0  2  0  0  0  0  0  0  0  0  0
    5.0776    9.0938    0.5239 C   0  0  0  0  0  0  0  0  0  0  0  0
    6.4922   -5.5597   -0.4669 H   0  0  0  0  0  0  0  0  0  0  0  0
    7.1626   -4.6036    1.4301 H   0  0  0  0  0  0  0  0  0  0  0  0
    4.3885   -4.9447    0.5772 H   0  0  0  0  0  0  0  0  0  0  0  0
    6.7760   -5.5563    3.5572 H   0  0  0  0  0  0  0  0  0  0  0  0
    6.9902   -7.8025    3.5015 H   0  0  0  0  0  0  0  0  0  0  0  0
    4.4772   -7.1924    2.3364 H   0  0  0  0  0  0  0  0  0  0  0  0
    6.1670   -3.1511    3.3004 H   0  0  0  0  0  0  0  0  0  0  0  0
    4.7294   -5.8773    5.1016 H   0  0  0  0  0  0  0  0  0  0  0  0
    4.9979   -7.6030    4.7781 H   0  0  0  0  0  0  0  0  0  0  0  0
    3.3953   -6.8861    4.5223 H   0  0  0  0  0  0  0  0  0  0  0  0
    5.4061    1.3064    2.8145 H   0  0  0  0  0  0  0  0  0  0  0  0
    3.3951    4.3014    0.4294 H   0  0  0  0  0  0  0  0  0  0  0  0
    2.3005    4.2229    1.8187 H   0  0  0  0  0  0  0  0  0  0  0  0
    3.3625    5.9645    2.9253 H   0  0  0  0  0  0  0  0  0  0  0  0
    4.9683    5.3822    2.4925 H   0  0  0  0  0  0  0  0  0  0  0  0
    4.7248    6.3599    0.2051 H   0  0  0  0  0  0  0  0  0  0  0  0
    3.1403    7.0092    0.6524 H   0  0  0  0  0  0  0  0  0  0  0  0
    5.7784    7.7380    2.0501 H   0  0  0  0  0  0  0  0  0  0  0  0
    4.1941    8.4469    2.3874 H   0  0  0  0  0  0  0  0  0  0  0  0
    5.5681    9.9591    0.9757 H   0  0  0  0  0  0  0  0  0  0  0  0
    5.7238    8.7068   -0.2670 H   0  0  0  0  0  0  0  0  0  0  0  0
    4.1354    9.4205    0.0804 H   0  0  0  0  0  0  0  0  0  0  0  0
  2  1  1  0  0  0  0 
  2  3  1  0  0  0  0 
  2  4  1  0  0  0  0 
  3  5  1  0  0  0  0 
  3  6  1  0  0  0  0 
  4  7  1  0  0  0  0 
  4  8  1  0  0  0  0 
  8  5  1  0  0  0  0 
  6  9  1  0  0  0  0 
  6 10  1  0  0  0  0 
  8 11  1  0  0  0  0 
  9 12  2  0  0  0  0 
  9 13  1  0  0  0  0 
 10 14  2  0  0  0  0 
 13 15  2  0  0  0  0 
 14 15  1  0  0  0  0 
 14 16  1  0  0  0  0 
 15 17  1  0  0  0  0 
 17 18  1  0  0  0  0 
 18 19  1  0  0  0  0 
 18 20  2  0  0  0  0 
 19 21  1  0  0  0  0 
 21 22  1  0  0  0  0 
 22 23  1  0  0  0  0 
 23 24  1  0  0  0  0 
 24 25  1  0  0  0  0 
 26  1  1  0  0  0  0 
  2 27  1  0  0  0  0 
  3 28  1  0  0  0  0 
  4 29  1  0  0  0  0 
 30  7  1  0  0  0  0 
  8 31  1  0  0  0  0 
 32 10  1  0  0  0  0 
 33 11  1  0  0  0  0 
 34 11  1  0  0  0  0 
 35 11  1  0  0  0  0 
 36 17  1  0  0  0  0 
 37 21  1  0  0  0  0 
 38 21  1  0  0  0  0 
 39 22  1  0  0  0  0 
 40 22  1  0  0  0  0 
 41 23  1  0  0  0  0 
 42 23  1  0  0  0  0 
 43 24  1  0  0  0  0 
 44 24  1  0  0  0  0 
 45 25  1  0  0  0  0 
 46 25  1  0  0  0  0 
 47 25  1  0  0  0  0 
M  END
> <cdk:Title>
capecitabine

> <Conformer>
1

> <SuperDrugID>
SD000415

$$$$
