pentamethonium bromide
  CDK     0628171801

 41 40  0  0  0  0  0  0  0  0999 V2000
    0.5670   -0.5643    0.1995 C   0  0  1  0  0  0  0  0  0  0  0  0
    1.6115    0.4668   -0.2156 N   0  0  2  0  0  0  0  0  0  0  0  0
   -0.8414   -0.5082   -0.4761 C   0  0  2  0  0  0  0  0  0  0  0  0
    2.8626    0.2375    0.6071 C   0  0  0  0  0  0  0  0  0  0  0  0
    1.1255    1.8742    0.0455 C   0  0  0  0  0  0  0  0  0  0  0  0
    1.9802    0.3277   -1.6745 C   0  0  0  0  0  0  0  0  0  0  0  0
   -1.8561   -1.5788    0.0204 C   0  0  1  0  0  0  0  0  0  0  0  0
   -2.3354   -1.3959    1.4898 C   0  0  2  0  0  0  0  0  0  0  0  0
   -3.4801   -2.3794    1.8865 C   0  0  1  0  0  0  0  0  0  0  0  0
   -3.9780   -2.3795    3.3262 N   0  0  2  0  0  0  0  0  0  0  0  0
   -5.0535   -3.4402    3.4510 C   0  0  0  0  0  0  0  0  0  0  0  0
   -4.5813   -1.0488    3.7077 C   0  0  0  0  0  0  0  0  0  0  0  0
   -2.8671   -2.7129    4.2944 C   0  0  0  0  0  0  0  0  0  0  0  0
    0.9631   -1.5703    0.0216 H   0  0  0  0  0  0  0  0  0  0  0  0
    0.4100   -0.4809    1.2774 H   0  0  0  0  0  0  0  0  0  0  0  0
   -0.7178   -0.6502   -1.5517 H   0  0  0  0  0  0  0  0  0  0  0  0
   -1.2908    0.4739   -0.3228 H   0  0  0  0  0  0  0  0  0  0  0  0
    3.2622   -0.7685    0.4556 H   0  0  0  0  0  0  0  0  0  0  0  0
    2.6670    0.3549    1.6765 H   0  0  0  0  0  0  0  0  0  0  0  0
    3.6568    0.9432    0.3454 H   0  0  0  0  0  0  0  0  0  0  0  0
    0.7794    1.9908    1.0764 H   0  0  0  0  0  0  0  0  0  0  0  0
    1.9142    2.6128   -0.1219 H   0  0  0  0  0  0  0  0  0  0  0  0
    0.2993    2.1470   -0.6139 H   0  0  0  0  0  0  0  0  0  0  0  0
    2.7854    1.0136   -1.9525 H   0  0  0  0  0  0  0  0  0  0  0  0
    2.3181   -0.6865   -1.9047 H   0  0  0  0  0  0  0  0  0  0  0  0
    1.1378    0.5534   -2.3301 H   0  0  0  0  0  0  0  0  0  0  0  0
   -2.7296   -1.5314   -0.6350 H   0  0  0  0  0  0  0  0  0  0  0  0
   -1.4152   -2.5716   -0.0988 H   0  0  0  0  0  0  0  0  0  0  0  0
   -2.6842   -0.3693    1.6195 H   0  0  0  0  0  0  0  0  0  0  0  0
   -1.4832   -1.5548    2.1498 H   0  0  0  0  0  0  0  0  0  0  0  0
   -4.3209   -2.1647    1.2189 H   0  0  0  0  0  0  0  0  0  0  0  0
   -3.1316   -3.3857    1.6305 H   0  0  0  0  0  0  0  0  0  0  0  0
   -5.4682   -3.4878    4.4627 H   0  0  0  0  0  0  0  0  0  0  0  0
   -5.8880   -3.2481    2.7698 H   0  0  0  0  0  0  0  0  0  0  0  0
   -4.6637   -4.4354    3.2160 H   0  0  0  0  0  0  0  0  0  0  0  0
   -3.8343   -0.2525    3.7117 H   0  0  0  0  0  0  0  0  0  0  0  0
   -5.0191   -1.0759    4.7099 H   0  0  0  0  0  0  0  0  0  0  0  0
   -5.3728   -0.7531    3.0144 H   0  0  0  0  0  0  0  0  0  0  0  0
   -2.1256   -1.9136    4.3509 H   0  0  0  0  0  0  0  0  0  0  0  0
   -2.3448   -3.6276    4.0023 H   0  0  0  0  0  0  0  0  0  0  0  0
   -3.2438   -2.8601    5.3107 H   0  0  0  0  0  0  0  0  0  0  0  0
  1  2  1  0  0  0  0 
  1  3  1  0  0  0  0 
  2  4  1  0  0  0  0 
  2  5  1  0  0  0  0 
  2  6  1  0  0  0  0 
  3  7  1  0  0  0  0 
  7  8  1  0  0  0  0 
  8  9  1  0  0  0  0 
  9 10  1  0  0  0  0 
 10 11  1  0  0  0  0 
 10 12  1  0  0  0  0 
 10 13  1  0  0  0  0 
  1 14  1  0  0  0  0 
  1 15  1  0  0  0  0 
  3 16  1  0  0  0  0 
  3 17  1  0  0  0  0 
  4 18  1  0  0  0  0 
  4 19  1  0  0  0  0 
  4 20  1  0  0  0  0 
  5 21  1  0  0  0  0 
  5 22  1  0  0  0  0 
  5 23  1  0  0  0  0 
  6 24  1  0  0  0  0 
  6 25  1  0  0  0  0 
  6 26  1  0  0  0  0 
  7 27  1  0  0  0  0 
  7 28  1  0  0  0  0 
  8 29  1  0  0  0  0 
  8 30  1  0  0  0  0 
  9 31  1  0  0  0  0 
  9 32  1  0  0  0  0 
 11 33  1  0  0  0  0 
 11 34  1  0  0  0  0 
 11 35  1  0  0  0  0 
 12 36  1  0  0  0  0 
 12 37  1  0  0  0  0 
 12 38  1  0  0  0  0 
 13 39  1  0  0  0  0 
 13 40  1  0  0  0  0 
 13 41  1  0  0  0  0 
M  CHG  1   2   1
M  CHG  1  10   1
M  END
> <cdk:Title>
pentamethonium bromide

> <Conformer>
1

> <SuperDrugID>
SD003247

$$$$
