mianserin
  CDK     0628171801

 40 43  0  0  0  0  0  0  0  0999 V2000
    1.6025   -0.2713   -0.0353 C   0  0  0  0  0  0  0  0  0  0  0  0
    0.1480   -0.2458    0.2888 N   0  0  1  0  0  0  0  0  0  0  0  0
   -0.5394   -1.5610    0.1106 C   0  0  2  0  0  0  0  0  0  0  0  0
   -0.1341    0.3563    1.6213 C   0  0  1  0  0  0  0  0  0  0  0  0
   -2.0769   -1.4433    0.3826 C   0  0  2  0  0  0  0  0  0  0  0  0
   -1.6577    0.5241    1.8194 C   0  0  2  0  0  0  0  0  0  0  0  0
   -2.3495   -0.7437    1.6426 N   0  0  0  0  0  0  0  0  0  0  0  0
   -2.7201   -2.7847    0.1443 C   0  0  0  0  0  0  0  0  0  0  0  0
   -3.2082   -1.1982    2.6444 C   0  0  0  0  0  0  0  0  0  0  0  0
   -2.7543   -3.8045    1.1412 C   0  0  0  0  0  0  0  0  0  0  0  0
   -3.2773   -3.0661   -1.1305 C   0  0  0  0  0  0  0  0  0  0  0  0
   -3.1637   -2.5352    3.1385 C   0  0  0  0  0  0  0  0  0  0  0  0
   -4.1545   -0.3090    3.2201 C   0  0  0  0  0  0  0  0  0  0  0  0
   -2.2626   -3.5392    2.5216 C   0  0  1  0  0  0  0  0  0  0  0  0
   -3.3230   -5.0646    0.8299 C   0  0  0  0  0  0  0  0  0  0  0  0
   -3.8448   -4.3174   -1.4219 C   0  0  0  0  0  0  0  0  0  0  0  0
   -4.0143   -2.9253    4.2032 C   0  0  0  0  0  0  0  0  0  0  0  0
   -4.9971   -0.7090    4.2718 C   0  0  0  0  0  0  0  0  0  0  0  0
   -3.8665   -5.3180   -0.4406 C   0  0  0  0  0  0  0  0  0  0  0  0
   -4.9259   -2.0185    4.7656 C   0  0  0  0  0  0  0  0  0  0  0  0
   -2.4494   -0.7595   -0.3898 H   0  0  0  0  0  0  0  0  0  0  0  0
    1.7599   -0.6454   -1.0472 H   0  0  0  0  0  0  0  0  0  0  0  0
    2.0079    0.7419    0.0024 H   0  0  0  0  0  0  0  0  0  0  0  0
    2.1640   -0.8953    0.6643 H   0  0  0  0  0  0  0  0  0  0  0  0
   -0.0856   -2.3079    0.7671 H   0  0  0  0  0  0  0  0  0  0  0  0
   -0.3905   -1.8979   -0.9201 H   0  0  0  0  0  0  0  0  0  0  0  0
    0.2648   -0.2766    2.4210 H   0  0  0  0  0  0  0  0  0  0  0  0
    0.3354    1.3405    1.6942 H   0  0  0  0  0  0  0  0  0  0  0  0
   -2.0431    1.2483    1.0946 H   0  0  0  0  0  0  0  0  0  0  0  0
   -1.8008    0.9523    2.8147 H   0  0  0  0  0  0  0  0  0  0  0  0
   -3.2668   -2.3627   -1.8734 H   0  0  0  0  0  0  0  0  0  0  0  0
   -4.2388    0.6509    2.8786 H   0  0  0  0  0  0  0  0  0  0  0  0
   -2.2329   -4.4594    3.1111 H   0  0  0  0  0  0  0  0  0  0  0  0
   -1.2390   -3.1666    2.5176 H   0  0  0  0  0  0  0  0  0  0  0  0
   -3.3575   -5.8058    1.5342 H   0  0  0  0  0  0  0  0  0  0  0  0
   -4.2365   -4.5025   -2.3486 H   0  0  0  0  0  0  0  0  0  0  0  0
   -3.9873   -3.8794    4.5733 H   0  0  0  0  0  0  0  0  0  0  0  0
   -5.6649   -0.0490    4.6789 H   0  0  0  0  0  0  0  0  0  0  0  0
   -4.2829   -6.2282   -0.6476 H   0  0  0  0  0  0  0  0  0  0  0  0
   -5.5417   -2.3131    5.5279 H   0  0  0  0  0  0  0  0  0  0  0  0
  1  2  1  0  0  0  0 
  2  3  1  0  0  0  0 
  2  4  1  0  0  0  0 
  5  3  1  0  0  0  0 
  4  6  1  0  0  0  0 
  5  7  1  0  0  0  0 
  5  8  1  0  0  0  0 
  6  7  1  0  0  0  0 
  7  9  1  0  0  0  0 
  8 10  2  0  0  0  0 
  8 11  1  0  0  0  0 
  9 12  2  0  0  0  0 
  9 13  1  0  0  0  0 
 10 14  1  0  0  0  0 
 10 15  1  0  0  0  0 
 11 16  2  0  0  0  0 
 12 14  1  0  0  0  0 
 12 17  1  0  0  0  0 
 13 18  2  0  0  0  0 
 15 19  2  0  0  0  0 
 16 19  1  0  0  0  0 
 17 20  2  0  0  0  0 
 18 20  1  0  0  0  0 
  5 21  1  0  0  0  0 
  1 22  1  0  0  0  0 
  1 23  1  0  0  0  0 
  1 24  1  0  0  0  0 
  3 25  1  0  0  0  0 
  3 26  1  0  0  0  0 
  4 27  1  0  0  0  0 
  4 28  1  0  0  0  0 
  6 29  1  0  0  0  0 
  6 30  1  0  0  0  0 
 11 31  1  0  0  0  0 
 13 32  1  0  0  0  0 
 14 33  1  0  0  0  0 
 14 34  1  0  0  0  0 
 15 35  1  0  0  0  0 
 16 36  1  0  0  0  0 
 17 37  1  0  0  0  0 
 18 38  1  0  0  0  0 
 19 39  1  0  0  0  0 
 20 40  1  0  0  0  0 
M  END
> <cdk:Title>
mianserin

> <Conformer>
1

> <SuperDrugID>
SD001596

$$$$
