allylestrenol
  CDK     0628171801

 54 57  0  0  0  0  0  0  0  0999 V2000
    1.6175   -2.0941    3.9070 C   0  0  0  0  0  0  0  0  0  0  0  0
    0.9934   -1.9650    2.4546 C   0  0  2  0  0  0  0  0  0  0  0  0
    0.5488   -3.3309    1.8319 C   0  0  2  0  0  0  0  0  0  0  0  0
    2.1294   -1.5148    1.4379 C   0  0  1  0  0  0  0  0  0  0  0  0
   -0.2947   -1.0704    2.5521 C   0  0  2  0  0  0  0  0  0  0  0  0
   -0.5358   -4.0807    2.6777 C   0  0  1  0  0  0  0  0  0  0  0  0
    1.8855   -4.0294    1.4970 C   0  0  1  0  0  0  0  0  0  0  0  0
    1.6253   -0.8087    0.1219 C   0  0  2  0  0  0  0  0  0  0  0  0
    3.0326   -0.5808    2.0526 O   0  0  0  0  0  0  0  0  0  0  0  0
    2.8663   -2.8733    1.1595 C   0  0  2  0  0  0  0  0  0  0  0  0
   -1.4630   -1.7443    3.3371 C   0  0  2  0  0  0  0  0  0  0  0  0
   -1.8311   -3.1797    2.8155 C   0  0  2  0  0  0  0  0  0  0  0  0
   -0.9212   -5.4713    2.0894 C   0  0  1  0  0  0  0  0  0  0  0  0
    2.6684   -0.4055   -0.8162 C   0  0  0  0  0  0  0  0  0  0  0  0
   -2.9270   -3.9316    3.6734 C   0  0  2  0  0  0  0  0  0  0  0  0
   -2.0110   -6.1560    2.9561 C   0  0  2  0  0  0  0  0  0  0  0  0
    3.0169   -1.1121   -1.8990 C   0  0  0  0  0  0  0  0  0  0  0  0
   -3.1742   -5.2716    3.0807 C   0  0  0  0  0  0  0  0  0  0  0  0
   -4.2601   -3.1476    3.9536 C   0  0  1  0  0  0  0  0  0  0  0  0
   -4.3835   -5.6677    2.6186 C   0  0  0  0  0  0  0  0  0  0  0  0
   -5.2959   -3.3339    2.8212 C   0  0  2  0  0  0  0  0  0  0  0  0
   -5.5826   -4.8429    2.6320 C   0  0  2  0  0  0  0  0  0  0  0  0
   -0.1257   -4.2816    3.6705 H   0  0  0  0  0  0  0  0  0  0  0  0
   -2.2536   -3.0443    1.8119 H   0  0  0  0  0  0  0  0  0  0  0  0
    0.0645   -3.1533    0.8638 H   0  0  0  0  0  0  0  0  0  0  0  0
   -2.4885   -4.0936    4.6651 H   0  0  0  0  0  0  0  0  0  0  0  0
    2.5418   -2.6751    3.9106 H   0  0  0  0  0  0  0  0  0  0  0  0
    1.8496   -1.1030    4.3027 H   0  0  0  0  0  0  0  0  0  0  0  0
    0.9485   -2.5697    4.6210 H   0  0  0  0  0  0  0  0  0  0  0  0
   -0.6825   -0.8451    1.5551 H   0  0  0  0  0  0  0  0  0  0  0  0
   -0.0436   -0.1151    3.0213 H   0  0  0  0  0  0  0  0  0  0  0  0
    2.2444   -4.6051    2.3552 H   0  0  0  0  0  0  0  0  0  0  0  0
    1.7771   -4.7059    0.6437 H   0  0  0  0  0  0  0  0  0  0  0  0
    1.1040    0.1119    0.3989 H   0  0  0  0  0  0  0  0  0  0  0  0
    0.8940   -1.4374   -0.3915 H   0  0  0  0  0  0  0  0  0  0  0  0
    3.7393   -0.4218    1.3918 H   0  0  0  0  0  0  0  0  0  0  0  0
    3.7558   -2.9570    1.7903 H   0  0  0  0  0  0  0  0  0  0  0  0
    3.2095   -2.9675    0.1290 H   0  0  0  0  0  0  0  0  0  0  0  0
   -2.3219   -1.0781    3.2314 H   0  0  0  0  0  0  0  0  0  0  0  0
   -1.2214   -1.7933    4.4011 H   0  0  0  0  0  0  0  0  0  0  0  0
   -1.2940   -5.3546    1.0664 H   0  0  0  0  0  0  0  0  0  0  0  0
   -0.0433   -6.1207    2.0565 H   0  0  0  0  0  0  0  0  0  0  0  0
    3.1480    0.4504   -0.6474 H   0  0  0  0  0  0  0  0  0  0  0  0
   -1.6153   -6.3652    3.9547 H   0  0  0  0  0  0  0  0  0  0  0  0
   -2.2555   -7.1208    2.5008 H   0  0  0  0  0  0  0  0  0  0  0  0
    2.5816   -1.9775   -2.1110 H   0  0  0  0  0  0  0  0  0  0  0  0
    3.7284   -0.7811   -2.5050 H   0  0  0  0  0  0  0  0  0  0  0  0
   -4.7038   -3.5346    4.8787 H   0  0  0  0  0  0  0  0  0  0  0  0
   -4.0939   -2.0845    4.1182 H   0  0  0  0  0  0  0  0  0  0  0  0
   -4.4872   -6.5796    2.2328 H   0  0  0  0  0  0  0  0  0  0  0  0
   -4.9055   -2.9096    1.8910 H   0  0  0  0  0  0  0  0  0  0  0  0
   -6.2232   -2.8096    3.0745 H   0  0  0  0  0  0  0  0  0  0  0  0
   -6.2309   -5.1945    3.4406 H   0  0  0  0  0  0  0  0  0  0  0  0
   -6.1207   -4.9727    1.6891 H   0  0  0  0  0  0  0  0  0  0  0  0
  2  1  1  0  0  0  0 
  3  2  1  0  0  0  0 
  2  4  1  0  0  0  0 
  2  5  1  0  0  0  0 
  6  3  1  0  0  0  0 
  3  7  1  0  0  0  0 
  3 25  1  0  0  0  0 
  4  8  1  0  0  0  0 
  4  9  1  0  0  0  0 
  4 10  1  0  0  0  0 
  5 11  1  0  0  0  0 
 12  6  1  0  0  0  0 
  6 13  1  0  0  0  0 
  6 23  1  0  0  0  0 
  7 10  1  0  0  0  0 
  8 14  1  0  0  0  0 
 12 11  1  0  0  0  0 
 15 12  1  0  0  0  0 
 12 24  1  0  0  0  0 
 13 16  1  0  0  0  0 
 14 17  2  0  0  0  0 
 15 18  1  0  0  0  0 
 15 19  1  0  0  0  0 
 15 26  1  0  0  0  0 
 16 18  1  0  0  0  0 
 18 20  2  0  0  0  0 
 19 21  1  0  0  0  0 
 20 22  1  0  0  0  0 
 21 22  1  0  0  0  0 
  1 27  1  0  0  0  0 
  1 28  1  0  0  0  0 
  1 29  1  0  0  0  0 
  5 30  1  0  0  0  0 
  5 31  1  0  0  0  0 
  7 32  1  0  0  0  0 
  7 33  1  0  0  0  0 
  8 34  1  0  0  0  0 
  8 35  1  0  0  0  0 
  9 36  1  0  0  0  0 
 10 37  1  0  0  0  0 
 10 38  1  0  0  0  0 
 11 39  1  0  0  0  0 
 11 40  1  0  0  0  0 
 13 41  1  0  0  0  0 
 13 42  1  0  0  0  0 
 14 43  1  0  0  0  0 
 16 44  1  0  0  0  0 
 16 45  1  0  0  0  0 
 17 46  1  0  0  0  0 
 17 47  1  0  0  0  0 
 19 48  1  0  0  0  0 
 19 49  1  0  0  0  0 
 20 50  1  0  0  0  0 
 21 51  1  0  0  0  0 
 21 52  1  0  0  0  0 
 22 53  1  0  0  0  0 
 22 54  1  0  0  0  0 
M  END
> <cdk:Title>
allylestrenol

> <Conformer>
1

> <SuperDrugID>
SD000095

$$$$
