benzilonium
  CDK     0628171801

 54 56  0  0  0  0  0  0  0  0999 V2000
    4.5040   -4.0134   -1.4641 C   0  0  1  0  0  0  0  0  0  0  0  0
    3.8886   -2.8990   -0.6769 C   0  0  0  0  0  0  0  0  0  0  0  0
    5.7401   -4.3313   -0.7935 O   0  0  0  0  0  0  0  0  0  0  0  0
    3.5179   -5.1572   -1.3796 C   0  0  0  0  0  0  0  0  0  0  0  0
    4.9275   -3.7093   -2.8805 C   0  0  0  0  0  0  0  0  0  0  0  0
    2.6861   -2.3471   -1.0453 O   0  0  0  0  0  0  0  0  0  0  0  0
    4.4556   -2.4826    0.3622 O   0  0  0  0  0  0  0  0  0  0  0  0
    2.3714   -5.2075   -2.2182 C   0  0  0  0  0  0  0  0  0  0  0  0
    3.6688   -6.1988   -0.4256 C   0  0  0  0  0  0  0  0  0  0  0  0
    5.5665   -4.7290   -3.6358 C   0  0  0  0  0  0  0  0  0  0  0  0
    4.7467   -2.4497   -3.5124 C   0  0  0  0  0  0  0  0  0  0  0  0
    1.6712   -1.7895   -0.1818 C   0  0  2  0  0  0  0  0  0  0  0  0
    1.4287   -6.2495   -2.1166 C   0  0  0  0  0  0  0  0  0  0  0  0
    2.7291   -7.2421   -0.3208 C   0  0  0  0  0  0  0  0  0  0  0  0
    6.0064   -4.5038   -4.9519 C   0  0  0  0  0  0  0  0  0  0  0  0
    5.1819   -2.2243   -4.8339 C   0  0  0  0  0  0  0  0  0  0  0  0
    0.7337   -0.7955   -0.8972 C   0  0  2  0  0  0  0  0  0  0  0  0
    2.1366   -0.9201    0.9926 C   0  0  1  0  0  0  0  0  0  0  0  0
    1.6064   -7.2673   -1.1642 C   0  0  0  0  0  0  0  0  0  0  0  0
    5.8189   -3.2488   -5.5526 C   0  0  0  0  0  0  0  0  0  0  0  0
   -0.0334   -0.0353    0.1778 N   0  0  1  0  0  0  0  0  0  0  0  0
    0.8552   -0.1787    1.4074 C   0  0  1  0  0  0  0  0  0  0  0  0
   -0.1734    1.4385   -0.1822 C   0  0  1  0  0  0  0  0  0  0  0  0
   -1.3877   -0.7053    0.4004 C   0  0  2  0  0  0  0  0  0  0  0  0
   -1.0096    1.7926   -1.4385 C   0  0  0  0  0  0  0  0  0  0  0  0
   -2.3417   -0.0805    1.4537 C   0  0  0  0  0  0  0  0  0  0  0  0
    6.1185   -5.1041   -1.2584 H   0  0  0  0  0  0  0  0  0  0  0  0
    2.2070   -4.4762   -2.9137 H   0  0  0  0  0  0  0  0  0  0  0  0
    4.4631   -6.2017    0.2167 H   0  0  0  0  0  0  0  0  0  0  0  0
    5.7276   -5.6533   -3.2242 H   0  0  0  0  0  0  0  0  0  0  0  0
    4.3037   -1.6717   -3.0241 H   0  0  0  0  0  0  0  0  0  0  0  0
    1.0862   -2.6343    0.1977 H   0  0  0  0  0  0  0  0  0  0  0  0
    0.6103   -6.2661   -2.7335 H   0  0  0  0  0  0  0  0  0  0  0  0
    2.8585   -7.9815    0.3733 H   0  0  0  0  0  0  0  0  0  0  0  0
    6.4665   -5.2547   -5.4690 H   0  0  0  0  0  0  0  0  0  0  0  0
    5.0375   -1.3110   -5.2719 H   0  0  0  0  0  0  0  0  0  0  0  0
    0.0900   -1.3327   -1.6021 H   0  0  0  0  0  0  0  0  0  0  0  0
    1.3634   -0.1304   -1.5039 H   0  0  0  0  0  0  0  0  0  0  0  0
    2.5316   -1.5251    1.8121 H   0  0  0  0  0  0  0  0  0  0  0  0
    2.9032   -0.2111    0.6630 H   0  0  0  0  0  0  0  0  0  0  0  0
    0.9189   -8.0211   -1.0818 H   0  0  0  0  0  0  0  0  0  0  0  0
    6.1476   -3.0795   -6.5065 H   0  0  0  0  0  0  0  0  0  0  0  0
    0.3846   -0.7664    2.2030 H   0  0  0  0  0  0  0  0  0  0  0  0
    1.1428    0.7705    1.8691 H   0  0  0  0  0  0  0  0  0  0  0  0
   -0.6055    1.9879    0.6599 H   0  0  0  0  0  0  0  0  0  0  0  0
    0.8191    1.8753   -0.3367 H   0  0  0  0  0  0  0  0  0  0  0  0
   -1.2394   -1.7495    0.6955 H   0  0  0  0  0  0  0  0  0  0  0  0
   -1.9457   -0.7402   -0.5393 H   0  0  0  0  0  0  0  0  0  0  0  0
   -0.9052    2.8577   -1.6582 H   0  0  0  0  0  0  0  0  0  0  0  0
   -0.6677    1.2304   -2.3072 H   0  0  0  0  0  0  0  0  0  0  0  0
   -2.0666    1.5830   -1.2739 H   0  0  0  0  0  0  0  0  0  0  0  0
   -3.2184   -0.7195    1.5802 H   0  0  0  0  0  0  0  0  0  0  0  0
   -1.8507    0.0205    2.4219 H   0  0  0  0  0  0  0  0  0  0  0  0
   -2.6878    0.9019    1.1297 H   0  0  0  0  0  0  0  0  0  0  0  0
  1  2  1  0  0  0  0 
  1  3  1  0  0  0  0 
  1  4  1  0  0  0  0 
  1  5  1  0  0  0  0 
  2  6  1  0  0  0  0 
  2  7  2  0  0  0  0 
  4  8  2  0  0  0  0 
  4  9  1  0  0  0  0 
  5 10  2  0  0  0  0 
  5 11  1  0  0  0  0 
  6 12  1  0  0  0  0 
  8 13  1  0  0  0  0 
  9 14  2  0  0  0  0 
 10 15  1  0  0  0  0 
 11 16  2  0  0  0  0 
 12 17  1  0  0  0  0 
 12 18  1  0  0  0  0 
 13 19  2  0  0  0  0 
 14 19  1  0  0  0  0 
 15 20  2  0  0  0  0 
 16 20  1  0  0  0  0 
 17 21  1  0  0  0  0 
 18 22  1  0  0  0  0 
 21 22  1  0  0  0  0 
 21 23  1  0  0  0  0 
 21 24  1  0  0  0  0 
 23 25  1  0  0  0  0 
 24 26  1  0  0  0  0 
  3 27  1  0  0  0  0 
  8 28  1  0  0  0  0 
  9 29  1  0  0  0  0 
 10 30  1  0  0  0  0 
 11 31  1  0  0  0  0 
 12 32  1  0  0  0  0 
 13 33  1  0  0  0  0 
 14 34  1  0  0  0  0 
 15 35  1  0  0  0  0 
 16 36  1  0  0  0  0 
 17 37  1  0  0  0  0 
 17 38  1  0  0  0  0 
 18 39  1  0  0  0  0 
 18 40  1  0  0  0  0 
 19 41  1  0  0  0  0 
 20 42  1  0  0  0  0 
 22 43  1  0  0  0  0 
 22 44  1  0  0  0  0 
 23 45  1  0  0  0  0 
 23 46  1  0  0  0  0 
 24 47  1  0  0  0  0 
 24 48  1  0  0  0  0 
 25 49  1  0  0  0  0 
 25 50  1  0  0  0  0 
 25 51  1  0  0  0  0 
 26 52  1  0  0  0  0 
 26 53  1  0  0  0  0 
 26 54  1  0  0  0  0 
M  CHG  1  21   1
M  END
> <cdk:Title>
benzilonium

> <Conformer>
1

> <SuperDrugID>
SD000269

$$$$
