pentetic acid
  CDK     0628171801

 50 49  0  0  0  0  0  0  0  0999 V2000
    1.5430    0.6445    1.4776 N   0  0  1  0  0  0  0  0  0  0  0  0
    0.7356    0.6313    2.7462 C   0  0  1  0  0  0  0  0  0  0  0  0
    1.7018    1.9984    0.8476 C   0  0  1  0  0  0  0  0  0  0  0  0
    2.8179   -0.1433    1.5194 C   0  0  2  0  0  0  0  0  0  0  0  0
   -0.7804    0.5492    2.4260 C   0  0  2  0  0  0  0  0  0  0  0  0
    1.5463    1.9357   -0.6935 C   0  0  1  0  0  0  0  0  0  0  0  0
    2.5799   -1.5927    1.6346 C   0  0  0  0  0  0  0  0  0  0  0  0
   -1.6351    0.5940    3.6656 N   0  0  2  0  0  0  0  0  0  0  0  0
    1.8607    3.2803   -1.2997 N   0  0  1  0  0  0  0  0  0  0  0  0
    3.0850   -2.2899    2.6785 O   0  0  0  0  0  0  0  0  0  0  0  0
    1.9084   -2.1976    0.7680 O   0  0  0  0  0  0  0  0  0  0  0  0
   -1.7998   -0.7426    4.3287 C   0  0  2  0  0  0  0  0  0  0  0  0
   -2.9273    1.3358    3.4792 C   0  0  2  0  0  0  0  0  0  0  0  0
    2.9833    3.2906   -2.2932 C   0  0  1  0  0  0  0  0  0  0  0  0
    0.6621    4.0656   -1.7450 C   0  0  1  0  0  0  0  0  0  0  0  0
   -2.1874   -0.6362    5.7476 C   0  0  0  0  0  0  0  0  0  0  0  0
   -2.6956    2.7881    3.3734 C   0  0  0  0  0  0  0  0  0  0  0  0
    4.2699    2.8889   -1.6923 C   0  0  0  0  0  0  0  0  0  0  0  0
   -0.2148    4.4369   -0.6201 C   0  0  0  0  0  0  0  0  0  0  0  0
   -1.4192    0.0533    6.6222 O   0  0  0  0  0  0  0  0  0  0  0  0
   -3.2267   -1.1895    6.1721 O   0  0  0  0  0  0  0  0  0  0  0  0
   -2.0708    3.4465    4.3776 O   0  0  0  0  0  0  0  0  0  0  0  0
   -3.0626    3.4285    2.3624 O   0  0  0  0  0  0  0  0  0  0  0  0
    4.7804    3.5887   -0.6534 O   0  0  0  0  0  0  0  0  0  0  0  0
    4.9076    1.9049   -2.1313 O   0  0  0  0  0  0  0  0  0  0  0  0
   -1.4777    3.9602   -0.5386 O   0  0  0  0  0  0  0  0  0  0  0  0
    0.2085    5.1902    0.2867 O   0  0  0  0  0  0  0  0  0  0  0  0
    0.9955   -0.2272    3.3671 H   0  0  0  0  0  0  0  0  0  0  0  0
    0.9411    1.5237    3.3460 H   0  0  0  0  0  0  0  0  0  0  0  0
    0.9508    2.6942    1.2248 H   0  0  0  0  0  0  0  0  0  0  0  0
    2.6743    2.4283    1.1048 H   0  0  0  0  0  0  0  0  0  0  0  0
    3.4351    0.2072    2.3511 H   0  0  0  0  0  0  0  0  0  0  0  0
    3.3959   -0.0011    0.6036 H   0  0  0  0  0  0  0  0  0  0  0  0
   -0.9818   -0.3632    1.8558 H   0  0  0  0  0  0  0  0  0  0  0  0
   -1.0143    1.3830    1.7588 H   0  0  0  0  0  0  0  0  0  0  0  0
    2.2051    1.1598   -1.0883 H   0  0  0  0  0  0  0  0  0  0  0  0
    0.5291    1.6107   -0.9323 H   0  0  0  0  0  0  0  0  0  0  0  0
    2.9259   -3.2539    2.7535 H   0  0  0  0  0  0  0  0  0  0  0  0
   -0.8617   -1.2988    4.3188 H   0  0  0  0  0  0  0  0  0  0  0  0
   -2.5328   -1.3378    3.7766 H   0  0  0  0  0  0  0  0  0  0  0  0
   -3.5908    1.1999    4.3349 H   0  0  0  0  0  0  0  0  0  0  0  0
   -3.4559    0.9592    2.5967 H   0  0  0  0  0  0  0  0  0  0  0  0
    2.7349    2.6434   -3.1401 H   0  0  0  0  0  0  0  0  0  0  0  0
    3.1372    4.2995   -2.6855 H   0  0  0  0  0  0  0  0  0  0  0  0
    0.9653    5.0023   -2.2221 H   0  0  0  0  0  0  0  0  0  0  0  0
    0.1006    3.4906   -2.4877 H   0  0  0  0  0  0  0  0  0  0  0  0
   -1.6814    0.1128    7.5658 H   0  0  0  0  0  0  0  0  0  0  0  0
   -1.9028    4.4093    4.3051 H   0  0  0  0  0  0  0  0  0  0  0  0
    5.6375    3.3282   -0.2570 H   0  0  0  0  0  0  0  0  0  0  0  0
   -2.0443    4.1999    0.2238 H   0  0  0  0  0  0  0  0  0  0  0  0
  1  2  1  0  0  0  0 
  1  3  1  0  0  0  0 
  1  4  1  0  0  0  0 
  2  5  1  0  0  0  0 
  3  6  1  0  0  0  0 
  4  7  1  0  0  0  0 
  5  8  1  0  0  0  0 
  6  9  1  0  0  0  0 
  7 10  1  0  0  0  0 
  7 11  2  0  0  0  0 
  8 12  1  0  0  0  0 
  8 13  1  0  0  0  0 
  9 14  1  0  0  0  0 
  9 15  1  0  0  0  0 
 12 16  1  0  0  0  0 
 13 17  1  0  0  0  0 
 14 18  1  0  0  0  0 
 15 19  1  0  0  0  0 
 16 20  1  0  0  0  0 
 16 21  2  0  0  0  0 
 17 22  1  0  0  0  0 
 17 23  2  0  0  0  0 
 18 24  1  0  0  0  0 
 18 25  2  0  0  0  0 
 19 26  1  0  0  0  0 
 19 27  2  0  0  0  0 
  2 28  1  0  0  0  0 
  2 29  1  0  0  0  0 
  3 30  1  0  0  0  0 
  3 31  1  0  0  0  0 
  4 32  1  0  0  0  0 
  4 33  1  0  0  0  0 
  5 34  1  0  0  0  0 
  5 35  1  0  0  0  0 
  6 36  1  0  0  0  0 
  6 37  1  0  0  0  0 
 10 38  1  0  0  0  0 
 12 39  1  0  0  0  0 
 12 40  1  0  0  0  0 
 13 41  1  0  0  0  0 
 13 42  1  0  0  0  0 
 14 43  1  0  0  0  0 
 14 44  1  0  0  0  0 
 15 45  1  0  0  0  0 
 15 46  1  0  0  0  0 
 20 47  1  0  0  0  0 
 22 48  1  0  0  0  0 
 24 49  1  0  0  0  0 
 26 50  1  0  0  0  0 
M  END
> <cdk:Title>
pentetic acid

> <Conformer>
1

> <SuperDrugID>
SD001875

$$$$
