clodronic acid
  CDK     0628171802

 15 14  0  0  0  0  0  0  0  0999 V2000
   -0.7012    0.9721    0.9531 C   0  0  1  0  0  0  0  0  0  0  0  0
   -0.5544    0.9347   -0.7583 P   0  0  1  0  0  0  0  0  0  0  0  0
    0.0152   -0.3883    1.7197 P   0  0  1  0  0  0  0  0  0  0  0  0
    0.0562    2.4363    1.5732 Cl  0  0  0  0  0  0  0  0  0  0  0  0
   -2.4098    1.0481    1.3739 Cl  0  0  0  0  0  0  0  0  0  0  0  0
   -1.2143   -0.2419   -1.3409 O   0  0  0  0  0  0  0  0  0  0  0  0
   -1.2040    2.2443   -1.3860 O   0  0  0  0  0  0  0  0  0  0  0  0
    0.9794    0.9321   -1.1765 O   0  0  0  0  0  0  0  0  0  0  0  0
    1.4564   -0.4770    1.4473 O   0  0  0  0  0  0  0  0  0  0  0  0
   -0.1997   -0.2980    3.2936 O   0  0  0  0  0  0  0  0  0  0  0  0
   -0.6905   -1.7267    1.2318 O   0  0  0  0  0  0  0  0  0  0  0  0
   -0.7010    2.9872   -0.9942 H   0  0  0  0  0  0  0  0  0  0  0  0
    1.3617    1.7193   -0.7349 H   0  0  0  0  0  0  0  0  0  0  0  0
   -1.1710   -0.2824    3.4143 H   0  0  0  0  0  0  0  0  0  0  0  0
   -1.6437   -1.5895    1.4148 H   0  0  0  0  0  0  0  0  0  0  0  0
  1  2  1  0  0  0  0 
  1  3  1  0  0  0  0 
  1  4  1  0  0  0  0 
  1  5  1  0  0  0  0 
  2  6  2  0  0  0  0 
  2  7  1  0  0  0  0 
  2  8  1  0  0  0  0 
  3  9  2  0  0  0  0 
  3 10  1  0  0  0  0 
  3 11  1  0  0  0  0 
  7 12  1  0  0  0  0 
  8 13  1  0  0  0  0 
 10 14  1  0  0  0  0 
 11 15  1  0  0  0  0 
M  END
> <cdk:Title>
clodronic acid

> <Conformer>
1

> <SuperDrugID>
SD000607

$$$$
