triamcinolone diacetate
  CDK     0628171801

 65 68  0  0  0  0  0  0  0  0999 V2000
   -3.4770    3.4007    5.6377 C   0  0  0  0  0  0  0  0  0  0  0  0
   -4.0772    4.2881    4.4771 C   0  0  2  0  0  0  0  0  0  0  0  0
   -3.0338    4.6966    3.3828 C   0  0  2  0  0  0  0  0  0  0  0  0
   -4.4578    5.7184    5.0501 C   0  0  2  0  0  0  0  0  0  0  0  0
   -5.2084    3.4864    3.7270 C   0  0  2  0  0  0  0  0  0  0  0  0
   -2.4053    3.4946    2.5922 C   0  0  1  0  0  0  0  0  0  0  0  0
   -2.1122    5.6982    4.0982 C   0  0  1  0  0  0  0  0  0  0  0  0
   -5.1314    5.7482    6.3998 C   0  0  0  0  0  0  0  0  0  0  0  0
   -5.3731    6.3698    4.1555 O   0  0  0  0  0  0  0  0  0  0  0  0
   -3.0855    6.5077    5.0001 C   0  0  1  0  0  0  0  0  0  0  0  0
   -4.6965    2.2971    2.8446 C   0  0  1  0  0  0  0  0  0  0  0  0
   -3.5425    2.6872    1.8378 C   0  0  1  0  0  0  0  0  0  0  0  0
   -1.2969    3.9601    1.5975 C   0  0  1  0  0  0  0  0  0  0  0  0
   -6.4946    5.2555    6.7081 C   0  0  2  0  0  0  0  0  0  0  0  0
   -4.5268    6.2003    7.4012 O   0  0  0  0  0  0  0  0  0  0  0  0
   -3.2703    7.8523    4.5144 O   0  0  0  0  0  0  0  0  0  0  0  0
   -4.3300    1.2174    3.6974 O   0  0  0  0  0  0  0  0  0  0  0  0
   -4.1493    3.5722    0.9525 F   0  0  0  0  0  0  0  0  0  0  0  0
   -2.9565    1.5099    0.9223 C   0  0  2  0  0  0  0  0  0  0  0  0
   -0.7630    2.8017    0.7196 C   0  0  2  0  0  0  0  0  0  0  0  0
   -7.2961    4.9311    5.5688 O   0  0  0  0  0  0  0  0  0  0  0  0
   -2.3456    8.8556    4.4638 C   0  0  0  0  0  0  0  0  0  0  0  0
   -2.3277    0.3083    1.7194 C   0  0  0  0  0  0  0  0  0  0  0  0
   -1.8765    2.1052    0.0637 C   0  0  0  0  0  0  0  0  0  0  0  0
   -4.0468    0.9052    0.1110 C   0  0  0  0  0  0  0  0  0  0  0  0
   -8.5421    4.3695    5.6115 C   0  0  0  0  0  0  0  0  0  0  0  0
   -2.7033   10.1462    3.8641 C   0  0  0  0  0  0  0  0  0  0  0  0
   -1.1927    8.7002    4.9291 O   0  0  0  0  0  0  0  0  0  0  0  0
   -1.9421    2.0595   -1.2877 C   0  0  0  0  0  0  0  0  0  0  0  0
   -4.0525    0.9044   -1.2324 C   0  0  0  0  0  0  0  0  0  0  0  0
   -9.2670    4.0992    4.3646 C   0  0  0  0  0  0  0  0  0  0  0  0
   -9.0818    4.0641    6.7012 O   0  0  0  0  0  0  0  0  0  0  0  0
   -3.0120    1.4722   -1.9418 C   0  0  0  0  0  0  0  0  0  0  0  0
   -3.0429    1.4658   -3.1948 O   0  0  0  0  0  0  0  0  0  0  0  0
   -2.7897    3.9668    6.2684 H   0  0  0  0  0  0  0  0  0  0  0  0
   -4.2749    3.0276    6.2815 H   0  0  0  0  0  0  0  0  0  0  0  0
   -2.9316    2.5347    5.2728 H   0  0  0  0  0  0  0  0  0  0  0  0
   -3.5422    5.3032    2.6206 H   0  0  0  0  0  0  0  0  0  0  0  0
   -5.7648    4.1577    3.0675 H   0  0  0  0  0  0  0  0  0  0  0  0
   -5.9282    3.0938    4.4477 H   0  0  0  0  0  0  0  0  0  0  0  0
   -1.9070    2.8361    3.3039 H   0  0  0  0  0  0  0  0  0  0  0  0
   -1.3607    5.1752    4.6976 H   0  0  0  0  0  0  0  0  0  0  0  0
   -1.5906    6.3372    3.3814 H   0  0  0  0  0  0  0  0  0  0  0  0
   -5.5045    7.2698    4.5185 H   0  0  0  0  0  0  0  0  0  0  0  0
   -2.6261    6.5775    5.9900 H   0  0  0  0  0  0  0  0  0  0  0  0
   -5.5579    1.9374    2.2739 H   0  0  0  0  0  0  0  0  0  0  0  0
   -1.6918    4.7448    0.9461 H   0  0  0  0  0  0  0  0  0  0  0  0
   -0.4553    4.3826    2.1529 H   0  0  0  0  0  0  0  0  0  0  0  0
   -7.0258    6.0236    7.2773 H   0  0  0  0  0  0  0  0  0  0  0  0
   -6.3991    4.3675    7.3383 H   0  0  0  0  0  0  0  0  0  0  0  0
   -5.1385    1.0115    4.2124 H   0  0  0  0  0  0  0  0  0  0  0  0
   -0.2001    2.0998    1.3384 H   0  0  0  0  0  0  0  0  0  0  0  0
   -0.0486    3.2227    0.0054 H   0  0  0  0  0  0  0  0  0  0  0  0
   -1.6525    0.6484    2.5027 H   0  0  0  0  0  0  0  0  0  0  0  0
   -1.7595   -0.3457    1.0529 H   0  0  0  0  0  0  0  0  0  0  0  0
   -3.0848   -0.3145    2.1978 H   0  0  0  0  0  0  0  0  0  0  0  0
   -4.8132    0.4701    0.5717 H   0  0  0  0  0  0  0  0  0  0  0  0
   -1.9753   10.4166    3.0981 H   0  0  0  0  0  0  0  0  0  0  0  0
   -3.6909   10.0963    3.4043 H   0  0  0  0  0  0  0  0  0  0  0  0
   -2.7111   10.9138    4.6383 H   0  0  0  0  0  0  0  0  0  0  0  0
   -1.2217    2.4639   -1.8429 H   0  0  0  0  0  0  0  0  0  0  0  0
   -4.8121    0.4887   -1.7223 H   0  0  0  0  0  0  0  0  0  0  0  0
  -10.2297    4.6130    4.3820 H   0  0  0  0  0  0  0  0  0  0  0  0
   -9.4341    3.0242    4.2691 H   0  0  0  0  0  0  0  0  0  0  0  0
   -8.6980    4.4477    3.5005 H   0  0  0  0  0  0  0  0  0  0  0  0
  2  1  1  0  0  0  0 
  3  2  1  0  0  0  0 
  2  4  1  0  0  0  0 
  2  5  1  0  0  0  0 
  6  3  1  0  0  0  0 
  3  7  1  0  0  0  0 
  4  8  1  0  0  0  0 
  4  9  1  0  0  0  0 
  4 10  1  0  0  0  0 
 11  5  1  0  0  0  0 
 12  6  1  0  0  0  0 
  6 13  1  0  0  0  0 
 10  7  1  0  0  0  0 
  8 14  1  0  0  0  0 
  8 15  2  0  0  0  0 
 10 16  1  0  0  0  0 
 12 11  1  0  0  0  0 
 11 17  1  0  0  0  0 
 12 18  1  0  0  0  0 
 12 19  1  0  0  0  0 
 13 20  1  0  0  0  0 
 14 21  1  0  0  0  0 
 16 22  1  0  0  0  0 
 19 23  1  0  0  0  0 
 19 24  1  0  0  0  0 
 19 25  1  0  0  0  0 
 20 24  1  0  0  0  0 
 21 26  1  0  0  0  0 
 22 27  1  0  0  0  0 
 22 28  2  0  0  0  0 
 24 29  2  0  0  0  0 
 25 30  2  0  0  0  0 
 26 31  1  0  0  0  0 
 26 32  2  0  0  0  0 
 29 33  1  0  0  0  0 
 30 33  1  0  0  0  0 
 33 34  2  0  0  0  0 
 35  1  1  0  0  0  0 
 36  1  1  0  0  0  0 
 37  1  1  0  0  0  0 
  3 38  1  0  0  0  0 
 39  5  1  0  0  0  0 
 40  5  1  0  0  0  0 
  6 41  1  0  0  0  0 
 42  7  1  0  0  0  0 
 43  7  1  0  0  0  0 
 44  9  1  0  0  0  0 
 10 45  1  0  0  0  0 
 11 46  1  0  0  0  0 
 47 13  1  0  0  0  0 
 48 13  1  0  0  0  0 
 49 14  1  0  0  0  0 
 50 14  1  0  0  0  0 
 51 17  1  0  0  0  0 
 52 20  1  0  0  0  0 
 53 20  1  0  0  0  0 
 54 23  1  0  0  0  0 
 55 23  1  0  0  0  0 
 56 23  1  0  0  0  0 
 57 25  1  0  0  0  0 
 58 27  1  0  0  0  0 
 59 27  1  0  0  0  0 
 60 27  1  0  0  0  0 
 61 29  1  0  0  0  0 
 62 30  1  0  0  0  0 
 63 31  1  0  0  0  0 
 64 31  1  0  0  0  0 
 65 31  1  0  0  0  0 
M  END
> <cdk:Title>
triamcinolone diacetate

> <Conformer>
1

> <SuperDrugID>
SD002457

$$$$
