methylestrenolone
  CDK     0628171801

 49 52  0  0  0  0  0  0  0  0999 V2000
   -5.5810   -3.4439    4.9344 C   0  0  0  0  0  0  0  0  0  0  0  0
   -4.0986   -3.2248    5.4432 C   0  0  2  0  0  0  0  0  0  0  0  0
   -3.0081   -3.8979    4.5485 C   0  0  2  0  0  0  0  0  0  0  0  0
   -3.8882   -4.0234    6.7954 C   0  0  1  0  0  0  0  0  0  0  0  0
   -3.8045   -1.6807    5.4428 C   0  0  2  0  0  0  0  0  0  0  0  0
   -2.9873   -3.3739    3.0748 C   0  0  1  0  0  0  0  0  0  0  0  0
   -3.1745   -5.4077    4.8214 C   0  0  2  0  0  0  0  0  0  0  0  0
   -2.7297   -3.5378    7.7306 C   0  0  0  0  0  0  0  0  0  0  0  0
   -5.0521   -4.0043    7.6319 O   0  0  0  0  0  0  0  0  0  0  0  0
   -3.6342   -5.4890    6.3019 C   0  0  2  0  0  0  0  0  0  0  0  0
   -3.7005   -1.0650    4.0086 C   0  0  2  0  0  0  0  0  0  0  0  0
   -2.6898   -1.8253    3.0789 C   0  0  2  0  0  0  0  0  0  0  0  0
   -1.9450   -4.1234    2.1939 C   0  0  1  0  0  0  0  0  0  0  0  0
   -2.5981   -1.2513    1.6121 C   0  0  2  0  0  0  0  0  0  0  0  0
   -1.8780   -3.5195    0.7712 C   0  0  2  0  0  0  0  0  0  0  0  0
   -1.6546   -2.0711    0.8054 C   0  0  0  0  0  0  0  0  0  0  0  0
   -2.2642    0.2858    1.6029 C   0  0  1  0  0  0  0  0  0  0  0  0
   -0.6310   -1.5264    0.1103 C   0  0  0  0  0  0  0  0  0  0  0  0
   -1.5871    0.7424    0.2896 C   0  0  1  0  0  0  0  0  0  0  0  0
   -0.4516   -0.1605    0.0060 C   0  0  0  0  0  0  0  0  0  0  0  0
    0.6562    0.3102   -0.3433 O   0  0  0  0  0  0  0  0  0  0  0  0
   -5.7625   -3.0137    3.9543 H   0  0  0  0  0  0  0  0  0  0  0  0
   -5.8415   -4.5000    4.8578 H   0  0  0  0  0  0  0  0  0  0  0  0
   -6.2888   -2.9765    5.6231 H   0  0  0  0  0  0  0  0  0  0  0  0
   -2.0156   -3.6452    4.9436 H   0  0  0  0  0  0  0  0  0  0  0  0
   -2.8532   -1.4753    5.9369 H   0  0  0  0  0  0  0  0  0  0  0  0
   -4.5745   -1.1528    6.0106 H   0  0  0  0  0  0  0  0  0  0  0  0
   -3.9647   -3.5505    2.6210 H   0  0  0  0  0  0  0  0  0  0  0  0
   -2.2328   -5.9430    4.6712 H   0  0  0  0  0  0  0  0  0  0  0  0
   -3.9275   -5.8370    4.1542 H   0  0  0  0  0  0  0  0  0  0  0  0
   -2.9019   -2.5105    8.0587 H   0  0  0  0  0  0  0  0  0  0  0  0
   -2.6791   -4.1656    8.6237 H   0  0  0  0  0  0  0  0  0  0  0  0
   -1.7573   -3.5886    7.2389 H   0  0  0  0  0  0  0  0  0  0  0  0
   -5.1712   -3.0678    7.8935 H   0  0  0  0  0  0  0  0  0  0  0  0
   -4.5564   -6.0743    6.3571 H   0  0  0  0  0  0  0  0  0  0  0  0
   -2.8860   -6.0092    6.9084 H   0  0  0  0  0  0  0  0  0  0  0  0
   -3.3847   -0.0254    4.1255 H   0  0  0  0  0  0  0  0  0  0  0  0
   -4.6817   -1.0386    3.5317 H   0  0  0  0  0  0  0  0  0  0  0  0
   -1.6997   -1.6838    3.5314 H   0  0  0  0  0  0  0  0  0  0  0  0
   -0.9541   -4.0740    2.6548 H   0  0  0  0  0  0  0  0  0  0  0  0
   -2.2269   -5.1767    2.1106 H   0  0  0  0  0  0  0  0  0  0  0  0
   -3.5830   -1.3635    1.1476 H   0  0  0  0  0  0  0  0  0  0  0  0
   -2.8257   -3.7093    0.2593 H   0  0  0  0  0  0  0  0  0  0  0  0
   -1.1058   -4.0555    0.2124 H   0  0  0  0  0  0  0  0  0  0  0  0
   -3.1796    0.8661    1.7475 H   0  0  0  0  0  0  0  0  0  0  0  0
   -1.5841    0.5315    2.4248 H   0  0  0  0  0  0  0  0  0  0  0  0
    0.0168   -2.1150   -0.3622 H   0  0  0  0  0  0  0  0  0  0  0  0
   -2.3037    0.6789   -0.5326 H   0  0  0  0  0  0  0  0  0  0  0  0
   -1.2541    1.7810    0.3750 H   0  0  0  0  0  0  0  0  0  0  0  0
  2  1  1  0  0  0  0 
  2  3  1  0  0  0  0 
  2  4  1  0  0  0  0 
  2  5  1  0  0  0  0 
  3  6  1  0  0  0  0 
  3  7  1  0  0  0  0 
  4  8  1  0  0  0  0 
  4  9  1  0  0  0  0 
  4 10  1  0  0  0  0 
  5 11  1  0  0  0  0 
  6 12  1  0  0  0  0 
  6 13  1  0  0  0  0 
  7 10  1  0  0  0  0 
 12 11  1  0  0  0  0 
 12 14  1  0  0  0  0 
 13 15  1  0  0  0  0 
 14 16  1  0  0  0  0 
 14 17  1  0  0  0  0 
 15 16  1  0  0  0  0 
 16 18  2  0  0  0  0 
 17 19  1  0  0  0  0 
 18 20  1  0  0  0  0 
 19 20  1  0  0  0  0 
 20 21  2  0  0  0  0 
 22  1  1  0  0  0  0 
 23  1  1  0  0  0  0 
 24  1  1  0  0  0  0 
  3 25  1  0  0  0  0 
 26  5  1  0  0  0  0 
 27  5  1  0  0  0  0 
  6 28  1  0  0  0  0 
 29  7  1  0  0  0  0 
 30  7  1  0  0  0  0 
 31  8  1  0  0  0  0 
 32  8  1  0  0  0  0 
 33  8  1  0  0  0  0 
 34  9  1  0  0  0  0 
 35 10  1  0  0  0  0 
 36 10  1  0  0  0  0 
 37 11  1  0  0  0  0 
 38 11  1  0  0  0  0 
 12 39  1  0  0  0  0 
 40 13  1  0  0  0  0 
 41 13  1  0  0  0  0 
 14 42  1  0  0  0  0 
 43 15  1  0  0  0  0 
 44 15  1  0  0  0  0 
 45 17  1  0  0  0  0 
 46 17  1  0  0  0  0 
 47 18  1  0  0  0  0 
 48 19  1  0  0  0  0 
 49 19  1  0  0  0  0 
M  END
> <cdk:Title>
methylestrenolone

> <Conformer>
1

> <SuperDrugID>
SD001762

$$$$
