tiquizium
  CDK     0628171801

 46 49  0  0  0  0  0  0  0  0999 V2000
    2.2305    3.2971   -2.4563 C   0  0  0  0  0  0  0  0  0  0  0  0
    2.3039    2.3355   -1.4921 C   0  0  0  0  0  0  0  0  0  0  0  0
    3.3471    3.9105   -3.0125 C   0  0  0  0  0  0  0  0  0  0  0  0
    1.0213    3.7217   -2.9966 C   0  0  0  0  0  0  0  0  0  0  0  0
    1.1624    1.4272   -1.2033 C   0  0  1  0  0  0  0  0  0  0  0  0
    3.5095    2.0993   -0.6789 C   0  0  2  0  0  0  0  0  0  0  0  0
    4.4788    3.2681   -3.5435 C   0  0  0  0  0  0  0  0  0  0  0  0
    3.5897    5.6293   -3.2907 S   0  0  0  0  0  0  0  0  0  0  0  0
   -0.0563    4.3008   -2.3079 C   0  0  0  0  0  0  0  0  0  0  0  0
    0.5573    3.6811   -4.6914 S   0  0  0  0  0  0  0  0  0  0  0  0
    1.4851    0.0395   -0.6155 N   0  0  2  0  0  0  0  0  0  0  0  0
    3.9863    0.6192   -0.6672 C   0  0  2  0  0  0  0  0  0  0  0  0
    5.4563    4.1063   -4.1048 C   0  0  0  0  0  0  0  0  0  0  0  0
    5.1495    5.4675   -4.0732 C   0  0  0  0  0  0  0  0  0  0  0  0
   -1.1522    4.6836   -3.1026 C   0  0  0  0  0  0  0  0  0  0  0  0
   -1.0163    4.4201   -4.4671 C   0  0  0  0  0  0  0  0  0  0  0  0
    1.3749    0.0948    0.9000 C   0  0  0  0  0  0  0  0  0  0  0  0
    2.8712   -0.3866   -1.0955 C   0  0  1  0  0  0  0  0  0  0  0  0
    0.4704   -0.9893   -1.1130 C   0  0  1  0  0  0  0  0  0  0  0  0
    3.2765   -1.8543   -0.7450 C   0  0  2  0  0  0  0  0  0  0  0  0
    0.7854   -2.4749   -0.7674 C   0  0  1  0  0  0  0  0  0  0  0  0
    2.2118   -2.8753   -1.2123 C   0  0  2  0  0  0  0  0  0  0  0  0
    2.8610   -0.3540   -2.1944 H   0  0  0  0  0  0  0  0  0  0  0  0
    0.4442    1.9654   -0.5775 H   0  0  0  0  0  0  0  0  0  0  0  0
    0.6562    1.2744   -2.1626 H   0  0  0  0  0  0  0  0  0  0  0  0
    3.2611    2.4022    0.3392 H   0  0  0  0  0  0  0  0  0  0  0  0
    4.3591    2.7335   -0.9328 H   0  0  0  0  0  0  0  0  0  0  0  0
    4.5857    2.2510   -3.5354 H   0  0  0  0  0  0  0  0  0  0  0  0
   -0.0438    4.4576   -1.2968 H   0  0  0  0  0  0  0  0  0  0  0  0
    4.3340    0.3799    0.3415 H   0  0  0  0  0  0  0  0  0  0  0  0
    4.8480    0.5039   -1.3317 H   0  0  0  0  0  0  0  0  0  0  0  0
    6.3199    3.7430   -4.5125 H   0  0  0  0  0  0  0  0  0  0  0  0
    5.7238    6.2278   -4.4342 H   0  0  0  0  0  0  0  0  0  0  0  0
   -1.9849    5.1269   -2.7100 H   0  0  0  0  0  0  0  0  0  0  0  0
   -1.7026    4.6182   -5.1964 H   0  0  0  0  0  0  0  0  0  0  0  0
    1.6377   -0.8497    1.3751 H   0  0  0  0  0  0  0  0  0  0  0  0
    0.3555    0.3390    1.2103 H   0  0  0  0  0  0  0  0  0  0  0  0
    2.0184    0.8458    1.3475 H   0  0  0  0  0  0  0  0  0  0  0  0
   -0.5313   -0.7555   -0.7359 H   0  0  0  0  0  0  0  0  0  0  0  0
    0.3985   -0.9514   -2.2054 H   0  0  0  0  0  0  0  0  0  0  0  0
    3.4311   -1.9607    0.3298 H   0  0  0  0  0  0  0  0  0  0  0  0
    4.2240   -2.0999   -1.2331 H   0  0  0  0  0  0  0  0  0  0  0  0
    0.6743   -2.6515    0.3035 H   0  0  0  0  0  0  0  0  0  0  0  0
    0.0647   -3.1235   -1.2725 H   0  0  0  0  0  0  0  0  0  0  0  0
    2.4563   -3.8610   -0.8055 H   0  0  0  0  0  0  0  0  0  0  0  0
    2.2387   -2.9477   -2.3033 H   0  0  0  0  0  0  0  0  0  0  0  0
  1  2  2  0  0  0  0 
  1  3  1  0  0  0  0 
  1  4  1  0  0  0  0 
  2  5  1  0  0  0  0 
  2  6  1  0  0  0  0 
  3  7  2  0  0  0  0 
  3  8  1  0  0  0  0 
  4  9  2  0  0  0  0 
  4 10  1  0  0  0  0 
 11  5  1  0  0  0  0 
  6 12  1  0  0  0  0 
  7 13  1  0  0  0  0 
  8 14  1  0  0  0  0 
  9 15  1  0  0  0  0 
 10 16  1  0  0  0  0 
 11 17  1  0  0  0  0 
 11 18  1  0  0  0  0 
 11 19  1  0  0  0  0 
 18 12  1  0  0  0  0 
 13 14  2  0  0  0  0 
 15 16  2  0  0  0  0 
 18 20  1  0  0  0  0 
 18 23  1  0  0  0  0 
 19 21  1  0  0  0  0 
 20 22  1  0  0  0  0 
 21 22  1  0  0  0  0 
  5 24  1  0  0  0  0 
  5 25  1  0  0  0  0 
  6 26  1  0  0  0  0 
  6 27  1  0  0  0  0 
  7 28  1  0  0  0  0 
  9 29  1  0  0  0  0 
 12 30  1  0  0  0  0 
 12 31  1  0  0  0  0 
 13 32  1  0  0  0  0 
 14 33  1  0  0  0  0 
 15 34  1  0  0  0  0 
 16 35  1  0  0  0  0 
 17 36  1  0  0  0  0 
 17 37  1  0  0  0  0 
 17 38  1  0  0  0  0 
 19 39  1  0  0  0  0 
 19 40  1  0  0  0  0 
 20 41  1  0  0  0  0 
 20 42  1  0  0  0  0 
 21 43  1  0  0  0  0 
 21 44  1  0  0  0  0 
 22 45  1  0  0  0  0 
 22 46  1  0  0  0  0 
M  CHG  1  11   1
M  END
> <cdk:Title>
tiquizium

> <Conformer>
1

> <SuperDrugID>
SD002410

$$$$
