floredil
  CDK     0628171801

 46 47  0  0  0  0  0  0  0  0999 V2000
   -2.6992   -1.6625    0.5988 O   0  0  0  0  0  0  0  0  0  0  0  0
   -2.6539   -0.4190    1.3299 C   0  0  1  0  0  0  0  0  0  0  0  0
   -3.0044   -2.7225    1.4039 C   0  0  0  0  0  0  0  0  0  0  0  0
   -2.1494    0.6981    0.3907 C   0  0  2  0  0  0  0  0  0  0  0  0
   -4.3441   -3.0163    1.7273 C   0  0  0  0  0  0  0  0  0  0  0  0
   -1.9681   -3.5117    1.9385 C   0  0  0  0  0  0  0  0  0  0  0  0
   -0.8840    0.3694   -0.3420 N   0  0  1  0  0  0  0  0  0  0  0  0
   -4.6433   -4.0473    2.6388 C   0  0  0  0  0  0  0  0  0  0  0  0
   -2.2597   -4.5489    2.8454 C   0  0  0  0  0  0  0  0  0  0  0  0
   -0.5869    1.3809   -1.4058 C   0  0  1  0  0  0  0  0  0  0  0  0
    0.3045    0.0873    0.5256 C   0  0  2  0  0  0  0  0  0  0  0  0
   -5.9370   -4.2688    3.0214 O   0  0  0  0  0  0  0  0  0  0  0  0
   -3.6009   -4.8319    3.1715 C   0  0  0  0  0  0  0  0  0  0  0  0
   -1.2449   -5.2651    3.4194 O   0  0  0  0  0  0  0  0  0  0  0  0
    0.6793    0.9840   -2.2029 C   0  0  1  0  0  0  0  0  0  0  0  0
    1.5433   -0.2579   -0.3343 C   0  0  2  0  0  0  0  0  0  0  0  0
   -6.3051   -3.4710    4.1677 C   0  0  1  0  0  0  0  0  0  0  0  0
   -0.7870   -4.6680    4.6519 C   0  0  1  0  0  0  0  0  0  0  0  0
    1.7983    0.7596   -1.3214 O   0  0  0  0  0  0  0  0  0  0  0  0
   -7.7723   -3.7540    4.5310 C   0  0  0  0  0  0  0  0  0  0  0  0
    0.3413   -5.5275    5.2482 C   0  0  0  0  0  0  0  0  0  0  0  0
   -3.6537   -0.1514    1.6841 H   0  0  0  0  0  0  0  0  0  0  0  0
   -1.9887   -0.4825    2.1977 H   0  0  0  0  0  0  0  0  0  0  0  0
   -2.0287    1.6225    0.9643 H   0  0  0  0  0  0  0  0  0  0  0  0
   -2.9456    0.8702   -0.3413 H   0  0  0  0  0  0  0  0  0  0  0  0
   -5.0994   -2.4637    1.3177 H   0  0  0  0  0  0  0  0  0  0  0  0
   -0.9983   -3.3182    1.6822 H   0  0  0  0  0  0  0  0  0  0  0  0
   -1.4253    1.4497   -2.1075 H   0  0  0  0  0  0  0  0  0  0  0  0
   -0.4316    2.3711   -0.9633 H   0  0  0  0  0  0  0  0  0  0  0  0
    0.1188   -0.7767    1.1670 H   0  0  0  0  0  0  0  0  0  0  0  0
    0.5300    0.9495    1.1596 H   0  0  0  0  0  0  0  0  0  0  0  0
   -3.8178   -5.5952    3.8161 H   0  0  0  0  0  0  0  0  0  0  0  0
    0.4850    0.0859   -2.7986 H   0  0  0  0  0  0  0  0  0  0  0  0
    0.9369    1.7959   -2.8869 H   0  0  0  0  0  0  0  0  0  0  0  0
    1.4009   -1.2251   -0.8250 H   0  0  0  0  0  0  0  0  0  0  0  0
    2.4160   -0.3376    0.3166 H   0  0  0  0  0  0  0  0  0  0  0  0
   -5.6803   -3.7182    5.0332 H   0  0  0  0  0  0  0  0  0  0  0  0
   -6.2039   -2.4011    3.9526 H   0  0  0  0  0  0  0  0  0  0  0  0
   -0.3967   -3.6591    4.4775 H   0  0  0  0  0  0  0  0  0  0  0  0
   -1.5995   -4.6111    5.3847 H   0  0  0  0  0  0  0  0  0  0  0  0
   -8.4234   -3.4832    3.6976 H   0  0  0  0  0  0  0  0  0  0  0  0
   -7.9039   -4.8136    4.7577 H   0  0  0  0  0  0  0  0  0  0  0  0
   -8.0567   -3.1669    5.4068 H   0  0  0  0  0  0  0  0  0  0  0  0
    0.6903   -5.0828    6.1826 H   0  0  0  0  0  0  0  0  0  0  0  0
    1.1790   -5.5850    4.5506 H   0  0  0  0  0  0  0  0  0  0  0  0
   -0.0232   -6.5360    5.4523 H   0  0  0  0  0  0  0  0  0  0  0  0
  1  2  1  0  0  0  0 
  1  3  1  0  0  0  0 
  2  4  1  0  0  0  0 
  3  5  2  0  0  0  0 
  3  6  1  0  0  0  0 
  4  7  1  0  0  0  0 
  5  8  1  0  0  0  0 
  6  9  2  0  0  0  0 
  7 10  1  0  0  0  0 
  7 11  1  0  0  0  0 
  8 12  1  0  0  0  0 
  8 13  2  0  0  0  0 
  9 13  1  0  0  0  0 
  9 14  1  0  0  0  0 
 10 15  1  0  0  0  0 
 11 16  1  0  0  0  0 
 12 17  1  0  0  0  0 
 14 18  1  0  0  0  0 
 15 19  1  0  0  0  0 
 16 19  1  0  0  0  0 
 17 20  1  0  0  0  0 
 18 21  1  0  0  0  0 
  2 22  1  0  0  0  0 
  2 23  1  0  0  0  0 
  4 24  1  0  0  0  0 
  4 25  1  0  0  0  0 
  5 26  1  0  0  0  0 
  6 27  1  0  0  0  0 
 10 28  1  0  0  0  0 
 10 29  1  0  0  0  0 
 11 30  1  0  0  0  0 
 11 31  1  0  0  0  0 
 13 32  1  0  0  0  0 
 15 33  1  0  0  0  0 
 15 34  1  0  0  0  0 
 16 35  1  0  0  0  0 
 16 36  1  0  0  0  0 
 17 37  1  0  0  0  0 
 17 38  1  0  0  0  0 
 18 39  1  0  0  0  0 
 18 40  1  0  0  0  0 
 20 41  1  0  0  0  0 
 20 42  1  0  0  0  0 
 20 43  1  0  0  0  0 
 21 44  1  0  0  0  0 
 21 45  1  0  0  0  0 
 21 46  1  0  0  0  0 
M  END
> <cdk:Title>
floredil

> <Conformer>
1

> <SuperDrugID>
SD003204

$$$$
