tiliquinol
  CDK     0628171801

 21 22  0  0  0  0  0  0  0  0999 V2000
    1.0577   -0.3420   -2.5576 C   0  0  0  0  0  0  0  0  0  0  0  0
   -0.2470   -0.0707   -1.8960 C   0  0  0  0  0  0  0  0  0  0  0  0
   -0.5396    1.2429   -1.4565 C   0  0  0  0  0  0  0  0  0  0  0  0
   -1.7529    1.5407   -0.8129 C   0  0  0  0  0  0  0  0  0  0  0  0
   -2.7118    0.5344   -0.6073 C   0  0  0  0  0  0  0  0  0  0  0  0
   -3.8800    0.8273    0.0222 O   0  0  0  0  0  0  0  0  0  0  0  0
   -2.4539   -0.7767   -1.0583 C   0  0  0  0  0  0  0  0  0  0  0  0
   -1.2178   -1.0960   -1.6947 C   0  0  0  0  0  0  0  0  0  0  0  0
   -1.0308   -2.4459   -2.0932 C   0  0  0  0  0  0  0  0  0  0  0  0
   -2.0363   -3.4092   -1.8945 C   0  0  0  0  0  0  0  0  0  0  0  0
   -3.2344   -3.0227   -1.2765 C   0  0  0  0  0  0  0  0  0  0  0  0
   -3.3987   -1.7382   -0.8801 N   0  0  0  0  0  0  0  0  0  0  0  0
    1.6059   -1.1036   -1.9979 H   0  0  0  0  0  0  0  0  0  0  0  0
    1.6908    0.5458   -2.6200 H   0  0  0  0  0  0  0  0  0  0  0  0
    0.8837   -0.6999   -3.5740 H   0  0  0  0  0  0  0  0  0  0  0  0
    0.1328    2.0014   -1.5997 H   0  0  0  0  0  0  0  0  0  0  0  0
   -1.9355    2.4953   -0.4962 H   0  0  0  0  0  0  0  0  0  0  0  0
   -3.7383    1.6837    0.4824 H   0  0  0  0  0  0  0  0  0  0  0  0
   -0.1637   -2.7532   -2.5359 H   0  0  0  0  0  0  0  0  0  0  0  0
   -1.8996   -4.3780   -2.1939 H   0  0  0  0  0  0  0  0  0  0  0  0
   -3.9817   -3.7012   -1.1213 H   0  0  0  0  0  0  0  0  0  0  0  0
  1  2  1  0  0  0  0 
  2  3  1  0  0  0  0 
  3  4  2  0  0  0  0 
  4  5  1  0  0  0  0 
  5  6  1  0  0  0  0 
  5  7  2  0  0  0  0 
  7  8  1  0  0  0  0 
  2  8  2  0  0  0  0 
  8  9  1  0  0  0  0 
  9 10  2  0  0  0  0 
 10 11  1  0  0  0  0 
 11 12  2  0  0  0  0 
  7 12  1  0  0  0  0 
  1 13  1  0  0  0  0 
  1 14  1  0  0  0  0 
  1 15  1  0  0  0  0 
  3 16  1  0  0  0  0 
  4 17  1  0  0  0  0 
  6 18  1  0  0  0  0 
  9 19  1  0  0  0  0 
 10 20  1  0  0  0  0 
 11 21  1  0  0  0  0 
M  END
> <cdk:Title>
tiliquinol

> <Conformer>
1

> <SuperDrugID>
SD002397

$$$$
