alcaftadine
  CDK     0628171801

 44 47  0  0  0  0  0  0  0  0999 V2000
   -4.8782   -5.9885    3.3479 C   0  0  0  0  0  0  0  0  0  0  0  0
   -5.4669   -6.8874    2.7049 O   0  0  0  0  0  0  0  0  0  0  0  0
   -4.5489   -4.7475    2.7585 C   0  0  0  0  0  0  0  0  0  0  0  0
   -3.8978   -3.6960    3.3151 N   0  0  0  0  0  0  0  0  0  0  0  0
   -4.8692   -4.3805    1.4556 C   0  0  0  0  0  0  0  0  0  0  0  0
   -3.8339   -2.7252    2.3632 C   0  0  0  0  0  0  0  0  0  0  0  0
   -3.3982   -3.6537    4.6754 C   0  0  2  0  0  0  0  0  0  0  0  0
   -4.4353   -3.1399    1.2348 N   0  0  0  0  0  0  0  0  0  0  0  0
   -3.3025   -1.4443    2.4882 C   0  0  0  0  0  0  0  0  0  0  0  0
   -2.6728   -2.3629    5.1583 C   0  0  2  0  0  0  0  0  0  0  0  0
   -3.8131   -0.7481    3.5852 C   0  0  0  0  0  0  0  0  0  0  0  0
   -2.3895   -0.9047    1.6291 C   0  0  0  0  0  0  0  0  0  0  0  0
   -3.4858   -1.1348    4.9148 C   0  0  0  0  0  0  0  0  0  0  0  0
   -4.6716    0.3580    3.3723 C   0  0  0  0  0  0  0  0  0  0  0  0
   -1.8616    0.4709    1.7382 C   0  0  2  0  0  0  0  0  0  0  0  0
   -1.8403   -1.6012    0.4498 C   0  0  1  0  0  0  0  0  0  0  0  0
   -3.9506   -0.3441    5.9925 C   0  0  0  0  0  0  0  0  0  0  0  0
   -5.1183    1.1338    4.4543 C   0  0  0  0  0  0  0  0  0  0  0  0
   -2.3135    1.2846    0.4957 C   0  0  2  0  0  0  0  0  0  0  0  0
   -2.3020   -0.8534   -0.8297 C   0  0  1  0  0  0  0  0  0  0  0  0
   -4.7514    0.7892    5.7651 C   0  0  0  0  0  0  0  0  0  0  0  0
   -1.9453    0.6019   -0.7877 N   0  0  1  0  0  0  0  0  0  0  0  0
   -2.4306    1.3457   -1.9850 C   0  0  0  0  0  0  0  0  0  0  0  0
   -4.6412   -6.1811    4.3211 H   0  0  0  0  0  0  0  0  0  0  0  0
   -5.3625   -4.9535    0.7692 H   0  0  0  0  0  0  0  0  0  0  0  0
   -2.6986   -4.4874    4.8036 H   0  0  0  0  0  0  0  0  0  0  0  0
   -4.2486   -3.8169    5.3452 H   0  0  0  0  0  0  0  0  0  0  0  0
   -1.7106   -2.2615    4.6462 H   0  0  0  0  0  0  0  0  0  0  0  0
   -2.4472   -2.4835    6.2227 H   0  0  0  0  0  0  0  0  0  0  0  0
   -4.9658    0.6143    2.4263 H   0  0  0  0  0  0  0  0  0  0  0  0
   -0.7681    0.4515    1.7772 H   0  0  0  0  0  0  0  0  0  0  0  0
   -2.1796    1.0041    2.6342 H   0  0  0  0  0  0  0  0  0  0  0  0
   -0.7474   -1.5995    0.4910 H   0  0  0  0  0  0  0  0  0  0  0  0
   -2.1222   -2.6512    0.3773 H   0  0  0  0  0  0  0  0  0  0  0  0
   -3.7094   -0.5907    6.9534 H   0  0  0  0  0  0  0  0  0  0  0  0
   -5.7112    1.9500    4.2851 H   0  0  0  0  0  0  0  0  0  0  0  0
   -1.8281    2.2653    0.5345 H   0  0  0  0  0  0  0  0  0  0  0  0
   -3.3975    1.4413    0.5473 H   0  0  0  0  0  0  0  0  0  0  0  0
   -1.8157   -1.3179   -1.6921 H   0  0  0  0  0  0  0  0  0  0  0  0
   -3.3846   -0.9784   -0.9390 H   0  0  0  0  0  0  0  0  0  0  0  0
   -5.0782    1.3568    6.5520 H   0  0  0  0  0  0  0  0  0  0  0  0
   -3.5230    1.3866   -2.0087 H   0  0  0  0  0  0  0  0  0  0  0  0
   -2.0812    0.8639   -2.8998 H   0  0  0  0  0  0  0  0  0  0  0  0
   -2.0441    2.3666   -1.9813 H   0  0  0  0  0  0  0  0  0  0  0  0
  1  2  2  0  0  0  0 
  1  3  1  0  0  0  0 
  3  4  1  0  0  0  0 
  3  5  2  0  0  0  0 
  4  6  1  0  0  0  0 
  4  7  1  0  0  0  0 
  5  8  1  0  0  0  0 
  6  8  2  0  0  0  0 
  6  9  1  0  0  0  0 
  7 10  1  0  0  0  0 
  9 11  1  0  0  0  0 
  9 12  2  0  0  0  0 
 10 13  1  0  0  0  0 
 11 13  2  0  0  0  0 
 11 14  1  0  0  0  0 
 12 15  1  0  0  0  0 
 12 16  1  0  0  0  0 
 13 17  1  0  0  0  0 
 14 18  2  0  0  0  0 
 15 19  1  0  0  0  0 
 16 20  1  0  0  0  0 
 17 21  2  0  0  0  0 
 18 21  1  0  0  0  0 
 19 22  1  0  0  0  0 
 20 22  1  0  0  0  0 
 22 23  1  0  0  0  0 
  1 24  1  0  0  0  0 
  5 25  1  0  0  0  0 
  7 26  1  0  0  0  0 
  7 27  1  0  0  0  0 
 10 28  1  0  0  0  0 
 10 29  1  0  0  0  0 
 14 30  1  0  0  0  0 
 15 31  1  0  0  0  0 
 15 32  1  0  0  0  0 
 16 33  1  0  0  0  0 
 16 34  1  0  0  0  0 
 17 35  1  0  0  0  0 
 18 36  1  0  0  0  0 
 19 37  1  0  0  0  0 
 19 38  1  0  0  0  0 
 20 39  1  0  0  0  0 
 20 40  1  0  0  0  0 
 21 41  1  0  0  0  0 
 23 42  1  0  0  0  0 
 23 43  1  0  0  0  0 
 23 44  1  0  0  0  0 
M  END
> <cdk:Title>
alcaftadine

> <Conformer>
1

> <SuperDrugID>
SD003397

$$$$
