pralmorelin
  CDK     0628171801

115119  0  0  0  0  0  0  0  0999 V2000
    1.0608   -0.1600    2.5153 C   0  0  0  0  0  0  0  0  0  0  0  0
   -0.4024    0.0668   -2.0264 C   0  0  2  0  0  0  0  0  0  0  0  0
   -5.1952    2.5286    1.1054 C   0  0  0  0  0  0  0  0  0  0  0  0
   -2.0507    3.8322    0.9303 N   0  0  0  0  0  0  0  0  0  0  0  0
   -1.9639    7.0835    2.1859 N   0  0  0  0  0  0  0  0  0  0  0  0
    4.7794   10.9170    6.7468 N   0  0  2  0  0  0  0  0  0  0  0  0
   -0.6803   11.5130    0.8218 N   0  0  0  0  0  0  0  0  0  0  0  0
   -0.2730   -0.9431    2.4701 C   0  0  1  0  0  0  0  0  0  0  0  0
   -1.2747   -0.2802    3.3177 N   0  0  1  0  0  0  0  0  0  0  0  0
   -0.8056   -1.0743    1.0950 C   0  0  0  0  0  0  0  0  0  0  0  0
   -1.0480   -2.2173    0.6399 O   0  0  0  0  0  0  0  0  0  0  0  0
   -1.5547    0.1124   -0.9748 C   0  0  1  0  0  0  0  0  0  0  0  0
   -1.0186    0.0477    0.3522 N   0  0  0  0  0  0  0  0  0  0  0  0
   -2.3695    1.3570   -1.0468 C   0  0  0  0  0  0  0  0  0  0  0  0
   -2.1678    2.2122   -1.9428 O   0  0  0  0  0  0  0  0  0  0  0  0
   -4.1080    2.7787    0.0330 C   0  0  2  0  0  0  0  0  0  0  0  0
   -3.3233    1.5839   -0.0991 N   0  0  0  0  0  0  0  0  0  0  0  0
   -3.2934    3.9758    0.3809 C   0  0  0  0  0  0  0  0  0  0  0  0
   -3.7768    5.1123    0.1601 O   0  0  0  0  0  0  0  0  0  0  0  0
   -1.1240    4.8691    1.2886 C   0  0  1  0  0  0  0  0  0  0  0  0
   -0.5199    5.5524    0.0120 C   0  0  2  0  0  0  0  0  0  0  0  0
    0.9416    5.7952    0.1221 C   0  0  0  0  0  0  0  0  0  0  0  0
    1.5698    6.8847    0.7308 C   0  0  0  0  0  0  0  0  0  0  0  0
    2.9059    6.7319    0.6612 N   0  0  0  0  0  0  0  0  0  0  0  0
    3.1833    5.5812    0.0317 C   0  0  0  0  0  0  0  0  0  0  0  0
    1.9791    4.9707   -0.3225 C   0  0  0  0  0  0  0  0  0  0  0  0
    1.9713    3.7320   -0.9915 C   0  0  0  0  0  0  0  0  0  0  0  0
    3.2060    3.1208   -1.2995 C   0  0  0  0  0  0  0  0  0  0  0  0
    4.4235    3.7422   -0.9389 C   0  0  0  0  0  0  0  0  0  0  0  0
    4.4228    4.9835   -0.2659 C   0  0  0  0  0  0  0  0  0  0  0  0
   -1.7243    5.7422    2.3409 C   0  0  0  0  0  0  0  0  0  0  0  0
   -2.0765    5.1736    3.4039 O   0  0  0  0  0  0  0  0  0  0  0  0
   -2.7495    7.8851    3.0895 C   0  0  2  0  0  0  0  0  0  0  0  0
   -4.2654    7.5510    2.8469 C   0  0  2  0  0  0  0  0  0  0  0  0
   -5.2252    8.1879    3.7956 C   0  0  0  0  0  0  0  0  0  0  0  0
   -6.1429    9.1750    3.3585 C   0  0  0  0  0  0  0  0  0  0  0  0
   -7.0450    9.7712    4.2588 C   0  0  0  0  0  0  0  0  0  0  0  0
   -7.0649    9.3690    5.6060 C   0  0  0  0  0  0  0  0  0  0  0  0
   -6.1747    8.3772    6.0546 C   0  0  0  0  0  0  0  0  0  0  0  0
   -5.2590    7.7968    5.1563 C   0  0  0  0  0  0  0  0  0  0  0  0
   -2.3859    9.3243    2.9490 C   0  0  0  0  0  0  0  0  0  0  0  0
   -3.2690   10.1626    2.6457 O   0  0  0  0  0  0  0  0  0  0  0  0
    3.3951   10.4979    6.5041 C   0  0  1  0  0  0  0  0  0  0  0  0
    2.8806   11.1271    5.1071 C   0  0  2  0  0  0  0  0  0  0  0  0
    1.3792   10.7777    4.8787 C   0  0  1  0  0  0  0  0  0  0  0  0
    0.8544   11.2842    3.5027 C   0  0  1  0  0  0  0  0  0  0  0  0
   -0.6795   11.1278    3.2641 C   0  0  2  0  0  0  0  0  0  0  0  0
   -1.1034    9.7507    3.1975 N   0  0  0  0  0  0  0  0  0  0  0  0
   -1.0684   11.8970    2.0521 C   0  0  0  0  0  0  0  0  0  0  0  0
   -1.7800   12.9229    2.1548 O   0  0  0  0  0  0  0  0  0  0  0  0
    0.4744   -1.1385   -1.9688 C   0  0  0  0  0  0  0  0  0  0  0  0
    0.9649   -3.4606   -2.6303 C   0  0  0  0  0  0  0  0  0  0  0  0
    0.1018   -2.3401   -2.6157 C   0  0  0  0  0  0  0  0  0  0  0  0
    1.7157   -1.0923   -1.2919 C   0  0  0  0  0  0  0  0  0  0  0  0
    2.5764   -2.2033   -1.2818 C   0  0  0  0  0  0  0  0  0  0  0  0
    2.2185   -3.3899   -1.9567 C   0  0  0  0  0  0  0  0  0  0  0  0
    1.4948   -5.7457   -3.3398 C   0  0  0  0  0  0  0  0  0  0  0  0
    0.6168   -4.6461   -3.3187 C   0  0  0  0  0  0  0  0  0  0  0  0
    3.0913   -4.5028   -1.9849 C   0  0  0  0  0  0  0  0  0  0  0  0
    2.7290   -5.6753   -2.6723 C   0  0  0  0  0  0  0  0  0  0  0  0
    0.9271    0.8599    2.1495 H   0  0  0  0  0  0  0  0  0  0  0  0
    1.4299   -0.1115    3.5407 H   0  0  0  0  0  0  0  0  0  0  0  0
    1.8156   -0.6548    1.9027 H   0  0  0  0  0  0  0  0  0  0  0  0
    0.2120    0.9640   -1.9080 H   0  0  0  0  0  0  0  0  0  0  0  0
   -0.8413    0.1273   -3.0267 H   0  0  0  0  0  0  0  0  0  0  0  0
   -5.8080    1.6694    0.8238 H   0  0  0  0  0  0  0  0  0  0  0  0
   -4.7359    2.3237    2.0751 H   0  0  0  0  0  0  0  0  0  0  0  0
   -5.8498    3.3962    1.2046 H   0  0  0  0  0  0  0  0  0  0  0  0
   -1.7523    2.9221    1.0871 H   0  0  0  0  0  0  0  0  0  0  0  0
   -1.6409    7.5144    1.3812 H   0  0  0  0  0  0  0  0  0  0  0  0
    5.3448   10.5540    5.9762 H   0  0  0  0  0  0  0  0  0  0  0  0
    5.0945   10.4442    7.5975 H   0  0  0  0  0  0  0  0  0  0  0  0
   -0.9550   12.0258    0.0458 H   0  0  0  0  0  0  0  0  0  0  0  0
   -0.1287   10.7226    0.7078 H   0  0  0  0  0  0  0  0  0  0  0  0
   -0.0927   -1.9337    2.8983 H   0  0  0  0  0  0  0  0  0  0  0  0
   -1.4889    0.6254    2.8934 H   0  0  0  0  0  0  0  0  0  0  0  0
   -2.1300   -0.8384    3.2722 H   0  0  0  0  0  0  0  0  0  0  0  0
   -2.2336   -0.7258   -1.1556 H   0  0  0  0  0  0  0  0  0  0  0  0
   -0.7856    0.8919    0.7664 H   0  0  0  0  0  0  0  0  0  0  0  0
   -4.6110    2.9563   -0.9232 H   0  0  0  0  0  0  0  0  0  0  0  0
   -3.4513    0.8895    0.5665 H   0  0  0  0  0  0  0  0  0  0  0  0
   -0.3095    4.3300    1.7821 H   0  0  0  0  0  0  0  0  0  0  0  0
   -1.0310    6.4891   -0.2120 H   0  0  0  0  0  0  0  0  0  0  0  0
   -0.6809    4.9139   -0.8613 H   0  0  0  0  0  0  0  0  0  0  0  0
    1.0935    7.6752    1.1679 H   0  0  0  0  0  0  0  0  0  0  0  0
    3.5625    7.3508    1.0170 H   0  0  0  0  0  0  0  0  0  0  0  0
    1.0922    3.2803   -1.2466 H   0  0  0  0  0  0  0  0  0  0  0  0
    3.2183    2.2210   -1.7844 H   0  0  0  0  0  0  0  0  0  0  0  0
    5.3108    3.2852   -1.1647 H   0  0  0  0  0  0  0  0  0  0  0  0
    5.3016    5.4335    0.0013 H   0  0  0  0  0  0  0  0  0  0  0  0
   -2.5016    7.6162    4.1213 H   0  0  0  0  0  0  0  0  0  0  0  0
   -4.4194    6.4710    2.9213 H   0  0  0  0  0  0  0  0  0  0  0  0
   -4.5163    7.8179    1.8165 H   0  0  0  0  0  0  0  0  0  0  0  0
   -6.1599    9.4717    2.3796 H   0  0  0  0  0  0  0  0  0  0  0  0
   -7.6915   10.4951    3.9337 H   0  0  0  0  0  0  0  0  0  0  0  0
   -7.7316    9.7919    6.2556 H   0  0  0  0  0  0  0  0  0  0  0  0
   -6.1982    8.0747    7.0318 H   0  0  0  0  0  0  0  0  0  0  0  0
   -4.6201    7.0760    5.5000 H   0  0  0  0  0  0  0  0  0  0  0  0
    3.3540    9.4074    6.4587 H   0  0  0  0  0  0  0  0  0  0  0  0
    2.7777   10.8511    7.3318 H   0  0  0  0  0  0  0  0  0  0  0  0
    3.4306   10.7613    4.1968 H   0  0  0  0  0  0  0  0  0  0  0  0
    2.9538   12.2478    5.0414 H   0  0  0  0  0  0  0  0  0  0  0  0
    1.2477    9.6937    4.9315 H   0  0  0  0  0  0  0  0  0  0  0  0
    0.7863   11.2328    5.6782 H   0  0  0  0  0  0  0  0  0  0  0  0
    1.1059   12.3491    3.4300 H   0  0  0  0  0  0  0  0  0  0  0  0
    1.3910   10.7611    2.7057 H   0  0  0  0  0  0  0  0  0  0  0  0
   -1.1842   11.5663    4.1296 H   0  0  0  0  0  0  0  0  0  0  0  0
   -0.4367    9.0733    3.3953 H   0  0  0  0  0  0  0  0  0  0  0  0
   -0.8018   -2.3914   -3.0947 H   0  0  0  0  0  0  0  0  0  0  0  0
    2.0066   -0.2428   -0.8023 H   0  0  0  0  0  0  0  0  0  0  0  0
    3.4713   -2.1361   -0.7874 H   0  0  0  0  0  0  0  0  0  0  0  0
    1.2376   -6.5982   -3.8429 H   0  0  0  0  0  0  0  0  0  0  0  0
   -0.2737   -4.7169   -3.8174 H   0  0  0  0  0  0  0  0  0  0  0  0
    3.9991   -4.4680   -1.5115 H   0  0  0  0  0  0  0  0  0  0  0  0
    3.3640   -6.4771   -2.6865 H   0  0  0  0  0  0  0  0  0  0  0  0
 10 13  1  0  0  0  0 
 14 17  1  0  0  0  0 
 18  4  1  0  0  0  0 
 31  5  1  0  0  0  0 
 41 48  1  0  0  0  0 
 49  7  1  0  0  0  0 
  1  8  1  0  0  0  0 
  8  9  1  0  0  0  0 
  8 10  1  0  0  0  0 
 10 11  2  0  0  0  0 
  2 12  1  0  0  0  0 
 12 13  1  0  0  0  0 
 12 14  1  0  0  0  0 
 14 15  2  0  0  0  0 
  3 16  1  0  0  0  0 
 16 17  1  0  0  0  0 
 16 18  1  0  0  0  0 
 18 19  2  0  0  0  0 
 20  4  1  0  0  0  0 
 20 21  1  0  0  0  0 
 21 22  1  0  0  0  0 
 22 23  2  0  0  0  0 
 23 24  1  0  0  0  0 
 24 25  1  0  0  0  0 
 25 26  1  0  0  0  0 
 22 26  1  0  0  0  0 
 26 27  2  0  0  0  0 
 27 28  1  0  0  0  0 
 28 29  2  0  0  0  0 
 29 30  1  0  0  0  0 
 25 30  2  0  0  0  0 
 20 31  1  0  0  0  0 
 31 32  2  0  0  0  0 
 33  5  1  0  0  0  0 
 33 34  1  0  0  0  0 
 34 35  1  0  0  0  0 
 35 36  2  0  0  0  0 
 36 37  1  0  0  0  0 
 37 38  2  0  0  0  0 
 38 39  1  0  0  0  0 
 39 40  2  0  0  0  0 
 35 40  1  0  0  0  0 
 33 41  1  0  0  0  0 
 41 42  2  0  0  0  0 
  6 43  1  0  0  0  0 
 43 44  1  0  0  0  0 
 44 45  1  0  0  0  0 
 45 46  1  0  0  0  0 
 46 47  1  0  0  0  0 
 47 48  1  0  0  0  0 
 47 49  1  0  0  0  0 
 49 50  2  0  0  0  0 
  2 51  1  0  0  0  0 
 52 53  2  0  0  0  0 
 54 55  1  0  0  0  0 
 55 56  2  0  0  0  0 
 52 56  1  0  0  0  0 
 53 51  1  0  0  0  0 
 51 54  2  0  0  0  0 
 57 58  2  0  0  0  0 
 59 60  2  0  0  0  0 
 57 60  1  0  0  0  0 
 58 52  1  0  0  0  0 
 56 59  1  0  0  0  0 
  1 61  1  0  0  0  0 
  1 62  1  0  0  0  0 
  1 63  1  0  0  0  0 
  2 64  1  0  0  0  0 
  2 65  1  0  0  0  0 
  3 66  1  0  0  0  0 
  3 67  1  0  0  0  0 
  3 68  1  0  0  0  0 
  4 69  1  0  0  0  0 
  5 70  1  0  0  0  0 
  6 71  1  0  0  0  0 
  6 72  1  0  0  0  0 
  7 73  1  0  0  0  0 
  7 74  1  0  0  0  0 
  8 75  1  0  0  0  0 
  9 76  1  0  0  0  0 
  9 77  1  0  0  0  0 
 12 78  1  0  0  0  0 
 13 79  1  0  0  0  0 
 16 80  1  0  0  0  0 
 17 81  1  0  0  0  0 
 20 82  1  0  0  0  0 
 21 83  1  0  0  0  0 
 21 84  1  0  0  0  0 
 23 85  1  0  0  0  0 
 24 86  1  0  0  0  0 
 27 87  1  0  0  0  0 
 28 88  1  0  0  0  0 
 29 89  1  0  0  0  0 
 30 90  1  0  0  0  0 
 33 91  1  0  0  0  0 
 34 92  1  0  0  0  0 
 34 93  1  0  0  0  0 
 36 94  1  0  0  0  0 
 37 95  1  0  0  0  0 
 38 96  1  0  0  0  0 
 39 97  1  0  0  0  0 
 40 98  1  0  0  0  0 
 43 99  1  0  0  0  0 
 43100  1  0  0  0  0 
 44101  1  0  0  0  0 
 44102  1  0  0  0  0 
 45103  1  0  0  0  0 
 45104  1  0  0  0  0 
 46105  1  0  0  0  0 
 46106  1  0  0  0  0 
 47107  1  0  0  0  0 
 48108  1  0  0  0  0 
 53109  1  0  0  0  0 
 54110  1  0  0  0  0 
 55111  1  0  0  0  0 
 57112  1  0  0  0  0 
 58113  1  0  0  0  0 
 59114  1  0  0  0  0 
 60115  1  0  0  0  0 
M  END
> <cdk:Title>
pralmorelin

> <Conformer>
1

> <SuperDrugID>
SD002001

$$$$
