decamethonium
  CDK     0628171802

 56 55  0  0  0  0  0  0  0  0999 V2000
   -9.2591    0.1479    7.6474 C   0  0  2  0  0  0  0  0  0  0  0  0
  -10.5693   -0.5243    8.0485 N   0  0  2  0  0  0  0  0  0  0  0  0
   -8.4746   -0.4687    6.4500 C   0  0  2  0  0  0  0  0  0  0  0  0
  -11.1614    0.2267    9.2205 C   0  0  0  0  0  0  0  0  0  0  0  0
  -10.3360   -1.9551    8.4775 C   0  0  0  0  0  0  0  0  0  0  0  0
  -11.5681   -0.4867    6.9141 C   0  0  0  0  0  0  0  0  0  0  0  0
   -7.1527    0.2653    6.0976 C   0  0  1  0  0  0  0  0  0  0  0  0
   -6.4323   -0.4104    4.8952 C   0  0  2  0  0  0  0  0  0  0  0  0
   -5.1062    0.2904    4.5085 C   0  0  2  0  0  0  0  0  0  0  0  0
   -4.4038   -0.3981    3.3082 C   0  0  1  0  0  0  0  0  0  0  0  0
   -3.0777    0.3028    2.9215 C   0  0  1  0  0  0  0  0  0  0  0  0
   -2.3573   -0.3730    1.7191 C   0  0  1  0  0  0  0  0  0  0  0  0
   -1.0354    0.3610    1.3667 C   0  0  2  0  0  0  0  0  0  0  0  0
   -0.2509   -0.2556    0.1693 C   0  0  1  0  0  0  0  0  0  0  0  0
    1.0592    0.4166   -0.2318 N   0  0  2  0  0  0  0  0  0  0  0  0
    0.8260    1.8474   -0.6608 C   0  0  0  0  0  0  0  0  0  0  0  0
    1.6514   -0.3344   -1.4038 C   0  0  0  0  0  0  0  0  0  0  0  0
    2.0581    0.3790    0.9026 C   0  0  0  0  0  0  0  0  0  0  0  0
   -8.5808    0.1581    8.5075 H   0  0  0  0  0  0  0  0  0  0  0  0
   -9.4530    1.1975    7.4009 H   0  0  0  0  0  0  0  0  0  0  0  0
   -9.1070   -0.4564    5.5612 H   0  0  0  0  0  0  0  0  0  0  0  0
   -8.2263   -1.5060    6.6787 H   0  0  0  0  0  0  0  0  0  0  0  0
  -11.3659    1.2712    8.9665 H   0  0  0  0  0  0  0  0  0  0  0  0
  -10.4868    0.2234   10.0820 H   0  0  0  0  0  0  0  0  0  0  0  0
  -12.1073   -0.2137    9.5522 H   0  0  0  0  0  0  0  0  0  0  0  0
   -9.5620   -2.0157    9.2489 H   0  0  0  0  0  0  0  0  0  0  0  0
  -11.2455   -2.4097    8.8796 H   0  0  0  0  0  0  0  0  0  0  0  0
  -10.0215   -2.5841    7.6429 H   0  0  0  0  0  0  0  0  0  0  0  0
  -12.5483   -0.8570    7.2265 H   0  0  0  0  0  0  0  0  0  0  0  0
  -11.6996    0.5320    6.5364 H   0  0  0  0  0  0  0  0  0  0  0  0
  -11.2561   -1.1127    6.0763 H   0  0  0  0  0  0  0  0  0  0  0  0
   -7.3734    1.3072    5.8456 H   0  0  0  0  0  0  0  0  0  0  0  0
   -6.4890    0.2532    6.9678 H   0  0  0  0  0  0  0  0  0  0  0  0
   -7.1009   -0.4048    4.0288 H   0  0  0  0  0  0  0  0  0  0  0  0
   -6.2203   -1.4544    5.1463 H   0  0  0  0  0  0  0  0  0  0  0  0
   -4.4341    0.2791    5.3704 H   0  0  0  0  0  0  0  0  0  0  0  0
   -5.3170    1.3314    4.2501 H   0  0  0  0  0  0  0  0  0  0  0  0
   -4.1930   -1.4391    3.5666 H   0  0  0  0  0  0  0  0  0  0  0  0
   -5.0759   -0.3868    2.4463 H   0  0  0  0  0  0  0  0  0  0  0  0
   -3.2897    1.3467    2.6704 H   0  0  0  0  0  0  0  0  0  0  0  0
   -2.4091    0.2971    3.7879 H   0  0  0  0  0  0  0  0  0  0  0  0
   -2.1366   -1.4149    1.9711 H   0  0  0  0  0  0  0  0  0  0  0  0
   -3.0210   -0.3608    0.8489 H   0  0  0  0  0  0  0  0  0  0  0  0
   -0.4030    0.3487    2.2555 H   0  0  0  0  0  0  0  0  0  0  0  0
   -1.2837    1.3983    1.1380 H   0  0  0  0  0  0  0  0  0  0  0  0
   -0.0571   -1.3052    0.4158 H   0  0  0  0  0  0  0  0  0  0  0  0
   -0.9292   -0.2658   -0.6908 H   0  0  0  0  0  0  0  0  0  0  0  0
    0.5115    2.4764    0.1738 H   0  0  0  0  0  0  0  0  0  0  0  0
    1.7355    2.3020   -1.0629 H   0  0  0  0  0  0  0  0  0  0  0  0
    0.0520    1.9080   -1.4322 H   0  0  0  0  0  0  0  0  0  0  0  0
    1.8559   -1.3789   -1.1498 H   0  0  0  0  0  0  0  0  0  0  0  0
    2.5973    0.1061   -1.7355 H   0  0  0  0  0  0  0  0  0  0  0  0
    0.9768   -0.3311   -2.2653 H   0  0  0  0  0  0  0  0  0  0  0  0
    2.1896   -0.6397    1.2803 H   0  0  0  0  0  0  0  0  0  0  0  0
    3.0383    0.7493    0.5902 H   0  0  0  0  0  0  0  0  0  0  0  0
    1.7461    1.0050    1.7404 H   0  0  0  0  0  0  0  0  0  0  0  0
  1  2  1  0  0  0  0 
  1  3  1  0  0  0  0 
  2  4  1  0  0  0  0 
  2  5  1  0  0  0  0 
  2  6  1  0  0  0  0 
  3  7  1  0  0  0  0 
  7  8  1  0  0  0  0 
  8  9  1  0  0  0  0 
  9 10  1  0  0  0  0 
 10 11  1  0  0  0  0 
 11 12  1  0  0  0  0 
 12 13  1  0  0  0  0 
 13 14  1  0  0  0  0 
 14 15  1  0  0  0  0 
 15 16  1  0  0  0  0 
 15 17  1  0  0  0  0 
 15 18  1  0  0  0  0 
  1 19  1  0  0  0  0 
  1 20  1  0  0  0  0 
  3 21  1  0  0  0  0 
  3 22  1  0  0  0  0 
  4 23  1  0  0  0  0 
  4 24  1  0  0  0  0 
  4 25  1  0  0  0  0 
  5 26  1  0  0  0  0 
  5 27  1  0  0  0  0 
  5 28  1  0  0  0  0 
  6 29  1  0  0  0  0 
  6 30  1  0  0  0  0 
  6 31  1  0  0  0  0 
  7 32  1  0  0  0  0 
  7 33  1  0  0  0  0 
  8 34  1  0  0  0  0 
  8 35  1  0  0  0  0 
  9 36  1  0  0  0  0 
  9 37  1  0  0  0  0 
 10 38  1  0  0  0  0 
 10 39  1  0  0  0  0 
 11 40  1  0  0  0  0 
 11 41  1  0  0  0  0 
 12 42  1  0  0  0  0 
 12 43  1  0  0  0  0 
 13 44  1  0  0  0  0 
 13 45  1  0  0  0  0 
 14 46  1  0  0  0  0 
 14 47  1  0  0  0  0 
 16 48  1  0  0  0  0 
 16 49  1  0  0  0  0 
 16 50  1  0  0  0  0 
 17 51  1  0  0  0  0 
 17 52  1  0  0  0  0 
 17 53  1  0  0  0  0 
 18 54  1  0  0  0  0 
 18 55  1  0  0  0  0 
 18 56  1  0  0  0  0 
M  CHG  1   2   1
M  CHG  1  15   1
M  END
> <cdk:Title>
decamethonium

> <Conformer>
1

> <SuperDrugID>
SD000696

$$$$
