melphalan
  CDK     0628171801

 37 37  0  0  0  0  0  0  0  0999 V2000
    3.8015   -1.8178   -5.3122 N   0  0  0  0  0  0  0  0  0  0  0  0
    3.9486   -1.6875   -3.8724 C   0  0  1  0  0  0  0  0  0  0  0  0
    2.5045   -1.7120   -5.9628 C   0  0  1  0  0  0  0  0  0  0  0  0
    4.9190   -2.0164   -6.0965 C   0  0  0  0  0  0  0  0  0  0  0  0
    3.2025   -2.7631   -3.0425 C   0  0  1  0  0  0  0  0  0  0  0  0
    1.8313   -0.3246   -5.8207 C   0  0  2  0  0  0  0  0  0  0  0  0
    5.9318   -1.0343   -6.1705 C   0  0  0  0  0  0  0  0  0  0  0  0
    5.0604   -3.1950   -6.8647 C   0  0  0  0  0  0  0  0  0  0  0  0
    3.7248   -4.3967   -3.4461 Cl  0  0  0  0  0  0  0  0  0  0  0  0
    2.8518    0.9808   -6.4229 Cl  0  0  0  0  0  0  0  0  0  0  0  0
    7.0374   -1.2090   -7.0233 C   0  0  0  0  0  0  0  0  0  0  0  0
    6.1643   -3.3672   -7.7208 C   0  0  0  0  0  0  0  0  0  0  0  0
    7.1564   -2.3650   -7.8357 C   0  0  0  0  0  0  0  0  0  0  0  0
    8.2825   -2.5104   -8.8081 C   0  0  1  0  0  0  0  0  0  0  0  0
    9.2900   -3.6586   -8.4926 C   0  0  1  0  0  0  0  0  0  0  0  0
   10.4514   -3.7070   -9.4149 C   0  0  0  0  0  0  0  0  0  0  0  0
    9.7974   -3.5452   -7.1173 N   0  0  2  0  0  0  0  0  0  0  0  0
   10.6565   -2.7738  -10.3766 O   0  0  0  0  0  0  0  0  0  0  0  0
   11.2899   -4.6330   -9.3246 O   0  0  0  0  0  0  0  0  0  0  0  0
    5.0023   -1.7344   -3.5791 H   0  0  0  0  0  0  0  0  0  0  0  0
    3.5951   -0.7013   -3.5649 H   0  0  0  0  0  0  0  0  0  0  0  0
    2.5747   -1.9102   -7.0380 H   0  0  0  0  0  0  0  0  0  0  0  0
    1.8339   -2.4743   -5.5631 H   0  0  0  0  0  0  0  0  0  0  0  0
    3.3993   -2.6063   -1.9801 H   0  0  0  0  0  0  0  0  0  0  0  0
    2.1245   -2.6861   -3.1935 H   0  0  0  0  0  0  0  0  0  0  0  0
    1.5863   -0.1261   -4.7762 H   0  0  0  0  0  0  0  0  0  0  0  0
    0.9012   -0.3166   -6.3941 H   0  0  0  0  0  0  0  0  0  0  0  0
    5.8628   -0.1781   -5.6125 H   0  0  0  0  0  0  0  0  0  0  0  0
    4.3507   -3.9320   -6.8074 H   0  0  0  0  0  0  0  0  0  0  0  0
    7.7545   -0.4780   -7.0454 H   0  0  0  0  0  0  0  0  0  0  0  0
    6.2359   -4.2310   -8.2648 H   0  0  0  0  0  0  0  0  0  0  0  0
    7.8529   -2.6873   -9.7991 H   0  0  0  0  0  0  0  0  0  0  0  0
    8.8376   -1.5694   -8.8734 H   0  0  0  0  0  0  0  0  0  0  0  0
    8.7673   -4.6153   -8.5751 H   0  0  0  0  0  0  0  0  0  0  0  0
    8.9911   -3.6097   -6.4921 H   0  0  0  0  0  0  0  0  0  0  0  0
   10.1849   -2.6060   -7.0120 H   0  0  0  0  0  0  0  0  0  0  0  0
   11.4387   -2.8296  -10.9673 H   0  0  0  0  0  0  0  0  0  0  0  0
  1  2  1  0  0  0  0 
  1  3  1  0  0  0  0 
  1  4  1  0  0  0  0 
  2  5  1  0  0  0  0 
  3  6  1  0  0  0  0 
  4  7  2  0  0  0  0 
  4  8  1  0  0  0  0 
  5  9  1  0  0  0  0 
  6 10  1  0  0  0  0 
  7 11  1  0  0  0  0 
  8 12  2  0  0  0  0 
 11 13  2  0  0  0  0 
 12 13  1  0  0  0  0 
 13 14  1  0  0  0  0 
 15 14  1  0  0  0  0 
 15 16  1  0  0  0  0 
 15 17  1  0  0  0  0 
 16 18  1  0  0  0  0 
 16 19  2  0  0  0  0 
  2 20  1  0  0  0  0 
  2 21  1  0  0  0  0 
  3 22  1  0  0  0  0 
  3 23  1  0  0  0  0 
  5 24  1  0  0  0  0 
  5 25  1  0  0  0  0 
  6 26  1  0  0  0  0 
  6 27  1  0  0  0  0 
  7 28  1  0  0  0  0 
  8 29  1  0  0  0  0 
 11 30  1  0  0  0  0 
 12 31  1  0  0  0  0 
 14 32  1  0  0  0  0 
 14 33  1  0  0  0  0 
 15 34  1  0  0  0  0 
 17 35  1  0  0  0  0 
 17 36  1  0  0  0  0 
 18 37  1  0  0  0  0 
M  END
> <cdk:Title>
melphalan

> <Conformer>
1

> <SuperDrugID>
SD001484

$$$$
