dioxaphetyl butyrate
  CDK     0628171801

 53 55  0  0  0  0  0  0  0  0999 V2000
   -3.3845    2.5251    1.4315 C   0  0  2  0  0  0  0  0  0  0  0  0
   -2.1557    2.1531    0.5002 C   0  0  2  0  0  0  0  0  0  0  0  0
   -3.5325    4.0263    1.4356 C   0  0  0  0  0  0  0  0  0  0  0  0
   -3.2262    2.2276    2.9198 C   0  0  0  0  0  0  0  0  0  0  0  0
   -4.5973    1.8386    0.8092 C   0  0  0  0  0  0  0  0  0  0  0  0
   -1.9036    0.6386    0.2151 C   0  0  1  0  0  0  0  0  0  0  0  0
   -4.7833    4.5624    1.5463 O   0  0  0  0  0  0  0  0  0  0  0  0
   -2.5358    4.7887    1.4306 O   0  0  0  0  0  0  0  0  0  0  0  0
   -2.0345    1.7185    3.5012 C   0  0  0  0  0  0  0  0  0  0  0  0
   -4.3018    2.4992    3.8157 C   0  0  0  0  0  0  0  0  0  0  0  0
   -5.1006    0.5976    1.2893 C   0  0  0  0  0  0  0  0  0  0  0  0
   -5.2341    2.3766   -0.3435 C   0  0  0  0  0  0  0  0  0  0  0  0
   -0.5531    0.3906   -0.3868 N   0  0  1  0  0  0  0  0  0  0  0  0
   -5.1819    5.9310    1.5999 C   0  0  2  0  0  0  0  0  0  0  0  0
   -1.9070    1.5301    4.8901 C   0  0  0  0  0  0  0  0  0  0  0  0
   -4.1786    2.3254    5.2054 C   0  0  0  0  0  0  0  0  0  0  0  0
   -6.2060   -0.0383    0.6916 C   0  0  0  0  0  0  0  0  0  0  0  0
   -6.3438    1.7518   -0.9409 C   0  0  0  0  0  0  0  0  0  0  0  0
   -0.0461   -0.9986   -0.1518 C   0  0  1  0  0  0  0  0  0  0  0  0
   -0.4414    0.7955   -1.8261 C   0  0  2  0  0  0  0  0  0  0  0  0
   -6.7020    5.9537    1.8353 C   0  0  0  0  0  0  0  0  0  0  0  0
   -2.9747    1.8481    5.7444 C   0  0  0  0  0  0  0  0  0  0  0  0
   -6.8362    0.5455   -0.4185 C   0  0  0  0  0  0  0  0  0  0  0  0
    1.3872   -1.1530   -0.7155 C   0  0  1  0  0  0  0  0  0  0  0  0
    0.9983    0.5719   -2.3501 C   0  0  2  0  0  0  0  0  0  0  0  0
    1.4344   -0.7806   -2.1067 O   0  0  0  0  0  0  0  0  0  0  0  0
   -1.2374    2.5791    0.9126 H   0  0  0  0  0  0  0  0  0  0  0  0
   -2.2951    2.6416   -0.4675 H   0  0  0  0  0  0  0  0  0  0  0  0
   -1.9994    0.0899    1.1550 H   0  0  0  0  0  0  0  0  0  0  0  0
   -2.6789    0.2516   -0.4528 H   0  0  0  0  0  0  0  0  0  0  0  0
   -1.2283    1.4846    2.9294 H   0  0  0  0  0  0  0  0  0  0  0  0
   -5.1947    2.8463    3.4557 H   0  0  0  0  0  0  0  0  0  0  0  0
   -4.6523    0.1291    2.0790 H   0  0  0  0  0  0  0  0  0  0  0  0
   -4.8902    3.2400   -0.7667 H   0  0  0  0  0  0  0  0  0  0  0  0
   -4.9347    6.4357    0.6617 H   0  0  0  0  0  0  0  0  0  0  0  0
   -4.6795    6.4328    2.4285 H   0  0  0  0  0  0  0  0  0  0  0  0
   -1.0325    1.1650    5.2794 H   0  0  0  0  0  0  0  0  0  0  0  0
   -4.9624    2.5498    5.8209 H   0  0  0  0  0  0  0  0  0  0  0  0
   -6.5497   -0.9285    1.0584 H   0  0  0  0  0  0  0  0  0  0  0  0
   -6.7905    2.1719   -1.7595 H   0  0  0  0  0  0  0  0  0  0  0  0
   -0.0061   -1.2077    0.9203 H   0  0  0  0  0  0  0  0  0  0  0  0
   -0.7060   -1.7352   -0.6215 H   0  0  0  0  0  0  0  0  0  0  0  0
   -0.6725    1.8556   -1.9478 H   0  0  0  0  0  0  0  0  0  0  0  0
   -1.1428    0.2214   -2.4405 H   0  0  0  0  0  0  0  0  0  0  0  0
   -7.2154    5.4911    0.9900 H   0  0  0  0  0  0  0  0  0  0  0  0
   -7.0555    6.9796    1.9471 H   0  0  0  0  0  0  0  0  0  0  0  0
   -6.9496    5.3972    2.7424 H   0  0  0  0  0  0  0  0  0  0  0  0
   -2.8771    1.7304    6.7552 H   0  0  0  0  0  0  0  0  0  0  0  0
   -7.6461    0.0905   -0.8484 H   0  0  0  0  0  0  0  0  0  0  0  0
    2.0881   -0.5438   -0.1364 H   0  0  0  0  0  0  0  0  0  0  0  0
    1.7023   -2.1949   -0.6296 H   0  0  0  0  0  0  0  0  0  0  0  0
    1.6842    1.2837   -1.8796 H   0  0  0  0  0  0  0  0  0  0  0  0
    1.0229    0.7492   -3.4276 H   0  0  0  0  0  0  0  0  0  0  0  0
  1  2  1  0  0  0  0 
  1  3  1  0  0  0  0 
  1  4  1  0  0  0  0 
  1  5  1  0  0  0  0 
  2  6  1  0  0  0  0 
  3  7  1  0  0  0  0 
  3  8  2  0  0  0  0 
  4  9  2  0  0  0  0 
  4 10  1  0  0  0  0 
  5 11  2  0  0  0  0 
  5 12  1  0  0  0  0 
  6 13  1  0  0  0  0 
  7 14  1  0  0  0  0 
  9 15  1  0  0  0  0 
 10 16  2  0  0  0  0 
 11 17  1  0  0  0  0 
 12 18  2  0  0  0  0 
 13 19  1  0  0  0  0 
 13 20  1  0  0  0  0 
 14 21  1  0  0  0  0 
 15 22  2  0  0  0  0 
 16 22  1  0  0  0  0 
 17 23  2  0  0  0  0 
 18 23  1  0  0  0  0 
 19 24  1  0  0  0  0 
 20 25  1  0  0  0  0 
 24 26  1  0  0  0  0 
 25 26  1  0  0  0  0 
  2 27  1  0  0  0  0 
  2 28  1  0  0  0  0 
  6 29  1  0  0  0  0 
  6 30  1  0  0  0  0 
  9 31  1  0  0  0  0 
 10 32  1  0  0  0  0 
 11 33  1  0  0  0  0 
 12 34  1  0  0  0  0 
 14 35  1  0  0  0  0 
 14 36  1  0  0  0  0 
 15 37  1  0  0  0  0 
 16 38  1  0  0  0  0 
 17 39  1  0  0  0  0 
 18 40  1  0  0  0  0 
 19 41  1  0  0  0  0 
 19 42  1  0  0  0  0 
 20 43  1  0  0  0  0 
 20 44  1  0  0  0  0 
 21 45  1  0  0  0  0 
 21 46  1  0  0  0  0 
 21 47  1  0  0  0  0 
 22 48  1  0  0  0  0 
 23 49  1  0  0  0  0 
 24 50  1  0  0  0  0 
 24 51  1  0  0  0  0 
 25 52  1  0  0  0  0 
 25 53  1  0  0  0  0 
M  END
> <cdk:Title>
dioxaphetyl butyrate

> <Conformer>
1

> <SuperDrugID>
SD003190

$$$$
