latamoxef
  CDK     0628171801

 56 59  0  0  0  0  0  0  0  0999 V2000
    3.7803   -6.8676    5.0324 N   0  0  0  0  0  0  0  0  0  0  0  0
    3.2825   -8.0508    5.4991 C   0  0  0  0  0  0  0  0  0  0  0  0
    3.9363   -6.5566    3.6375 C   0  0  1  0  0  0  0  0  0  0  0  0
    3.1707   -8.3990    6.9435 C   0  0  1  0  0  0  0  0  0  0  0  0
    2.9002   -8.9223    4.6787 O   0  0  0  0  0  0  0  0  0  0  0  0
    4.6141   -7.5585    2.8417 O   0  0  0  0  0  0  0  0  0  0  0  0
    2.6149   -6.0790    2.9446 C   0  0  2  0  0  0  0  0  0  0  0  0
    4.3988   -5.1908    3.3482 C   0  0  0  0  0  0  0  0  0  0  0  0
    4.1406   -9.4690    7.2877 C   0  0  0  0  0  0  0  0  0  0  0  0
    3.2638   -7.2750    7.9384 C   0  0  0  0  0  0  0  0  0  0  0  0
    5.9676   -7.8606    3.2248 C   0  0  0  0  0  0  0  0  0  0  0  0
    3.2640   -4.8352    2.7419 N   0  0  0  0  0  0  0  0  0  0  0  0
    1.4520   -5.7508    3.7303 O   0  0  0  0  0  0  0  0  0  0  0  0
    5.4480   -4.5704    3.6348 O   0  0  0  0  0  0  0  0  0  0  0  0
    5.4738   -9.2791    7.1401 O   0  0  0  0  0  0  0  0  0  0  0  0
    3.7539  -10.5779    7.7238 O   0  0  0  0  0  0  0  0  0  0  0  0
    2.1658   -7.0003    8.7929 C   0  0  0  0  0  0  0  0  0  0  0  0
    4.4340   -6.4894    8.1006 C   0  0  0  0  0  0  0  0  0  0  0  0
    2.7117   -3.7067    2.2615 C   0  0  0  0  0  0  0  0  0  0  0  0
    0.6325   -4.7446    3.0708 C   0  0  2  0  0  0  0  0  0  0  0  0
    2.2221   -5.9737    9.7531 C   0  0  0  0  0  0  0  0  0  0  0  0
    4.4978   -5.4675    9.0673 C   0  0  0  0  0  0  0  0  0  0  0  0
    3.5442   -2.7684    1.6347 C   0  0  0  0  0  0  0  0  0  0  0  0
    1.3596   -3.6201    2.4213 C   0  0  0  0  0  0  0  0  0  0  0  0
    3.3898   -5.2014    9.8920 C   0  0  0  0  0  0  0  0  0  0  0  0
    3.2096   -1.4771    1.4065 O   0  0  0  0  0  0  0  0  0  0  0  0
    4.6769   -3.0984    1.2135 O   0  0  0  0  0  0  0  0  0  0  0  0
    0.5350   -2.4995    1.9554 C   0  0  1  0  0  0  0  0  0  0  0  0
    3.4652   -4.2090   10.8161 O   0  0  0  0  0  0  0  0  0  0  0  0
    0.3878   -2.4678    0.1344 S   0  0  0  0  0  0  0  0  0  0  0  0
   -0.6379   -1.0734   -0.1617 C   0  0  0  0  0  0  0  0  0  0  0  0
   -0.3224    0.0546   -0.8154 N   0  0  0  0  0  0  0  0  0  0  0  0
   -1.8980   -0.9490    0.2664 N   0  0  0  0  0  0  0  0  0  0  0  0
    0.9181    0.3743   -1.4406 C   0  0  0  0  0  0  0  0  0  0  0  0
   -1.3619    0.8225   -0.7739 N   0  0  0  0  0  0  0  0  0  0  0  0
   -2.3050    0.2137   -0.1272 N   0  0  0  0  0  0  0  0  0  0  0  0
    2.3833   -6.5946    2.0038 H   0  0  0  0  0  0  0  0  0  0  0  0
    4.0561   -6.2012    5.6790 H   0  0  0  0  0  0  0  0  0  0  0  0
    2.1700   -8.8380    7.0336 H   0  0  0  0  0  0  0  0  0  0  0  0
    6.3340   -8.6512    2.5700 H   0  0  0  0  0  0  0  0  0  0  0  0
    6.0227   -8.2164    4.2555 H   0  0  0  0  0  0  0  0  0  0  0  0
    6.6134   -6.9894    3.1032 H   0  0  0  0  0  0  0  0  0  0  0  0
    6.1006  -10.0023    7.3505 H   0  0  0  0  0  0  0  0  0  0  0  0
    1.3109   -7.5573    8.7322 H   0  0  0  0  0  0  0  0  0  0  0  0
    5.2582   -6.6575    7.5220 H   0  0  0  0  0  0  0  0  0  0  0  0
   -0.0329   -4.3560    3.8446 H   0  0  0  0  0  0  0  0  0  0  0  0
    0.0175   -5.2410    2.3160 H   0  0  0  0  0  0  0  0  0  0  0  0
    1.4138   -5.7963   10.3546 H   0  0  0  0  0  0  0  0  0  0  0  0
    5.3557   -4.9214    9.1723 H   0  0  0  0  0  0  0  0  0  0  0  0
    3.8266   -0.8885    0.9227 H   0  0  0  0  0  0  0  0  0  0  0  0
   -0.4840   -2.5617    2.3465 H   0  0  0  0  0  0  0  0  0  0  0  0
    0.9393   -1.5511    2.3139 H   0  0  0  0  0  0  0  0  0  0  0  0
    2.6087   -4.2142   11.2920 H   0  0  0  0  0  0  0  0  0  0  0  0
    1.7163    0.3635   -0.6947 H   0  0  0  0  0  0  0  0  0  0  0  0
    0.8852    1.3651   -1.9016 H   0  0  0  0  0  0  0  0  0  0  0  0
    1.1422   -0.3606   -2.2180 H   0  0  0  0  0  0  0  0  0  0  0  0
  1  2  1  0  0  0  0 
  3  1  1  0  0  0  0 
  4  2  1  0  0  0  0 
  2  5  2  0  0  0  0 
  3  6  1  0  0  0  0 
  7  3  1  0  0  0  0 
  3  8  1  0  0  0  0 
  4  9  1  0  0  0  0 
  4 10  1  0  0  0  0 
  6 11  1  0  0  0  0 
  7 12  1  0  0  0  0 
  7 13  1  0  0  0  0 
  7 37  1  0  0  0  0 
  8 12  1  0  0  0  0 
  8 14  2  0  0  0  0 
  9 15  1  0  0  0  0 
  9 16  2  0  0  0  0 
 10 17  2  0  0  0  0 
 10 18  1  0  0  0  0 
 12 19  1  0  0  0  0 
 13 20  1  0  0  0  0 
 17 21  1  0  0  0  0 
 18 22  2  0  0  0  0 
 19 23  1  0  0  0  0 
 19 24  2  0  0  0  0 
 20 24  1  0  0  0  0 
 21 25  2  0  0  0  0 
 22 25  1  0  0  0  0 
 23 26  1  0  0  0  0 
 23 27  2  0  0  0  0 
 24 28  1  0  0  0  0 
 25 29  1  0  0  0  0 
 28 30  1  0  0  0  0 
 30 31  1  0  0  0  0 
 31 32  1  0  0  0  0 
 31 33  2  0  0  0  0 
 32 34  1  0  0  0  0 
 32 35  1  0  0  0  0 
 33 36  1  0  0  0  0 
 35 36  2  0  0  0  0 
  1 38  1  0  0  0  0 
  4 39  1  0  0  0  0 
 11 40  1  0  0  0  0 
 11 41  1  0  0  0  0 
 11 42  1  0  0  0  0 
 15 43  1  0  0  0  0 
 17 44  1  0  0  0  0 
 18 45  1  0  0  0  0 
 20 46  1  0  0  0  0 
 20 47  1  0  0  0  0 
 21 48  1  0  0  0  0 
 22 49  1  0  0  0  0 
 26 50  1  0  0  0  0 
 28 51  1  0  0  0  0 
 28 52  1  0  0  0  0 
 29 53  1  0  0  0  0 
 34 54  1  0  0  0  0 
 34 55  1  0  0  0  0 
 34 56  1  0  0  0  0 
M  END
> <cdk:Title>
latamoxef

> <Conformer>
1

> <SuperDrugID>
SD001647

$$$$
