fenspiride
  CDK     0628171801

 39 41  0  0  0  0  0  0  0  0999 V2000
   -7.2663   -0.3475   -1.6470 O   0  0  0  0  0  0  0  0  0  0  0  0
   -7.7291   -1.0769   -0.7446 C   0  0  0  0  0  0  0  0  0  0  0  0
   -8.6442   -0.6879    0.1610 O   0  0  0  0  0  0  0  0  0  0  0  0
   -7.3823   -2.3459   -0.5505 N   0  0  0  0  0  0  0  0  0  0  0  0
   -8.9601   -1.7514    1.0686 C   0  0  1  0  0  0  0  0  0  0  0  0
   -8.0798   -2.9273    0.5261 C   0  0  1  0  0  0  0  0  0  0  0  0
   -8.5482   -1.3228    2.5164 C   0  0  2  0  0  0  0  0  0  0  0  0
  -10.4872   -2.0568    0.9686 C   0  0  1  0  0  0  0  0  0  0  0  0
   -9.5201   -0.2847    3.1452 C   0  0  1  0  0  0  0  0  0  0  0  0
  -11.3457   -0.9406    1.6226 C   0  0  1  0  0  0  0  0  0  0  0  0
  -10.9598   -0.6916    3.0484 N   0  0  1  0  0  0  0  0  0  0  0  0
  -11.4129   -1.7605    4.0024 C   0  0  2  0  0  0  0  0  0  0  0  0
  -11.4759   -1.3193    5.4881 C   0  0  1  0  0  0  0  0  0  0  0  0
  -12.2821   -0.0916    5.7311 C   0  0  0  0  0  0  0  0  0  0  0  0
  -13.6823   -0.0878    5.5158 C   0  0  0  0  0  0  0  0  0  0  0  0
  -11.6719    1.0867    6.2244 C   0  0  0  0  0  0  0  0  0  0  0  0
  -14.4540    1.0499    5.8228 C   0  0  0  0  0  0  0  0  0  0  0  0
  -12.4449    2.2207    6.5371 C   0  0  0  0  0  0  0  0  0  0  0  0
  -13.8377    2.1986    6.3499 C   0  0  0  0  0  0  0  0  0  0  0  0
   -6.7271   -2.8168   -1.0881 H   0  0  0  0  0  0  0  0  0  0  0  0
   -8.6702   -3.7701    0.1600 H   0  0  0  0  0  0  0  0  0  0  0  0
   -7.3640   -3.2974    1.2606 H   0  0  0  0  0  0  0  0  0  0  0  0
   -7.5394   -0.8959    2.5027 H   0  0  0  0  0  0  0  0  0  0  0  0
   -8.5158   -2.2041    3.1617 H   0  0  0  0  0  0  0  0  0  0  0  0
  -10.7773   -2.1599   -0.0800 H   0  0  0  0  0  0  0  0  0  0  0  0
  -10.7002   -3.0074    1.4652 H   0  0  0  0  0  0  0  0  0  0  0  0
   -9.2331   -0.1018    4.1828 H   0  0  0  0  0  0  0  0  0  0  0  0
   -9.3940    0.6713    2.6278 H   0  0  0  0  0  0  0  0  0  0  0  0
  -11.2206   -0.0118    1.0584 H   0  0  0  0  0  0  0  0  0  0  0  0
  -12.4053   -1.2047    1.5484 H   0  0  0  0  0  0  0  0  0  0  0  0
  -10.7602   -2.6335    3.9333 H   0  0  0  0  0  0  0  0  0  0  0  0
  -12.4143   -2.0995    3.7231 H   0  0  0  0  0  0  0  0  0  0  0  0
  -11.9137   -2.1333    6.0716 H   0  0  0  0  0  0  0  0  0  0  0  0
  -10.4553   -1.1997    5.8613 H   0  0  0  0  0  0  0  0  0  0  0  0
  -14.1540   -0.9168    5.1459 H   0  0  0  0  0  0  0  0  0  0  0  0
  -10.6597    1.1246    6.3683 H   0  0  0  0  0  0  0  0  0  0  0  0
  -15.4650    1.0379    5.6730 H   0  0  0  0  0  0  0  0  0  0  0  0
  -11.9933    3.0589    6.9103 H   0  0  0  0  0  0  0  0  0  0  0  0
  -14.4006    3.0161    6.5972 H   0  0  0  0  0  0  0  0  0  0  0  0
  1  2  2  0  0  0  0 
  2  3  1  0  0  0  0 
  2  4  1  0  0  0  0 
  3  5  1  0  0  0  0 
  4  6  1  0  0  0  0 
  5  6  1  0  0  0  0 
  5  7  1  0  0  0  0 
  5  8  1  0  0  0  0 
  7  9  1  0  0  0  0 
  8 10  1  0  0  0  0 
  9 11  1  0  0  0  0 
 10 11  1  0  0  0  0 
 11 12  1  0  0  0  0 
 12 13  1  0  0  0  0 
 13 14  1  0  0  0  0 
 14 15  2  0  0  0  0 
 14 16  1  0  0  0  0 
 15 17  1  0  0  0  0 
 16 18  2  0  0  0  0 
 17 19  2  0  0  0  0 
 18 19  1  0  0  0  0 
 20  4  1  0  0  0  0 
 21  6  1  0  0  0  0 
 22  6  1  0  0  0  0 
 23  7  1  0  0  0  0 
 24  7  1  0  0  0  0 
 25  8  1  0  0  0  0 
 26  8  1  0  0  0  0 
 27  9  1  0  0  0  0 
 28  9  1  0  0  0  0 
 29 10  1  0  0  0  0 
 30 10  1  0  0  0  0 
 31 12  1  0  0  0  0 
 32 12  1  0  0  0  0 
 33 13  1  0  0  0  0 
 34 13  1  0  0  0  0 
 35 15  1  0  0  0  0 
 36 16  1  0  0  0  0 
 37 17  1  0  0  0  0 
 38 18  1  0  0  0  0 
 39 19  1  0  0  0  0 
M  END
> <cdk:Title>
fenspiride

> <Conformer>
1

> <SuperDrugID>
SD001040

$$$$
