amprenavir
  CDK     0628171801

 70 72  0  0  0  0  0  0  0  0999 V2000
    3.7522    5.0934    1.0100 N   0  0  1  0  0  0  0  0  0  0  0  0
    2.4110    6.2553    1.1594 S   0  0  2  0  0  0  0  0  0  0  0  0
    4.5536    5.2376   -0.2514 C   0  0  2  0  0  0  0  0  0  0  0  0
    4.5989    5.0318    2.2504 C   0  0  1  0  0  0  0  0  0  0  0  0
    1.7086    6.0756    2.5922 O   0  0  0  0  0  0  0  0  0  0  0  0
    1.2881    5.9132    0.0653 O   0  0  0  0  0  0  0  0  0  0  0  0
    2.9908    7.9207    0.9795 C   0  0  0  0  0  0  0  0  0  0  0  0
    3.8125    5.0109   -1.6035 C   0  0  2  0  0  0  0  0  0  0  0  0
    5.1182    3.5923    2.5514 C   0  0  1  0  0  0  0  0  0  0  0  0
    2.8158    8.6076   -0.2403 C   0  0  0  0  0  0  0  0  0  0  0  0
    3.6347    8.5741    2.0514 C   0  0  0  0  0  0  0  0  0  0  0  0
    3.1033    3.6275   -1.7756 C   0  0  2  0  0  0  0  0  0  0  0  0
    4.7332    5.2219   -2.6748 O   0  0  0  0  0  0  0  0  0  0  0  0
    6.0323    3.5787    3.8097 C   0  0  0  0  0  0  0  0  0  0  0  0
    3.9442    2.5857    2.7091 C   0  0  0  0  0  0  0  0  0  0  0  0
    3.2776    9.9291   -0.3876 C   0  0  0  0  0  0  0  0  0  0  0  0
    4.0944    9.8973    1.9071 C   0  0  0  0  0  0  0  0  0  0  0  0
    4.0642    2.3878   -1.7872 C   0  0  1  0  0  0  0  0  0  0  0  0
    2.3202    3.6798   -2.9774 N   0  0  0  0  0  0  0  0  0  0  0  0
    3.9158   10.5799    0.6871 C   0  0  0  0  0  0  0  0  0  0  0  0
    5.0159    2.3212   -2.9393 C   0  0  0  0  0  0  0  0  0  0  0  0
    1.3323    2.8177   -3.3256 C   0  0  0  0  0  0  0  0  0  0  0  0
    4.3472   11.8497    0.5493 N   0  0  0  0  0  0  0  0  0  0  0  0
    4.5671    2.0055   -4.2470 C   0  0  0  0  0  0  0  0  0  0  0  0
    6.3949    2.5818   -2.7543 C   0  0  0  0  0  0  0  0  0  0  0  0
    0.8960    2.8938   -4.6137 O   0  0  0  0  0  0  0  0  0  0  0  0
    0.8899    1.9487   -2.5386 O   0  0  0  0  0  0  0  0  0  0  0  0
    5.4499    2.0105   -5.3419 C   0  0  0  0  0  0  0  0  0  0  0  0
    7.2851    2.5612   -3.8447 C   0  0  0  0  0  0  0  0  0  0  0  0
   -0.0448    2.0271   -5.2692 C   0  0  1  0  0  0  0  0  0  0  0  0
    6.8115    2.2872   -5.1398 C   0  0  0  0  0  0  0  0  0  0  0  0
   -1.5226    2.3235   -4.7068 C   0  0  2  0  0  0  0  0  0  0  0  0
    0.0490    2.3382   -6.8228 C   0  0  1  0  0  0  0  0  0  0  0  0
   -2.1262    2.8132   -6.1408 C   0  0  2  0  0  0  0  0  0  0  0  0
   -1.0609    3.2198   -7.0682 O   0  0  0  0  0  0  0  0  0  0  0  0
    5.3917    4.5402   -0.2289 H   0  0  0  0  0  0  0  0  0  0  0  0
    4.9931    6.2381   -0.2691 H   0  0  0  0  0  0  0  0  0  0  0  0
    5.4431    5.7231    2.1616 H   0  0  0  0  0  0  0  0  0  0  0  0
    4.0381    5.3479    3.1326 H   0  0  0  0  0  0  0  0  0  0  0  0
    3.0664    5.7989   -1.7137 H   0  0  0  0  0  0  0  0  0  0  0  0
    5.7317    3.2593    1.7102 H   0  0  0  0  0  0  0  0  0  0  0  0
    2.3499    8.1545   -1.0281 H   0  0  0  0  0  0  0  0  0  0  0  0
    3.7699    8.0937    2.9440 H   0  0  0  0  0  0  0  0  0  0  0  0
    2.4160    3.5090   -0.9325 H   0  0  0  0  0  0  0  0  0  0  0  0
    5.1027    6.1181   -2.5273 H   0  0  0  0  0  0  0  0  0  0  0  0
    6.9048    4.2170    3.6515 H   0  0  0  0  0  0  0  0  0  0  0  0
    6.3873    2.5661    4.0130 H   0  0  0  0  0  0  0  0  0  0  0  0
    5.4925    3.9393    4.6889 H   0  0  0  0  0  0  0  0  0  0  0  0
    3.3179    2.5828    1.8150 H   0  0  0  0  0  0  0  0  0  0  0  0
    4.3287    1.5741    2.8513 H   0  0  0  0  0  0  0  0  0  0  0  0
    3.3238    2.8492    3.5689 H   0  0  0  0  0  0  0  0  0  0  0  0
    3.1419   10.4127   -1.2790 H   0  0  0  0  0  0  0  0  0  0  0  0
    4.5549   10.3611    2.6953 H   0  0  0  0  0  0  0  0  0  0  0  0
    4.6062    2.3662   -0.8393 H   0  0  0  0  0  0  0  0  0  0  0  0
    3.4671    1.4735   -1.7941 H   0  0  0  0  0  0  0  0  0  0  0  0
    2.5705    4.3475   -3.6355 H   0  0  0  0  0  0  0  0  0  0  0  0
    4.7866   12.2974    1.2905 H   0  0  0  0  0  0  0  0  0  0  0  0
    4.2218   12.3182   -0.2925 H   0  0  0  0  0  0  0  0  0  0  0  0
    3.5907    1.7673   -4.4189 H   0  0  0  0  0  0  0  0  0  0  0  0
    6.7607    2.7979   -1.8232 H   0  0  0  0  0  0  0  0  0  0  0  0
    5.1036    1.8104   -6.2837 H   0  0  0  0  0  0  0  0  0  0  0  0
    8.2780    2.7498   -3.6956 H   0  0  0  0  0  0  0  0  0  0  0  0
    0.3417    0.9789   -5.1374 H   0  0  0  0  0  0  0  0  0  0  0  0
    7.4550    2.2844   -5.9330 H   0  0  0  0  0  0  0  0  0  0  0  0
   -1.5440    3.1290   -3.9703 H   0  0  0  0  0  0  0  0  0  0  0  0
   -2.0202    1.4226   -4.3426 H   0  0  0  0  0  0  0  0  0  0  0  0
    0.9916    2.8128   -7.1089 H   0  0  0  0  0  0  0  0  0  0  0  0
   -0.0759    1.4190   -7.4033 H   0  0  0  0  0  0  0  0  0  0  0  0
   -2.8274    3.6848   -6.0958 H   0  0  0  0  0  0  0  0  0  0  0  0
   -2.7052    2.0295   -6.6986 H   0  0  0  0  0  0  0  0  0  0  0  0
  1  2  1  0  0  0  0 
  1  3  1  0  0  0  0 
  1  4  1  0  0  0  0 
  2  5  2  0  0  0  0 
  2  6  2  0  0  0  0 
  2  7  1  0  0  0  0 
  8  3  1  0  0  0  0 
  4  9  1  0  0  0  0 
  7 10  2  0  0  0  0 
  7 11  1  0  0  0  0 
  8 12  1  0  0  0  0 
  8 13  1  0  0  0  0 
  9 14  1  0  0  0  0 
  9 15  1  0  0  0  0 
 10 16  1  0  0  0  0 
 11 17  2  0  0  0  0 
 12 18  1  0  0  0  0 
 12 19  1  0  0  0  0 
 16 20  2  0  0  0  0 
 17 20  1  0  0  0  0 
 18 21  1  0  0  0  0 
 19 22  1  0  0  0  0 
 20 23  1  0  0  0  0 
 21 24  2  0  0  0  0 
 21 25  1  0  0  0  0 
 22 26  1  0  0  0  0 
 22 27  2  0  0  0  0 
 24 28  1  0  0  0  0 
 25 29  2  0  0  0  0 
 28 31  2  0  0  0  0 
 29 31  1  0  0  0  0 
 30 26  1  0  0  0  0 
 30 32  1  0  0  0  0 
 30 33  1  0  0  0  0 
 32 34  1  0  0  0  0 
 33 35  1  0  0  0  0 
 34 35  1  0  0  0  0 
 36  3  1  0  0  0  0 
 37  3  1  0  0  0  0 
 38  4  1  0  0  0  0 
 39  4  1  0  0  0  0 
  8 40  1  0  0  0  0 
 41  9  1  0  0  0  0 
 42 10  1  0  0  0  0 
 43 11  1  0  0  0  0 
 12 44  1  0  0  0  0 
 45 13  1  0  0  0  0 
 46 14  1  0  0  0  0 
 47 14  1  0  0  0  0 
 48 14  1  0  0  0  0 
 49 15  1  0  0  0  0 
 50 15  1  0  0  0  0 
 51 15  1  0  0  0  0 
 52 16  1  0  0  0  0 
 53 17  1  0  0  0  0 
 54 18  1  0  0  0  0 
 55 18  1  0  0  0  0 
 56 19  1  0  0  0  0 
 57 23  1  0  0  0  0 
 58 23  1  0  0  0  0 
 59 24  1  0  0  0  0 
 60 25  1  0  0  0  0 
 61 28  1  0  0  0  0 
 62 29  1  0  0  0  0 
 30 63  1  0  0  0  0 
 64 31  1  0  0  0  0 
 65 32  1  0  0  0  0 
 66 32  1  0  0  0  0 
 67 33  1  0  0  0  0 
 68 33  1  0  0  0  0 
 69 34  1  0  0  0  0 
 70 34  1  0  0  0  0 
M  END
> <cdk:Title>
amprenavir

> <Conformer>
1

> <SuperDrugID>
SD000165

$$$$
