domitroban
  CDK     0628171801

 53 55  0  0  0  0  0  0  0  0999 V2000
    1.0765    4.0737   -3.2032 N   0  0  2  0  0  0  0  0  0  0  0  0
   -0.2221    3.6702   -4.3317 S   0  0  1  0  0  0  0  0  0  0  0  0
    2.3685    3.4019   -3.4878 C   0  0  2  0  0  0  0  0  0  0  0  0
   -1.4896    4.5838   -3.9686 O   0  0  0  0  0  0  0  0  0  0  0  0
    0.2317    4.0126   -5.8314 O   0  0  0  0  0  0  0  0  0  0  0  0
   -0.6499    1.9622   -4.1537 C   0  0  0  0  0  0  0  0  0  0  0  0
    3.3788    3.5181   -2.2971 C   0  0  1  0  0  0  0  0  0  0  0  0
    3.1667    4.0313   -4.6713 C   0  0  2  0  0  0  0  0  0  0  0  0
   -0.8568    1.4236   -2.8664 C   0  0  0  0  0  0  0  0  0  0  0  0
   -0.7741    1.1246   -5.2818 C   0  0  0  0  0  0  0  0  0  0  0  0
    3.7802    2.1795   -1.5859 C   0  0  1  0  0  0  0  0  0  0  0  0
    4.5969    4.2061   -2.9976 C   0  0  1  0  0  0  0  0  0  0  0  0
    4.6040    3.5665   -4.3977 C   0  0  2  0  0  0  0  0  0  0  0  0
    3.3033    5.5706   -4.5250 C   0  0  1  0  0  0  0  0  0  0  0  0
   -1.1613    0.0588   -2.7082 C   0  0  0  0  0  0  0  0  0  0  0  0
   -1.0785   -0.2408   -5.1235 C   0  0  0  0  0  0  0  0  0  0  0  0
    2.6461    1.4122   -1.0884 C   0  0  0  0  0  0  0  0  0  0  0  0
    4.2941    5.6953   -3.3393 C   0  0  2  0  0  0  0  0  0  0  0  0
   -1.2653   -0.7750   -3.8358 C   0  0  0  0  0  0  0  0  0  0  0  0
    2.2927    0.1528   -1.4152 C   0  0  0  0  0  0  0  0  0  0  0  0
    2.9406   -0.7618   -2.3538 C   0  0  1  0  0  0  0  0  0  0  0  0
    2.8077   -0.3695   -3.8531 C   0  0  1  0  0  0  0  0  0  0  0  0
    3.1640   -1.5075   -4.8471 C   0  0  2  0  0  0  0  0  0  0  0  0
    3.2104   -1.0246   -6.2448 C   0  0  0  0  0  0  0  0  0  0  0  0
    2.1381   -0.4079   -6.7951 O   0  0  0  0  0  0  0  0  0  0  0  0
    4.2411   -1.1651   -6.9427 O   0  0  0  0  0  0  0  0  0  0  0  0
    0.7627    3.7613   -2.2818 H   0  0  0  0  0  0  0  0  0  0  0  0
    2.1721    2.3594   -3.7119 H   0  0  0  0  0  0  0  0  0  0  0  0
    2.9824    4.1888   -1.5275 H   0  0  0  0  0  0  0  0  0  0  0  0
    2.8062    3.7224   -5.6544 H   0  0  0  0  0  0  0  0  0  0  0  0
   -0.7839    2.0158   -2.0369 H   0  0  0  0  0  0  0  0  0  0  0  0
   -0.6377    1.4965   -6.2244 H   0  0  0  0  0  0  0  0  0  0  0  0
    4.4072    1.5764   -2.2380 H   0  0  0  0  0  0  0  0  0  0  0  0
    4.4044    2.4363   -0.7240 H   0  0  0  0  0  0  0  0  0  0  0  0
    5.5404    4.0869   -2.4536 H   0  0  0  0  0  0  0  0  0  0  0  0
    5.3461    3.9988   -5.0780 H   0  0  0  0  0  0  0  0  0  0  0  0
    4.7154    2.4809   -4.3999 H   0  0  0  0  0  0  0  0  0  0  0  0
    3.7295    6.0030   -5.4362 H   0  0  0  0  0  0  0  0  0  0  0  0
    2.3464    6.0610   -4.3237 H   0  0  0  0  0  0  0  0  0  0  0  0
   -1.3066   -0.3291   -1.7718 H   0  0  0  0  0  0  0  0  0  0  0  0
   -1.1644   -0.8450   -5.9442 H   0  0  0  0  0  0  0  0  0  0  0  0
    2.0750    1.8746   -0.4162 H   0  0  0  0  0  0  0  0  0  0  0  0
    5.2080    6.2106   -3.6504 H   0  0  0  0  0  0  0  0  0  0  0  0
    3.8582    6.2353   -2.4949 H   0  0  0  0  0  0  0  0  0  0  0  0
   -1.4815   -1.7673   -3.7187 H   0  0  0  0  0  0  0  0  0  0  0  0
    1.4858   -0.2047   -0.9550 H   0  0  0  0  0  0  0  0  0  0  0  0
    3.9965   -0.8663   -2.0917 H   0  0  0  0  0  0  0  0  0  0  0  0
    2.4825   -1.7481   -2.2209 H   0  0  0  0  0  0  0  0  0  0  0  0
    1.7829   -0.0454   -4.0447 H   0  0  0  0  0  0  0  0  0  0  0  0
    3.4784    0.4621   -4.0588 H   0  0  0  0  0  0  0  0  0  0  0  0
    2.4170   -2.3027   -4.7752 H   0  0  0  0  0  0  0  0  0  0  0  0
    4.1366   -1.9303   -4.5790 H   0  0  0  0  0  0  0  0  0  0  0  0
    2.1838   -0.0731   -7.7162 H   0  0  0  0  0  0  0  0  0  0  0  0
  1  2  1  0  0  0  0 
  2  4  2  0  0  0  0 
  2  5  2  0  0  0  0 
  2  6  1  0  0  0  0 
  3  1  1  0  0  0  0 
  7  3  1  0  0  0  0 
  3  8  1  0  0  0  0 
  6  9  2  0  0  0  0 
  6 10  1  0  0  0  0 
  7 11  1  0  0  0  0 
 12  7  1  0  0  0  0 
  8 13  1  0  0  0  0 
  8 14  1  0  0  0  0 
  9 15  1  0  0  0  0 
 10 16  2  0  0  0  0 
 11 17  1  0  0  0  0 
 12 13  1  0  0  0  0 
 12 18  1  0  0  0  0 
 14 18  1  0  0  0  0 
 15 19  2  0  0  0  0 
 16 19  1  0  0  0  0 
 17 20  2  0  0  0  0 
 20 21  1  0  0  0  0 
 21 22  1  0  0  0  0 
 22 23  1  0  0  0  0 
 23 24  1  0  0  0  0 
 24 25  1  0  0  0  0 
 24 26  2  0  0  0  0 
  1 27  1  0  0  0  0 
  3 28  1  0  0  0  0 
  7 29  1  0  0  0  0 
  8 30  1  0  0  0  0 
  9 31  1  0  0  0  0 
 10 32  1  0  0  0  0 
 11 33  1  0  0  0  0 
 11 34  1  0  0  0  0 
 12 35  1  0  0  0  0 
 13 36  1  0  0  0  0 
 13 37  1  0  0  0  0 
 14 38  1  0  0  0  0 
 14 39  1  0  0  0  0 
 15 40  1  0  0  0  0 
 16 41  1  0  0  0  0 
 17 42  1  0  0  0  0 
 18 43  1  0  0  0  0 
 18 44  1  0  0  0  0 
 19 45  1  0  0  0  0 
 20 46  1  0  0  0  0 
 21 47  1  0  0  0  0 
 21 48  1  0  0  0  0 
 22 49  1  0  0  0  0 
 22 50  1  0  0  0  0 
 23 51  1  0  0  0  0 
 23 52  1  0  0  0  0 
 25 53  1  0  0  0  0 
M  END
> <cdk:Title>
domitroban

> <Conformer>
1

> <SuperDrugID>
SD002740

$$$$
