procaine
  CDK     0628171801

 37 37  0  0  0  0  0  0  0  0999 V2000
    3.0841   -4.4189   -0.8132 C   0  0  0  0  0  0  0  0  0  0  0  0
    1.9920   -3.3652   -0.5284 C   0  0  1  0  0  0  0  0  0  0  0  0
    0.5996   -3.8987   -0.7034 N   0  0  2  0  0  0  0  0  0  0  0  0
    0.1711   -4.0258   -2.1346 C   0  0  2  0  0  0  0  0  0  0  0  0
   -1.0683   -4.9212   -2.3410 C   0  0  0  0  0  0  0  0  0  0  0  0
   -0.4250   -3.3699    0.2643 C   0  0  2  0  0  0  0  0  0  0  0  0
   -0.9716   -1.9490   -0.0169 C   0  0  2  0  0  0  0  0  0  0  0  0
    0.1118   -1.0230   -0.1512 O   0  0  0  0  0  0  0  0  0  0  0  0
    0.0334    0.3274   -0.3502 C   0  0  0  0  0  0  0  0  0  0  0  0
   -1.0930    0.8802   -0.3436 O   0  0  0  0  0  0  0  0  0  0  0  0
    1.2184    1.0726   -0.6003 C   0  0  0  0  0  0  0  0  0  0  0  0
    1.1682    2.3642   -1.1826 C   0  0  0  0  0  0  0  0  0  0  0  0
    2.3479    3.0431   -1.5446 C   0  0  0  0  0  0  0  0  0  0  0  0
    3.6046    2.4510   -1.3142 C   0  0  0  0  0  0  0  0  0  0  0  0
    4.7334    3.0866   -1.6859 N   0  0  0  0  0  0  0  0  0  0  0  0
    3.6737    1.1908   -0.6903 C   0  0  0  0  0  0  0  0  0  0  0  0
    2.4931    0.5175   -0.3265 C   0  0  0  0  0  0  0  0  0  0  0  0
    2.8379   -5.3588   -0.3194 H   0  0  0  0  0  0  0  0  0  0  0  0
    3.1870   -4.5966   -1.8838 H   0  0  0  0  0  0  0  0  0  0  0  0
    4.0457   -4.0664   -0.4364 H   0  0  0  0  0  0  0  0  0  0  0  0
    2.1472   -3.0283    0.4997 H   0  0  0  0  0  0  0  0  0  0  0  0
    2.1570   -2.5059   -1.1832 H   0  0  0  0  0  0  0  0  0  0  0  0
    0.9747   -4.4824   -2.7146 H   0  0  0  0  0  0  0  0  0  0  0  0
   -0.0177   -3.0402   -2.5665 H   0  0  0  0  0  0  0  0  0  0  0  0
   -1.1567   -5.2012   -3.3928 H   0  0  0  0  0  0  0  0  0  0  0  0
   -1.9755   -4.3932   -2.0424 H   0  0  0  0  0  0  0  0  0  0  0  0
   -0.9723   -5.8301   -1.7462 H   0  0  0  0  0  0  0  0  0  0  0  0
   -0.0053   -3.3748    1.2736 H   0  0  0  0  0  0  0  0  0  0  0  0
   -1.2720   -4.0581    0.2995 H   0  0  0  0  0  0  0  0  0  0  0  0
   -1.6268   -1.6384    0.8039 H   0  0  0  0  0  0  0  0  0  0  0  0
   -1.5550   -1.9544   -0.9411 H   0  0  0  0  0  0  0  0  0  0  0  0
    0.2699    2.8201   -1.3633 H   0  0  0  0  0  0  0  0  0  0  0  0
    2.2859    3.9690   -1.9762 H   0  0  0  0  0  0  0  0  0  0  0  0
    4.6862    3.9507   -2.1226 H   0  0  0  0  0  0  0  0  0  0  0  0
    5.5976    2.6810   -1.5182 H   0  0  0  0  0  0  0  0  0  0  0  0
    4.5809    0.7558   -0.4963 H   0  0  0  0  0  0  0  0  0  0  0  0
    2.5809   -0.3861    0.1431 H   0  0  0  0  0  0  0  0  0  0  0  0
  1  2  1  0  0  0  0 
  2  3  1  0  0  0  0 
  3  4  1  0  0  0  0 
  4  5  1  0  0  0  0 
  3  6  1  0  0  0  0 
  6  7  1  0  0  0  0 
  7  8  1  0  0  0  0 
  8  9  1  0  0  0  0 
  9 10  2  0  0  0  0 
  9 11  1  0  0  0  0 
 11 12  2  0  0  0  0 
 12 13  1  0  0  0  0 
 13 14  2  0  0  0  0 
 14 15  1  0  0  0  0 
 14 16  1  0  0  0  0 
 16 17  2  0  0  0  0 
 11 17  1  0  0  0  0 
  1 18  1  0  0  0  0 
  1 19  1  0  0  0  0 
  1 20  1  0  0  0  0 
  2 21  1  0  0  0  0 
  2 22  1  0  0  0  0 
  4 23  1  0  0  0  0 
  4 24  1  0  0  0  0 
  5 25  1  0  0  0  0 
  5 26  1  0  0  0  0 
  5 27  1  0  0  0  0 
  6 28  1  0  0  0  0 
  6 29  1  0  0  0  0 
  7 30  1  0  0  0  0 
  7 31  1  0  0  0  0 
 12 32  1  0  0  0  0 
 13 33  1  0  0  0  0 
 15 34  1  0  0  0  0 
 15 35  1  0  0  0  0 
 16 36  1  0  0  0  0 
 17 37  1  0  0  0  0 
M  END
> <cdk:Title>
procaine

> <Conformer>
1

> <SuperDrugID>
SD002037

$$$$
