tolonidine
  CDK     0628171801

 26 27  0  0  0  0  0  0  0  0999 V2000
   -1.1915    1.9157   -0.7717 N   0  0  0  0  0  0  0  0  0  0  0  0
   -2.1507    2.2661   -1.6315 C   0  0  0  0  0  0  0  0  0  0  0  0
   -0.4140    0.8993   -0.6511 C   0  0  0  0  0  0  0  0  0  0  0  0
   -2.4846    3.6415   -1.7104 C   0  0  0  0  0  0  0  0  0  0  0  0
   -2.8603    1.3553   -2.4518 C   0  0  0  0  0  0  0  0  0  0  0  0
    0.4560    0.8156    0.3240 N   0  0  0  0  0  0  0  0  0  0  0  0
   -0.2996   -0.1545   -1.4265 N   0  0  0  0  0  0  0  0  0  0  0  0
   -1.7169    4.8084   -0.7409 Cl  0  0  0  0  0  0  0  0  0  0  0  0
   -3.4708    4.0875   -2.6156 C   0  0  0  0  0  0  0  0  0  0  0  0
   -3.8476    1.8053   -3.3472 C   0  0  0  0  0  0  0  0  0  0  0  0
    1.2570   -0.3470    0.2556 C   0  0  2  0  0  0  0  0  0  0  0  0
    0.7219   -1.0395   -1.0140 C   0  0  1  0  0  0  0  0  0  0  0  0
   -4.1593    3.1779   -3.4476 C   0  0  0  0  0  0  0  0  0  0  0  0
   -5.1901    3.6689   -4.3927 C   0  0  0  0  0  0  0  0  0  0  0  0
   -2.6801    0.3529   -2.4009 H   0  0  0  0  0  0  0  0  0  0  0  0
    0.5522    1.4881    1.0163 H   0  0  0  0  0  0  0  0  0  0  0  0
   -0.8417   -0.3102   -2.2130 H   0  0  0  0  0  0  0  0  0  0  0  0
   -3.6918    5.0856   -2.6707 H   0  0  0  0  0  0  0  0  0  0  0  0
   -4.3427    1.1204   -3.9240 H   0  0  0  0  0  0  0  0  0  0  0  0
    1.1154   -0.9629    1.1468 H   0  0  0  0  0  0  0  0  0  0  0  0
    2.3098   -0.0756    0.1510 H   0  0  0  0  0  0  0  0  0  0  0  0
    0.3078   -2.0263   -0.7954 H   0  0  0  0  0  0  0  0  0  0  0  0
    1.4913   -1.1158   -1.7871 H   0  0  0  0  0  0  0  0  0  0  0  0
   -5.6272    2.8609   -4.9834 H   0  0  0  0  0  0  0  0  0  0  0  0
   -5.9941    4.1592   -3.8409 H   0  0  0  0  0  0  0  0  0  0  0  0
   -4.7433    4.3878   -5.0811 H   0  0  0  0  0  0  0  0  0  0  0  0
  1  2  1  0  0  0  0 
  1  3  2  0  0  0  0 
  2  4  2  0  0  0  0 
  2  5  1  0  0  0  0 
  3  6  1  0  0  0  0 
  3  7  1  0  0  0  0 
  4  8  1  0  0  0  0 
  4  9  1  0  0  0  0 
  5 10  2  0  0  0  0 
  6 11  1  0  0  0  0 
  7 12  1  0  0  0  0 
  9 13  2  0  0  0  0 
 10 13  1  0  0  0  0 
 11 12  1  0  0  0  0 
 13 14  1  0  0  0  0 
 15  5  1  0  0  0  0 
 16  6  1  0  0  0  0 
 17  7  1  0  0  0  0 
 18  9  1  0  0  0  0 
 19 10  1  0  0  0  0 
 20 11  1  0  0  0  0 
 21 11  1  0  0  0  0 
 22 12  1  0  0  0  0 
 23 12  1  0  0  0  0 
 24 14  1  0  0  0  0 
 25 14  1  0  0  0  0 
 26 14  1  0  0  0  0 
M  END
> <cdk:Title>
tolonidine

> <Conformer>
1

> <SuperDrugID>
SD002431

$$$$
