adenosine phosphate
  CDK     0628171802

 37 39  0  0  0  0  0  0  0  0999 V2000
    3.7391    4.6220    3.0996 O   0  0  0  0  0  0  0  0  0  0  0  0
    3.6187    4.4535    1.6860 C   0  0  1  0  0  0  0  0  0  0  0  0
    4.7509    3.5462    1.1527 C   0  0  2  0  0  0  0  0  0  0  0  0
    2.3659    3.6583    1.3022 C   0  0  2  0  0  0  0  0  0  0  0  0
    5.2174    3.9486   -0.1493 N   0  0  0  0  0  0  0  0  0  0  0  0
    4.2550    2.1966    1.1615 O   0  0  0  0  0  0  0  0  0  0  0  0
    1.2548    3.9532    2.1460 O   0  0  0  0  0  0  0  0  0  0  0  0
    2.8452    2.1973    1.4300 C   0  0  2  0  0  0  0  0  0  0  0  0
    5.9382    5.0514   -0.4171 C   0  0  0  0  0  0  0  0  0  0  0  0
    5.0579    3.3137   -1.3353 C   0  0  0  0  0  0  0  0  0  0  0  0
    2.1523    1.1985    0.4708 C   0  0  1  0  0  0  0  0  0  0  0  0
    6.2178    5.0545   -1.7778 C   0  0  0  0  0  0  0  0  0  0  0  0
    6.3857    6.0427    0.3963 N   0  0  0  0  0  0  0  0  0  0  0  0
    5.6635    3.9734   -2.3418 N   0  0  0  0  0  0  0  0  0  0  0  0
    0.7169    1.2498    0.6110 O   0  0  0  0  0  0  0  0  0  0  0  0
    6.9867    6.1010   -2.3109 C   0  0  0  0  0  0  0  0  0  0  0  0
    7.1254    7.0571   -0.1285 C   0  0  0  0  0  0  0  0  0  0  0  0
   -0.0677    0.3279   -0.4332 P   0  0  1  0  0  0  0  0  0  0  0  0
    7.3157    6.1452   -3.6117 N   0  0  0  0  0  0  0  0  0  0  0  0
    7.4144    7.0765   -1.4613 N   0  0  0  0  0  0  0  0  0  0  0  0
    0.3499   -1.0743   -0.3259 O   0  0  0  0  0  0  0  0  0  0  0  0
   -1.6173    0.4522   -0.1314 O   0  0  0  0  0  0  0  0  0  0  0  0
    0.1859    0.8783   -1.8968 O   0  0  0  0  0  0  0  0  0  0  0  0
    4.5746    5.1231    3.2170 H   0  0  0  0  0  0  0  0  0  0  0  0
    3.6034    5.4426    1.2201 H   0  0  0  0  0  0  0  0  0  0  0  0
    5.6020    3.5683    1.8381 H   0  0  0  0  0  0  0  0  0  0  0  0
    2.0962    3.8827    0.2655 H   0  0  0  0  0  0  0  0  0  0  0  0
    0.5312    3.3695    1.8362 H   0  0  0  0  0  0  0  0  0  0  0  0
    2.7095    1.8587    2.4626 H   0  0  0  0  0  0  0  0  0  0  0  0
    4.5518    2.4372   -1.4728 H   0  0  0  0  0  0  0  0  0  0  0  0
    2.4625    1.4458   -0.5507 H   0  0  0  0  0  0  0  0  0  0  0  0
    2.5185    0.1943    0.7142 H   0  0  0  0  0  0  0  0  0  0  0  0
    7.4716    7.7980    0.4822 H   0  0  0  0  0  0  0  0  0  0  0  0
    7.8582    6.8746   -3.9531 H   0  0  0  0  0  0  0  0  0  0  0  0
    7.0139    5.4433   -4.2109 H   0  0  0  0  0  0  0  0  0  0  0  0
   -1.8390    1.3879   -0.3207 H   0  0  0  0  0  0  0  0  0  0  0  0
   -0.1170    1.8101   -1.8637 H   0  0  0  0  0  0  0  0  0  0  0  0
  2  1  1  0  0  0  0 
  2  3  1  0  0  0  0 
  4  2  1  0  0  0  0 
  3  5  1  0  0  0  0 
  3  6  1  0  0  0  0 
  4  7  1  0  0  0  0 
  8  4  1  0  0  0  0 
  5  9  1  0  0  0  0 
  5 10  1  0  0  0  0 
  8  6  1  0  0  0  0 
  8 11  1  0  0  0  0 
  9 12  1  0  0  0  0 
  9 13  2  0  0  0  0 
 10 14  2  0  0  0  0 
 11 15  1  0  0  0  0 
 12 14  1  0  0  0  0 
 12 16  2  0  0  0  0 
 13 17  1  0  0  0  0 
 15 18  1  0  0  0  0 
 16 19  1  0  0  0  0 
 16 20  1  0  0  0  0 
 17 20  2  0  0  0  0 
 18 21  2  0  0  0  0 
 18 22  1  0  0  0  0 
 18 23  1  0  0  0  0 
  1 24  1  0  0  0  0 
  2 25  1  0  0  0  0 
  3 26  1  0  0  0  0 
  4 27  1  0  0  0  0 
  7 28  1  0  0  0  0 
  8 29  1  0  0  0  0 
 10 30  1  0  0  0  0 
 11 31  1  0  0  0  0 
 11 32  1  0  0  0  0 
 17 33  1  0  0  0  0 
 19 34  1  0  0  0  0 
 19 35  1  0  0  0  0 
 22 36  1  0  0  0  0 
 23 37  1  0  0  0  0 
M  END
> <cdk:Title>
adenosine phosphate

> <Conformer>
1

> <SuperDrugID>
SD000067

$$$$
