amfetaminil
  CDK     0628171801

 37 38  0  0  0  0  0  0  0  0999 V2000
   -1.4091   -0.0069   -0.3150 C   0  0  2  0  0  0  0  0  0  0  0  0
   -1.9922   -0.8973    0.7184 N   0  0  2  0  0  0  0  0  0  0  0  0
   -0.0468   -0.0470   -0.1636 C   0  0  0  0  0  0  0  0  0  0  0  0
   -1.9085    1.4002   -0.2602 C   0  0  0  0  0  0  0  0  0  0  0  0
   -3.4739   -0.9867    0.8689 C   0  0  1  0  0  0  0  0  0  0  0  0
    1.0936   -0.0928   -0.0356 N   0  0  0  0  0  0  0  0  0  0  0  0
   -2.5122    1.9911   -1.3979 C   0  0  0  0  0  0  0  0  0  0  0  0
   -1.8255    2.1654    0.9306 C   0  0  0  0  0  0  0  0  0  0  0  0
   -4.1245   -1.9549   -0.1697 C   0  0  2  0  0  0  0  0  0  0  0  0
   -3.7278   -1.4728    2.3219 C   0  0  0  0  0  0  0  0  0  0  0  0
   -3.0125    3.3044   -1.3550 C   0  0  0  0  0  0  0  0  0  0  0  0
   -2.3375    3.4759    0.9778 C   0  0  0  0  0  0  0  0  0  0  0  0
   -4.2407   -1.4421   -1.5676 C   0  0  0  0  0  0  0  0  0  0  0  0
   -2.9311    4.0445   -0.1633 C   0  0  0  0  0  0  0  0  0  0  0  0
   -5.1436   -0.3971   -1.8832 C   0  0  0  0  0  0  0  0  0  0  0  0
   -3.4906   -2.0177   -2.6220 C   0  0  0  0  0  0  0  0  0  0  0  0
   -5.2955    0.0520   -3.2100 C   0  0  0  0  0  0  0  0  0  0  0  0
   -3.6446   -1.5712   -3.9478 C   0  0  0  0  0  0  0  0  0  0  0  0
   -4.5484   -0.5375   -4.2441 C   0  0  0  0  0  0  0  0  0  0  0  0
   -1.6002   -0.4478   -1.2914 H   0  0  0  0  0  0  0  0  0  0  0  0
   -1.6247   -0.5711    1.6132 H   0  0  0  0  0  0  0  0  0  0  0  0
   -3.9384    0.0007    0.7946 H   0  0  0  0  0  0  0  0  0  0  0  0
   -2.5939    1.4682   -2.2716 H   0  0  0  0  0  0  0  0  0  0  0  0
   -1.3969    1.7698    1.7742 H   0  0  0  0  0  0  0  0  0  0  0  0
   -5.1375   -2.2058    0.1584 H   0  0  0  0  0  0  0  0  0  0  0  0
   -3.5583   -2.8902   -0.1520 H   0  0  0  0  0  0  0  0  0  0  0  0
   -4.7977   -1.5107    2.5341 H   0  0  0  0  0  0  0  0  0  0  0  0
   -3.2677   -0.7861    3.0366 H   0  0  0  0  0  0  0  0  0  0  0  0
   -3.3031   -2.4667    2.4752 H   0  0  0  0  0  0  0  0  0  0  0  0
   -3.4344    3.7184   -2.1906 H   0  0  0  0  0  0  0  0  0  0  0  0
   -2.2798    4.0156    1.8444 H   0  0  0  0  0  0  0  0  0  0  0  0
   -3.2992    4.9971   -0.1255 H   0  0  0  0  0  0  0  0  0  0  0  0
   -5.7064    0.0374   -1.1488 H   0  0  0  0  0  0  0  0  0  0  0  0
   -2.8216   -2.7674   -2.4328 H   0  0  0  0  0  0  0  0  0  0  0  0
   -5.9552    0.8019   -3.4274 H   0  0  0  0  0  0  0  0  0  0  0  0
   -3.0991   -2.0013   -4.6971 H   0  0  0  0  0  0  0  0  0  0  0  0
   -4.6659   -0.2217   -5.2100 H   0  0  0  0  0  0  0  0  0  0  0  0
  1  2  1  0  0  0  0 
  1  3  1  0  0  0  0 
  1  4  1  0  0  0  0 
  2  5  1  0  0  0  0 
  3  6  3  0  0  0  0 
  4  7  2  0  0  0  0 
  4  8  1  0  0  0  0 
  5  9  1  0  0  0  0 
  5 10  1  0  0  0  0 
  7 11  1  0  0  0  0 
  8 12  2  0  0  0  0 
  9 13  1  0  0  0  0 
 11 14  2  0  0  0  0 
 12 14  1  0  0  0  0 
 13 15  2  0  0  0  0 
 13 16  1  0  0  0  0 
 15 17  1  0  0  0  0 
 16 18  2  0  0  0  0 
 17 19  2  0  0  0  0 
 18 19  1  0  0  0  0 
  1 20  1  0  0  0  0 
  2 21  1  0  0  0  0 
  5 22  1  0  0  0  0 
  7 23  1  0  0  0  0 
  8 24  1  0  0  0  0 
  9 25  1  0  0  0  0 
  9 26  1  0  0  0  0 
 10 27  1  0  0  0  0 
 10 28  1  0  0  0  0 
 10 29  1  0  0  0  0 
 11 30  1  0  0  0  0 
 12 31  1  0  0  0  0 
 14 32  1  0  0  0  0 
 15 33  1  0  0  0  0 
 16 34  1  0  0  0  0 
 17 35  1  0  0  0  0 
 18 36  1  0  0  0  0 
 19 37  1  0  0  0  0 
M  END
> <cdk:Title>
amfetaminil

> <Conformer>
1

> <SuperDrugID>
SD000161

$$$$
