oxybenzone
  CDK     0628171801

 29 30  0  0  0  0  0  0  0  0999 V2000
   -0.7953   -1.2144   -0.0578 C   0  0  0  0  0  0  0  0  0  0  0  0
   -1.9893   -0.9381    0.2145 O   0  0  0  0  0  0  0  0  0  0  0  0
   -0.5239   -2.5769   -0.3789 C   0  0  0  0  0  0  0  0  0  0  0  0
    0.1810   -0.1668   -0.0298 C   0  0  0  0  0  0  0  0  0  0  0  0
    0.5522   -3.2935    0.2093 C   0  0  0  0  0  0  0  0  0  0  0  0
   -1.3612   -3.2566   -1.2982 C   0  0  0  0  0  0  0  0  0  0  0  0
    1.4092   -0.2689   -0.7356 C   0  0  0  0  0  0  0  0  0  0  0  0
   -0.0593    1.0248    0.7047 C   0  0  0  0  0  0  0  0  0  0  0  0
    1.3626   -2.7164    1.1349 O   0  0  0  0  0  0  0  0  0  0  0  0
    0.7933   -4.6374   -0.1428 C   0  0  0  0  0  0  0  0  0  0  0  0
   -1.1152   -4.5971   -1.6468 C   0  0  0  0  0  0  0  0  0  0  0  0
    2.3765    0.7518   -0.6701 C   0  0  0  0  0  0  0  0  0  0  0  0
    0.9001    2.0540    0.7581 C   0  0  0  0  0  0  0  0  0  0  0  0
   -0.0236   -5.2889   -1.0863 C   0  0  0  0  0  0  0  0  0  0  0  0
    2.1197    1.9146    0.0750 C   0  0  0  0  0  0  0  0  0  0  0  0
    0.2266   -6.5942   -1.4190 O   0  0  0  0  0  0  0  0  0  0  0  0
    0.9793   -6.7402   -2.6372 C   0  0  0  0  0  0  0  0  0  0  0  0
   -2.1550   -2.7768   -1.7318 H   0  0  0  0  0  0  0  0  0  0  0  0
    1.6142   -1.0897   -1.3118 H   0  0  0  0  0  0  0  0  0  0  0  0
   -0.9378    1.1565    1.2168 H   0  0  0  0  0  0  0  0  0  0  0  0
    2.1297   -3.3203    1.2318 H   0  0  0  0  0  0  0  0  0  0  0  0
    1.5658   -5.1472    0.2945 H   0  0  0  0  0  0  0  0  0  0  0  0
   -1.7289   -5.0673   -2.3163 H   0  0  0  0  0  0  0  0  0  0  0  0
    3.2654    0.6505   -1.1656 H   0  0  0  0  0  0  0  0  0  0  0  0
    0.7148    2.9039    1.2976 H   0  0  0  0  0  0  0  0  0  0  0  0
    2.8161    2.6619    0.1165 H   0  0  0  0  0  0  0  0  0  0  0  0
    1.1589   -7.8038   -2.8011 H   0  0  0  0  0  0  0  0  0  0  0  0
    0.4224   -6.3549   -3.4957 H   0  0  0  0  0  0  0  0  0  0  0  0
    1.9485   -6.2376   -2.5717 H   0  0  0  0  0  0  0  0  0  0  0  0
  1  2  2  0  0  0  0 
  1  3  1  0  0  0  0 
  1  4  1  0  0  0  0 
  3  5  2  0  0  0  0 
  3  6  1  0  0  0  0 
  4  7  2  0  0  0  0 
  4  8  1  0  0  0  0 
  5  9  1  0  0  0  0 
  5 10  1  0  0  0  0 
  6 11  2  0  0  0  0 
  7 12  1  0  0  0  0 
  8 13  2  0  0  0  0 
 10 14  2  0  0  0  0 
 11 14  1  0  0  0  0 
 12 15  2  0  0  0  0 
 13 15  1  0  0  0  0 
 14 16  1  0  0  0  0 
 16 17  1  0  0  0  0 
  6 18  1  0  0  0  0 
  7 19  1  0  0  0  0 
  8 20  1  0  0  0  0 
  9 21  1  0  0  0  0 
 10 22  1  0  0  0  0 
 11 23  1  0  0  0  0 
 12 24  1  0  0  0  0 
 13 25  1  0  0  0  0 
 15 26  1  0  0  0  0 
 17 27  1  0  0  0  0 
 17 28  1  0  0  0  0 
 17 29  1  0  0  0  0 
M  END
> <cdk:Title>
oxybenzone

> <Conformer>
1

> <SuperDrugID>
SD002938

$$$$
