linsidomine
  CDK     0628171801

 22 23  0  0  0  0  0  0  0  0999 V2000
    1.2433    2.1940   -0.8637 C   0  0  2  0  0  0  0  0  0  0  0  0
    2.1463    0.9531   -0.6838 C   0  0  2  0  0  0  0  0  0  0  0  0
    1.3587   -0.1347   -0.0375 N   0  0  2  0  0  0  0  0  0  0  0  0
    0.7561    0.2766    1.2628 C   0  0  1  0  0  0  0  0  0  0  0  0
   -0.0995    1.5494    1.0429 C   0  0  2  0  0  0  0  0  0  0  0  0
    0.6690    2.5907    0.4004 O   0  0  0  0  0  0  0  0  0  0  0  0
    2.0492   -1.3092    0.0120 N   0  0  0  0  0  0  0  0  0  0  0  0
    1.7442   -2.3825   -0.7298 C   0  0  0  0  0  0  0  0  0  0  0  0
    2.7119   -3.3286   -0.4456 C   0  0  0  0  0  0  0  0  0  0  0  0
    3.5350   -2.7820    0.4729 O   0  0  0  0  0  0  0  0  0  0  0  0
    3.1071   -1.5711    0.7212 N   0  0  0  0  0  0  0  0  0  0  0  0
    2.8257   -4.5508   -0.9862 N   0  0  0  0  0  0  0  0  0  0  0  0
    0.4549    1.9774   -1.5900 H   0  0  0  0  0  0  0  0  0  0  0  0
    1.8407    3.0197   -1.2546 H   0  0  0  0  0  0  0  0  0  0  0  0
    3.0124    1.2192   -0.0692 H   0  0  0  0  0  0  0  0  0  0  0  0
    2.5016    0.6280   -1.6653 H   0  0  0  0  0  0  0  0  0  0  0  0
    0.1164   -0.5203    1.6526 H   0  0  0  0  0  0  0  0  0  0  0  0
    1.5365    0.4882    2.0014 H   0  0  0  0  0  0  0  0  0  0  0  0
   -0.4465    1.9255    2.0066 H   0  0  0  0  0  0  0  0  0  0  0  0
   -0.9808    1.3061    0.4426 H   0  0  0  0  0  0  0  0  0  0  0  0
    0.9671   -2.4745   -1.3876 H   0  0  0  0  0  0  0  0  0  0  0  0
    3.5619   -5.1291   -0.7319 H   0  0  0  0  0  0  0  0  0  0  0  0
  1  2  1  0  0  0  0 
  2  3  1  0  0  0  0 
  3  4  1  0  0  0  0 
  4  5  1  0  0  0  0 
  5  6  1  0  0  0  0 
  1  6  1  0  0  0  0 
  3  7  1  0  0  0  0 
  8  9  2  0  0  0  0 
  9 10  1  0  0  0  0 
 10 11  1  0  0  0  0 
  7  8  1  0  0  0  0 
  7 11  2  0  0  0  0 
  9 12  1  0  0  0  0 
 13  1  1  0  0  0  0 
 14  1  1  0  0  0  0 
 15  2  1  0  0  0  0 
 16  2  1  0  0  0  0 
 17  4  1  0  0  0  0 
 18  4  1  0  0  0  0 
 19  5  1  0  0  0  0 
 20  5  1  0  0  0  0 
 21  8  1  0  0  0  0 
 22 12  1  0  0  0  0 
M  CHG  1   7   1
M  CHG  1  12  -1
M  END
> <cdk:Title>
linsidomine

> <Conformer>
1

> <SuperDrugID>
SD003644

$$$$
