rimantadine
  CDK     0628171801

 34 36  0  0  0  0  0  0  0  0999 V2000
   -0.5280    0.6744    0.7952 C   0  0  2  0  0  0  0  0  0  0  0  0
   -1.8171    0.0133    1.3827 C   0  0  1  0  0  0  0  0  0  0  0  0
   -2.8841   -0.1536    0.2560 C   0  0  1  0  0  0  0  0  0  0  0  0
   -2.3061   -1.0640   -0.8716 C   0  0  1  0  0  0  0  0  0  0  0  0
   -1.0198   -0.4045   -1.4615 C   0  0  2  0  0  0  0  0  0  0  0  0
    0.0882   -0.2118   -0.3539 C   0  0  2  0  0  0  0  0  0  0  0  0
    0.4002   -1.6369    0.2463 C   0  0  1  0  0  0  0  0  0  0  0  0
   -0.8856   -2.2948    0.8420 C   0  0  2  0  0  0  0  0  0  0  0  0
   -1.9517   -2.4656   -0.2841 C   0  0  1  0  0  0  0  0  0  0  0  0
   -1.4594   -1.3869    1.9747 C   0  0  1  0  0  0  0  0  0  0  0  0
    1.3771    0.4370   -1.0016 C   0  0  1  0  0  0  0  0  0  0  0  0
    1.0688    1.7262   -1.6476 N   0  0  2  0  0  0  0  0  0  0  0  0
    2.5865    0.6664   -0.0535 C   0  0  0  0  0  0  0  0  0  0  0  0
    0.1939    0.8054    1.6051 H   0  0  0  0  0  0  0  0  0  0  0  0
   -0.7743    1.6721    0.4190 H   0  0  0  0  0  0  0  0  0  0  0  0
   -2.2228    0.6489    2.1752 H   0  0  0  0  0  0  0  0  0  0  0  0
   -3.7965   -0.5976    0.6647 H   0  0  0  0  0  0  0  0  0  0  0  0
   -3.1532    0.8244   -0.1535 H   0  0  0  0  0  0  0  0  0  0  0  0
   -3.0535   -1.1812   -1.6626 H   0  0  0  0  0  0  0  0  0  0  0  0
   -1.2950    0.5586   -1.9016 H   0  0  0  0  0  0  0  0  0  0  0  0
   -0.6392   -1.0294   -2.2756 H   0  0  0  0  0  0  0  0  0  0  0  0
    0.8205   -2.2885   -0.5264 H   0  0  0  0  0  0  0  0  0  0  0  0
    1.1398   -1.5650    1.0462 H   0  0  0  0  0  0  0  0  0  0  0  0
   -0.6337   -3.2757    1.2563 H   0  0  0  0  0  0  0  0  0  0  0  0
   -2.8496   -2.9427    0.1203 H   0  0  0  0  0  0  0  0  0  0  0  0
   -1.5641   -3.1178   -1.0722 H   0  0  0  0  0  0  0  0  0  0  0  0
   -0.7284   -1.2800    2.7813 H   0  0  0  0  0  0  0  0  0  0  0  0
   -2.3511   -1.8470    2.4078 H   0  0  0  0  0  0  0  0  0  0  0  0
    1.7241   -0.2252   -1.8008 H   0  0  0  0  0  0  0  0  0  0  0  0
    1.9362    2.0704   -2.0678 H   0  0  0  0  0  0  0  0  0  0  0  0
    0.8163    2.3831   -0.9066 H   0  0  0  0  0  0  0  0  0  0  0  0
    3.4228    1.0932   -0.6121 H   0  0  0  0  0  0  0  0  0  0  0  0
    2.9289   -0.2724    0.3820 H   0  0  0  0  0  0  0  0  0  0  0  0
    2.3270    1.3567    0.7500 H   0  0  0  0  0  0  0  0  0  0  0  0
  1  2  1  0  0  0  0 
  2  3  1  0  0  0  0 
  3  4  1  0  0  0  0 
  4  5  1  0  0  0  0 
  5  6  1  0  0  0  0 
  1  6  1  0  0  0  0 
  6  7  1  0  0  0  0 
  7  8  1  0  0  0  0 
  4  9  1  0  0  0  0 
  8  9  1  0  0  0  0 
  2 10  1  0  0  0  0 
 10  8  1  0  0  0  0 
 11  6  1  0  0  0  0 
 11 12  1  0  0  0  0 
 11 13  1  0  0  0  0 
  1 14  1  0  0  0  0 
  1 15  1  0  0  0  0 
  2 16  1  0  0  0  0 
  3 17  1  0  0  0  0 
  3 18  1  0  0  0  0 
  4 19  1  0  0  0  0 
  5 20  1  0  0  0  0 
  5 21  1  0  0  0  0 
  7 22  1  0  0  0  0 
  7 23  1  0  0  0  0 
  8 24  1  0  0  0  0 
  9 25  1  0  0  0  0 
  9 26  1  0  0  0  0 
 10 27  1  0  0  0  0 
 10 28  1  0  0  0  0 
 11 29  1  0  0  0  0 
 12 30  1  0  0  0  0 
 12 31  1  0  0  0  0 
 13 32  1  0  0  0  0 
 13 33  1  0  0  0  0 
 13 34  1  0  0  0  0 
M  END
> <cdk:Title>
rimantadine

> <Conformer>
1

> <SuperDrugID>
SD002144

$$$$
