cefathiamidine
  CDK     0628171802

 59 60  0  0  0  0  0  0  0  0999 V2000
    4.1746   -6.5954    1.2775 C   0  0  0  0  0  0  0  0  0  0  0  0
    4.7488   -5.5353    0.6623 N   0  0  0  0  0  0  0  0  0  0  0  0
    5.4041   -4.3919    1.1900 C   0  0  2  0  0  0  0  0  0  0  0  0
    4.2946   -3.7477    2.4789 S   0  0  0  0  0  0  0  0  0  0  0  0
    4.0306   -5.2989    3.4102 C   0  0  1  0  0  0  0  0  0  0  0  0
    3.8143   -6.5147    2.5931 C   0  0  0  0  0  0  0  0  0  0  0  0
    4.7964   -5.0786   -0.6020 C   0  0  0  0  0  0  0  0  0  0  0  0
    5.3828   -3.7881   -0.2445 C   0  0  1  0  0  0  0  0  0  0  0  0
    3.9458   -7.7190    0.4870 C   0  0  0  0  0  0  0  0  0  0  0  0
    4.8556   -8.1803   -0.2398 O   0  0  0  0  0  0  0  0  0  0  0  0
    2.7379   -8.3328    0.4458 O   0  0  0  0  0  0  0  0  0  0  0  0
    3.1955   -7.6213    3.3424 C   0  0  1  0  0  0  0  0  0  0  0  0
    1.8012   -7.3287    3.5077 O   0  0  0  0  0  0  0  0  0  0  0  0
    0.8727   -8.1127    4.1285 C   0  0  0  0  0  0  0  0  0  0  0  0
   -0.5006   -7.6019    4.2577 C   0  0  0  0  0  0  0  0  0  0  0  0
    1.1722   -9.2446    4.5741 O   0  0  0  0  0  0  0  0  0  0  0  0
    4.4013   -5.5317   -1.6987 O   0  0  0  0  0  0  0  0  0  0  0  0
    4.4430   -2.7320   -0.4519 N   0  0  0  0  0  0  0  0  0  0  0  0
    4.7392   -1.4307   -0.7105 C   0  0  0  0  0  0  0  0  0  0  0  0
    3.6336   -0.4675   -0.8664 C   0  0  2  0  0  0  0  0  0  0  0  0
    5.9242   -1.0379   -0.8294 O   0  0  0  0  0  0  0  0  0  0  0  0
    2.6728   -0.3756    0.6802 S   0  0  0  0  0  0  0  0  0  0  0  0
    1.2284    0.5012    0.3056 C   0  0  0  0  0  0  0  0  0  0  0  0
    0.5396    0.0177   -0.6680 N   0  0  0  0  0  0  0  0  0  0  0  0
    0.8376    1.5847    0.9922 N   0  0  0  0  0  0  0  0  0  0  0  0
    1.4228    2.1426    2.1804 C   0  0  1  0  0  0  0  0  0  0  0  0
    2.1184    3.4806    1.8314 C   0  0  0  0  0  0  0  0  0  0  0  0
    0.3170    2.3138    3.2512 C   0  0  0  0  0  0  0  0  0  0  0  0
   -0.6841    0.3964   -1.2365 C   0  0  2  0  0  0  0  0  0  0  0  0
   -1.6945   -0.7620   -1.0349 C   0  0  0  0  0  0  0  0  0  0  0  0
   -0.4862    0.7398   -2.7352 C   0  0  0  0  0  0  0  0  0  0  0  0
    6.4065   -4.6256    1.5650 H   0  0  0  0  0  0  0  0  0  0  0  0
    4.9120   -5.4563    4.0380 H   0  0  0  0  0  0  0  0  0  0  0  0
    3.1802   -5.1077    4.0685 H   0  0  0  0  0  0  0  0  0  0  0  0
    6.3740   -3.6424   -0.6821 H   0  0  0  0  0  0  0  0  0  0  0  0
    2.6032   -9.1302   -0.1105 H   0  0  0  0  0  0  0  0  0  0  0  0
    3.3072   -8.5933    2.8600 H   0  0  0  0  0  0  0  0  0  0  0  0
    3.6613   -7.7230    4.3274 H   0  0  0  0  0  0  0  0  0  0  0  0
   -1.1625   -8.3380    4.7195 H   0  0  0  0  0  0  0  0  0  0  0  0
   -0.4972   -6.7028    4.8751 H   0  0  0  0  0  0  0  0  0  0  0  0
   -0.8909   -7.3513    3.2705 H   0  0  0  0  0  0  0  0  0  0  0  0
    3.5026   -2.9636   -0.3749 H   0  0  0  0  0  0  0  0  0  0  0  0
    2.9875   -0.8016   -1.6785 H   0  0  0  0  0  0  0  0  0  0  0  0
    4.0052    0.5310   -1.1073 H   0  0  0  0  0  0  0  0  0  0  0  0
    0.0520    2.0473    0.6619 H   0  0  0  0  0  0  0  0  0  0  0  0
    2.1811    1.4867    2.6160 H   0  0  0  0  0  0  0  0  0  0  0  0
    2.6079    3.8922    2.7170 H   0  0  0  0  0  0  0  0  0  0  0  0
    2.8810    3.3197    1.0652 H   0  0  0  0  0  0  0  0  0  0  0  0
    1.3977    4.2109    1.4583 H   0  0  0  0  0  0  0  0  0  0  0  0
    0.7349    2.7377    4.1674 H   0  0  0  0  0  0  0  0  0  0  0  0
   -0.1165    1.3411    3.4932 H   0  0  0  0  0  0  0  0  0  0  0  0
   -0.4775    2.9699    2.8917 H   0  0  0  0  0  0  0  0  0  0  0  0
   -1.0975    1.2796   -0.7452 H   0  0  0  0  0  0  0  0  0  0  0  0
   -2.6751   -0.4929   -1.4357 H   0  0  0  0  0  0  0  0  0  0  0  0
   -1.3489   -1.6704   -1.5355 H   0  0  0  0  0  0  0  0  0  0  0  0
   -1.8119   -0.9756    0.0302 H   0  0  0  0  0  0  0  0  0  0  0  0
   -1.4389    1.0164   -3.1905 H   0  0  0  0  0  0  0  0  0  0  0  0
   -0.0723   -0.1110   -3.2802 H   0  0  0  0  0  0  0  0  0  0  0  0
    0.1975    1.5842   -2.8390 H   0  0  0  0  0  0  0  0  0  0  0  0
  1  2  1  0  0  0  0 
  1  6  2  0  0  0  0 
  2  3  1  0  0  0  0 
  3  4  1  0  0  0  0 
  4  5  1  0  0  0  0 
  5  6  1  0  0  0  0 
  7  8  1  0  0  0  0 
  2  7  1  0  0  0  0 
  8  3  1  0  0  0  0 
  1  9  1  0  0  0  0 
  9 10  2  0  0  0  0 
  9 11  1  0  0  0  0 
  6 12  1  0  0  0  0 
 12 13  1  0  0  0  0 
 13 14  1  0  0  0  0 
 14 15  1  0  0  0  0 
 14 16  2  0  0  0  0 
  7 17  2  0  0  0  0 
  8 18  1  0  0  0  0 
 18 19  1  0  0  0  0 
 19 20  1  0  0  0  0 
 19 21  2  0  0  0  0 
 20 22  1  0  0  0  0 
 22 23  1  0  0  0  0 
 23 24  2  0  0  0  0 
 23 25  1  0  0  0  0 
 25 26  1  0  0  0  0 
 26 27  1  0  0  0  0 
 26 28  1  0  0  0  0 
 24 29  1  0  0  0  0 
 29 30  1  0  0  0  0 
 29 31  1  0  0  0  0 
  3 32  1  0  0  0  0 
  5 33  1  0  0  0  0 
  5 34  1  0  0  0  0 
  8 35  1  0  0  0  0 
 11 36  1  0  0  0  0 
 12 37  1  0  0  0  0 
 12 38  1  0  0  0  0 
 15 39  1  0  0  0  0 
 15 40  1  0  0  0  0 
 15 41  1  0  0  0  0 
 18 42  1  0  0  0  0 
 20 43  1  0  0  0  0 
 20 44  1  0  0  0  0 
 25 45  1  0  0  0  0 
 26 46  1  0  0  0  0 
 27 47  1  0  0  0  0 
 27 48  1  0  0  0  0 
 27 49  1  0  0  0  0 
 28 50  1  0  0  0  0 
 28 51  1  0  0  0  0 
 28 52  1  0  0  0  0 
 29 53  1  0  0  0  0 
 30 54  1  0  0  0  0 
 30 55  1  0  0  0  0 
 30 56  1  0  0  0  0 
 31 57  1  0  0  0  0 
 31 58  1  0  0  0  0 
 31 59  1  0  0  0  0 
M  END
> <cdk:Title>
cefathiamidine

> <Conformer>
1

> <SuperDrugID>
SD003925

$$$$
