chlorphenoxamine
  CDK     0628171802

 43 44  0  0  0  0  0  0  0  0999 V2000
   -1.0216   -0.4104   -0.2467 C   0  0  2  0  0  0  0  0  0  0  0  0
   -0.0098   -1.1492    0.5091 O   0  0  0  0  0  0  0  0  0  0  0  0
   -2.2694   -0.1949    0.6813 C   0  0  0  0  0  0  0  0  0  0  0  0
   -1.2782   -1.1558   -1.5387 C   0  0  0  0  0  0  0  0  0  0  0  0
   -0.4863    0.9688   -0.5939 C   0  0  0  0  0  0  0  0  0  0  0  0
   -0.2868   -2.4760    1.0164 C   0  0  2  0  0  0  0  0  0  0  0  0
   -2.5654   -1.5804   -1.9671 C   0  0  0  0  0  0  0  0  0  0  0  0
   -0.1801   -1.4597   -2.3844 C   0  0  0  0  0  0  0  0  0  0  0  0
    0.7818    1.4342   -0.1511 C   0  0  0  0  0  0  0  0  0  0  0  0
   -1.2528    1.8595   -1.3958 C   0  0  0  0  0  0  0  0  0  0  0  0
    0.9869   -3.0591    1.6745 C   0  0  1  0  0  0  0  0  0  0  0  0
   -2.7486   -2.2507   -3.1891 C   0  0  0  0  0  0  0  0  0  0  0  0
   -0.3592   -2.1271   -3.6091 C   0  0  0  0  0  0  0  0  0  0  0  0
    1.2498    2.7210   -0.4776 C   0  0  0  0  0  0  0  0  0  0  0  0
   -0.7902    3.1470   -1.7231 C   0  0  0  0  0  0  0  0  0  0  0  0
    2.1798   -3.1675    0.7728 N   0  0  2  0  0  0  0  0  0  0  0  0
   -1.6457   -2.5148   -4.0208 C   0  0  0  0  0  0  0  0  0  0  0  0
    0.4613    3.5811   -1.2581 C   0  0  0  0  0  0  0  0  0  0  0  0
    2.0390   -4.1944   -0.3021 C   0  0  0  0  0  0  0  0  0  0  0  0
    3.4464   -3.3618    1.5419 C   0  0  0  0  0  0  0  0  0  0  0  0
   -1.8687   -3.2842   -5.5125 Cl  0  0  0  0  0  0  0  0  0  0  0  0
   -3.0112    0.4660    0.2296 H   0  0  0  0  0  0  0  0  0  0  0  0
   -2.7737   -1.1374    0.8959 H   0  0  0  0  0  0  0  0  0  0  0  0
   -1.9606    0.2406    1.6331 H   0  0  0  0  0  0  0  0  0  0  0  0
   -0.6412   -3.1412    0.2285 H   0  0  0  0  0  0  0  0  0  0  0  0
   -1.0592   -2.4295    1.7864 H   0  0  0  0  0  0  0  0  0  0  0  0
   -3.3974   -1.4020   -1.4038 H   0  0  0  0  0  0  0  0  0  0  0  0
    0.7685   -1.1960   -2.1073 H   0  0  0  0  0  0  0  0  0  0  0  0
    1.3896    0.8433    0.4183 H   0  0  0  0  0  0  0  0  0  0  0  0
   -2.1667    1.5737   -1.7549 H   0  0  0  0  0  0  0  0  0  0  0  0
    1.2259   -2.3918    2.5059 H   0  0  0  0  0  0  0  0  0  0  0  0
    0.7545   -4.0374    2.1031 H   0  0  0  0  0  0  0  0  0  0  0  0
   -3.6902   -2.5400   -3.4696 H   0  0  0  0  0  0  0  0  0  0  0  0
    0.4528   -2.3235   -4.1975 H   0  0  0  0  0  0  0  0  0  0  0  0
    2.1658    3.0343   -0.1481 H   0  0  0  0  0  0  0  0  0  0  0  0
   -1.3626    3.7680   -2.3004 H   0  0  0  0  0  0  0  0  0  0  0  0
    0.7973    4.5188   -1.4892 H   0  0  0  0  0  0  0  0  0  0  0  0
    1.1923   -3.9647   -0.9472 H   0  0  0  0  0  0  0  0  0  0  0  0
    2.9259   -4.2074   -0.9401 H   0  0  0  0  0  0  0  0  0  0  0  0
    1.9001   -5.1953    0.1174 H   0  0  0  0  0  0  0  0  0  0  0  0
    3.5806   -2.5551    2.2653 H   0  0  0  0  0  0  0  0  0  0  0  0
    4.3118   -3.3427    0.8748 H   0  0  0  0  0  0  0  0  0  0  0  0
    3.4394   -4.3148    2.0788 H   0  0  0  0  0  0  0  0  0  0  0  0
  1  2  1  0  0  0  0 
  1  3  1  0  0  0  0 
  1  4  1  0  0  0  0 
  1  5  1  0  0  0  0 
  2  6  1  0  0  0  0 
  4  7  2  0  0  0  0 
  4  8  1  0  0  0  0 
  5  9  2  0  0  0  0 
  5 10  1  0  0  0  0 
  6 11  1  0  0  0  0 
  7 12  1  0  0  0  0 
  8 13  2  0  0  0  0 
  9 14  1  0  0  0  0 
 10 15  2  0  0  0  0 
 11 16  1  0  0  0  0 
 12 17  2  0  0  0  0 
 13 17  1  0  0  0  0 
 14 18  2  0  0  0  0 
 15 18  1  0  0  0  0 
 16 19  1  0  0  0  0 
 16 20  1  0  0  0  0 
 17 21  1  0  0  0  0 
  3 22  1  0  0  0  0 
  3 23  1  0  0  0  0 
  3 24  1  0  0  0  0 
  6 25  1  0  0  0  0 
  6 26  1  0  0  0  0 
  7 27  1  0  0  0  0 
  8 28  1  0  0  0  0 
  9 29  1  0  0  0  0 
 10 30  1  0  0  0  0 
 11 31  1  0  0  0  0 
 11 32  1  0  0  0  0 
 12 33  1  0  0  0  0 
 13 34  1  0  0  0  0 
 14 35  1  0  0  0  0 
 15 36  1  0  0  0  0 
 18 37  1  0  0  0  0 
 19 38  1  0  0  0  0 
 19 39  1  0  0  0  0 
 19 40  1  0  0  0  0 
 20 41  1  0  0  0  0 
 20 42  1  0  0  0  0 
 20 43  1  0  0  0  0 
M  END
> <cdk:Title>
chlorphenoxamine

> <Conformer>
1

> <SuperDrugID>
SD000538

$$$$
