ramipril
  CDK     0628171801

 62 64  0  0  0  0  0  0  0  0999 V2000
   -2.2511    4.4658   -2.9022 C   0  0  0  0  0  0  0  0  0  0  0  0
   -2.8613    3.1759   -2.4357 C   0  0  1  0  0  0  0  0  0  0  0  0
   -2.9287    5.5013   -2.6866 O   0  0  0  0  0  0  0  0  0  0  0  0
   -1.0339    4.6205   -3.5674 N   0  0  0  0  0  0  0  0  0  0  0  0
   -4.0270    3.3658   -1.5132 N   0  0  2  0  0  0  0  0  0  0  0  0
   -3.3763    2.3186   -3.6220 C   0  0  0  0  0  0  0  0  0  0  0  0
   -0.5722    5.9236   -3.9783 C   0  0  2  0  0  0  0  0  0  0  0  0
   -0.1227    3.5812   -3.9915 C   0  0  2  0  0  0  0  0  0  0  0  0
   -3.7689    3.9022   -0.1467 C   0  0  1  0  0  0  0  0  0  0  0  0
    0.5247    5.7043   -5.0292 C   0  0  2  0  0  0  0  0  0  0  0  0
    0.1021    6.7429   -2.8531 C   0  0  1  0  0  0  0  0  0  0  0  0
    0.3560    2.6747   -2.9227 C   0  0  0  0  0  0  0  0  0  0  0  0
    1.0689    4.3028   -4.6787 C   0  0  2  0  0  0  0  0  0  0  0  0
   -5.1045    4.1245    0.6271 C   0  0  1  0  0  0  0  0  0  0  0  0
   -2.8806    3.0151    0.6352 C   0  0  0  0  0  0  0  0  0  0  0  0
    1.5133    6.8926   -4.8815 C   0  0  1  0  0  0  0  0  0  0  0  0
    1.1349    7.6316   -3.5758 C   0  0  2  0  0  0  0  0  0  0  0  0
    0.2929    1.3335   -3.0870 O   0  0  0  0  0  0  0  0  0  0  0  0
    0.8405    3.1281   -1.8611 O   0  0  0  0  0  0  0  0  0  0  0  0
   -6.1277    5.0872   -0.0423 C   0  0  2  0  0  0  0  0  0  0  0  0
   -1.7229    3.5287    1.1404 O   0  0  0  0  0  0  0  0  0  0  0  0
   -3.1892    1.8110    0.8039 O   0  0  0  0  0  0  0  0  0  0  0  0
   -5.5839    6.4145   -0.4458 C   0  0  0  0  0  0  0  0  0  0  0  0
   -0.7854    2.8353    1.9675 C   0  0  1  0  0  0  0  0  0  0  0  0
   -4.9592    7.2651    0.4989 C   0  0  0  0  0  0  0  0  0  0  0  0
   -5.6930    6.8616   -1.7860 C   0  0  0  0  0  0  0  0  0  0  0  0
    0.4222    3.7459    2.2455 C   0  0  0  0  0  0  0  0  0  0  0  0
   -4.4553    8.5228    0.1199 C   0  0  0  0  0  0  0  0  0  0  0  0
   -5.2025    8.1249   -2.1642 C   0  0  0  0  0  0  0  0  0  0  0  0
   -4.5828    8.9533   -1.2122 C   0  0  0  0  0  0  0  0  0  0  0  0
    0.0882    5.6833   -6.0357 H   0  0  0  0  0  0  0  0  0  0  0  0
   -1.3782    6.5061   -4.4411 H   0  0  0  0  0  0  0  0  0  0  0  0
   -2.1097    2.5900   -1.9034 H   0  0  0  0  0  0  0  0  0  0  0  0
   -4.4733    2.4541   -1.3923 H   0  0  0  0  0  0  0  0  0  0  0  0
   -2.5582    1.9659   -4.2449 H   0  0  0  0  0  0  0  0  0  0  0  0
   -4.0588    2.8997   -4.2452 H   0  0  0  0  0  0  0  0  0  0  0  0
   -3.9030    1.4333   -3.2540 H   0  0  0  0  0  0  0  0  0  0  0  0
   -0.6162    2.9898   -4.7642 H   0  0  0  0  0  0  0  0  0  0  0  0
   -3.2794    4.8745   -0.2360 H   0  0  0  0  0  0  0  0  0  0  0  0
   -0.6290    7.3386   -2.2982 H   0  0  0  0  0  0  0  0  0  0  0  0
    0.6148    6.0788   -2.1497 H   0  0  0  0  0  0  0  0  0  0  0  0
    1.3907    3.7710   -5.5807 H   0  0  0  0  0  0  0  0  0  0  0  0
    1.9313    4.3896   -4.0076 H   0  0  0  0  0  0  0  0  0  0  0  0
   -5.6038    3.1607    0.7710 H   0  0  0  0  0  0  0  0  0  0  0  0
   -4.8728    4.5120    1.6238 H   0  0  0  0  0  0  0  0  0  0  0  0
    2.5533    6.5531   -4.8586 H   0  0  0  0  0  0  0  0  0  0  0  0
    1.4066    7.5738   -5.7295 H   0  0  0  0  0  0  0  0  0  0  0  0
    2.0132    7.7994   -2.9469 H   0  0  0  0  0  0  0  0  0  0  0  0
    0.6883    8.6035   -3.8074 H   0  0  0  0  0  0  0  0  0  0  0  0
    0.6367    0.7314   -2.3950 H   0  0  0  0  0  0  0  0  0  0  0  0
   -6.9485    5.2623    0.6593 H   0  0  0  0  0  0  0  0  0  0  0  0
   -6.5629    4.5694   -0.9016 H   0  0  0  0  0  0  0  0  0  0  0  0
   -1.2667    2.5671    2.9108 H   0  0  0  0  0  0  0  0  0  0  0  0
   -0.4477    1.9244    1.4656 H   0  0  0  0  0  0  0  0  0  0  0  0
   -4.8604    6.9750    1.4730 H   0  0  0  0  0  0  0  0  0  0  0  0
   -6.1364    6.2728   -2.4962 H   0  0  0  0  0  0  0  0  0  0  0  0
    1.1648    3.2056    2.8351 H   0  0  0  0  0  0  0  0  0  0  0  0
    0.8761    4.0594    1.3034 H   0  0  0  0  0  0  0  0  0  0  0  0
    0.1066    4.6315    2.8000 H   0  0  0  0  0  0  0  0  0  0  0  0
   -4.0000    9.1224    0.8136 H   0  0  0  0  0  0  0  0  0  0  0  0
   -5.2948    8.4410   -3.1330 H   0  0  0  0  0  0  0  0  0  0  0  0
   -4.2286    9.8708   -1.4902 H   0  0  0  0  0  0  0  0  0  0  0  0
  2  1  1  0  0  0  0 
  1  3  2  0  0  0  0 
  1  4  1  0  0  0  0 
  2  5  1  0  0  0  0 
  2  6  1  0  0  0  0 
  7  4  1  0  0  0  0 
  8  4  1  0  0  0  0 
  9  5  1  0  0  0  0 
 10  7  1  0  0  0  0 
  7 11  1  0  0  0  0 
  7 32  1  0  0  0  0 
  8 12  1  0  0  0  0 
  8 13  1  0  0  0  0 
  9 14  1  0  0  0  0 
  9 15  1  0  0  0  0 
 10 13  1  0  0  0  0 
 10 16  1  0  0  0  0 
 10 31  1  0  0  0  0 
 11 17  1  0  0  0  0 
 12 18  1  0  0  0  0 
 12 19  2  0  0  0  0 
 14 20  1  0  0  0  0 
 15 21  1  0  0  0  0 
 15 22  2  0  0  0  0 
 16 17  1  0  0  0  0 
 20 23  1  0  0  0  0 
 21 24  1  0  0  0  0 
 23 25  2  0  0  0  0 
 23 26  1  0  0  0  0 
 24 27  1  0  0  0  0 
 25 28  1  0  0  0  0 
 26 29  2  0  0  0  0 
 28 30  2  0  0  0  0 
 29 30  1  0  0  0  0 
  2 33  1  0  0  0  0 
  5 34  1  0  0  0  0 
  6 35  1  0  0  0  0 
  6 36  1  0  0  0  0 
  6 37  1  0  0  0  0 
  8 38  1  0  0  0  0 
  9 39  1  0  0  0  0 
 11 40  1  0  0  0  0 
 11 41  1  0  0  0  0 
 13 42  1  0  0  0  0 
 13 43  1  0  0  0  0 
 14 44  1  0  0  0  0 
 14 45  1  0  0  0  0 
 16 46  1  0  0  0  0 
 16 47  1  0  0  0  0 
 17 48  1  0  0  0  0 
 17 49  1  0  0  0  0 
 18 50  1  0  0  0  0 
 20 51  1  0  0  0  0 
 20 52  1  0  0  0  0 
 24 53  1  0  0  0  0 
 24 54  1  0  0  0  0 
 25 55  1  0  0  0  0 
 26 56  1  0  0  0  0 
 27 57  1  0  0  0  0 
 27 58  1  0  0  0  0 
 27 59  1  0  0  0  0 
 28 60  1  0  0  0  0 
 29 61  1  0  0  0  0 
 30 62  1  0  0  0  0 
M  END
> <cdk:Title>
ramipril

> <Conformer>
1

> <SuperDrugID>
SD002119

$$$$
