medifoxamine
  CDK     0628171801

 38 39  0  0  0  0  0  0  0  0999 V2000
   -0.2601   -1.6881   -0.9647 C   0  0  1  0  0  0  0  0  0  0  0  0
   -0.9964   -0.6843   -0.2198 O   0  0  0  0  0  0  0  0  0  0  0  0
    1.0682   -1.9687   -0.4494 O   0  0  0  0  0  0  0  0  0  0  0  0
   -1.0600   -3.0133   -0.8553 C   0  0  2  0  0  0  0  0  0  0  0  0
   -0.5516    0.6114   -0.3128 C   0  0  0  0  0  0  0  0  0  0  0  0
    2.0215   -0.9968   -0.6284 C   0  0  0  0  0  0  0  0  0  0  0  0
   -2.4935   -2.9386   -1.2997 N   0  0  1  0  0  0  0  0  0  0  0  0
   -0.5408    1.3239   -1.5334 C   0  0  0  0  0  0  0  0  0  0  0  0
   -0.1085    1.2555    0.8615 C   0  0  0  0  0  0  0  0  0  0  0  0
    2.6445   -0.4461    0.5112 C   0  0  0  0  0  0  0  0  0  0  0  0
    2.4112   -0.5472   -1.9107 C   0  0  0  0  0  0  0  0  0  0  0  0
   -2.6801   -2.5516   -2.7315 C   0  0  0  0  0  0  0  0  0  0  0  0
   -3.2697   -4.1675   -0.9523 C   0  0  0  0  0  0  0  0  0  0  0  0
   -0.0479    2.6414   -1.5844 C   0  0  0  0  0  0  0  0  0  0  0  0
    0.3817    2.5740    0.8121 C   0  0  0  0  0  0  0  0  0  0  0  0
    3.6009    0.5775    0.3759 C   0  0  0  0  0  0  0  0  0  0  0  0
    3.3606    0.4821   -2.0473 C   0  0  0  0  0  0  0  0  0  0  0  0
    0.4125    3.2674   -0.4114 C   0  0  0  0  0  0  0  0  0  0  0  0
    3.9572    1.0430   -0.9032 C   0  0  0  0  0  0  0  0  0  0  0  0
   -0.2082   -1.4375   -2.0284 H   0  0  0  0  0  0  0  0  0  0  0  0
   -1.0288   -3.3124    0.1976 H   0  0  0  0  0  0  0  0  0  0  0  0
   -0.5399   -3.7880   -1.4270 H   0  0  0  0  0  0  0  0  0  0  0  0
   -0.8812    0.8828   -2.3900 H   0  0  0  0  0  0  0  0  0  0  0  0
   -0.1261    0.7587    1.7540 H   0  0  0  0  0  0  0  0  0  0  0  0
    2.3923   -0.7804    1.4438 H   0  0  0  0  0  0  0  0  0  0  0  0
    1.9986   -0.9610   -2.7490 H   0  0  0  0  0  0  0  0  0  0  0  0
   -2.3904   -1.5114   -2.8833 H   0  0  0  0  0  0  0  0  0  0  0  0
   -3.7270   -2.6252   -3.0361 H   0  0  0  0  0  0  0  0  0  0  0  0
   -2.0833   -3.1867   -3.3908 H   0  0  0  0  0  0  0  0  0  0  0  0
   -3.2094   -4.3766    0.1174 H   0  0  0  0  0  0  0  0  0  0  0  0
   -4.3282   -4.0350   -1.1899 H   0  0  0  0  0  0  0  0  0  0  0  0
   -2.8984   -5.0374   -1.4995 H   0  0  0  0  0  0  0  0  0  0  0  0
   -0.0184    3.1450   -2.4750 H   0  0  0  0  0  0  0  0  0  0  0  0
    0.7230    3.0262    1.6617 H   0  0  0  0  0  0  0  0  0  0  0  0
    4.0328    0.9879    1.2053 H   0  0  0  0  0  0  0  0  0  0  0  0
    3.6161    0.8248   -2.9777 H   0  0  0  0  0  0  0  0  0  0  0  0
    0.7721    4.2250   -0.4493 H   0  0  0  0  0  0  0  0  0  0  0  0
    4.6501    1.7887   -1.0036 H   0  0  0  0  0  0  0  0  0  0  0  0
  1  2  1  0  0  0  0 
  1  3  1  0  0  0  0 
  1  4  1  0  0  0  0 
  2  5  1  0  0  0  0 
  3  6  1  0  0  0  0 
  4  7  1  0  0  0  0 
  5  8  2  0  0  0  0 
  5  9  1  0  0  0  0 
  6 10  2  0  0  0  0 
  6 11  1  0  0  0  0 
  7 12  1  0  0  0  0 
  7 13  1  0  0  0  0 
  8 14  1  0  0  0  0 
  9 15  2  0  0  0  0 
 10 16  1  0  0  0  0 
 11 17  2  0  0  0  0 
 14 18  2  0  0  0  0 
 15 18  1  0  0  0  0 
 16 19  2  0  0  0  0 
 17 19  1  0  0  0  0 
  1 20  1  0  0  0  0 
  4 21  1  0  0  0  0 
  4 22  1  0  0  0  0 
  8 23  1  0  0  0  0 
  9 24  1  0  0  0  0 
 10 25  1  0  0  0  0 
 11 26  1  0  0  0  0 
 12 27  1  0  0  0  0 
 12 28  1  0  0  0  0 
 12 29  1  0  0  0  0 
 13 30  1  0  0  0  0 
 13 31  1  0  0  0  0 
 13 32  1  0  0  0  0 
 14 33  1  0  0  0  0 
 15 34  1  0  0  0  0 
 16 35  1  0  0  0  0 
 17 36  1  0  0  0  0 
 18 37  1  0  0  0  0 
 19 38  1  0  0  0  0 
M  END
> <cdk:Title>
medifoxamine

> <Conformer>
1

> <SuperDrugID>
SD001466

$$$$
