mepitiostane
  CDK     0628171801

 68 73  0  0  0  0  0  0  0  0999 V2000
    0.1594   -4.9954    0.3886 C   0  0  0  0  0  0  0  0  0  0  0  0
    1.7236   -4.7922    0.3928 C   0  0  1  0  0  0  0  0  0  0  0  0
    2.1159   -3.2451    0.3997 C   0  0  2  0  0  0  0  0  0  0  0  0
    2.3978   -5.4835    1.6531 C   0  0  1  0  0  0  0  0  0  0  0  0
    2.3183   -5.4900   -0.8901 C   0  0  2  0  0  0  0  0  0  0  0  0
    1.7309   -2.5486    1.7652 C   0  0  2  0  0  0  0  0  0  0  0  0
    1.6732   -2.4200   -0.8712 C   0  0  1  0  0  0  0  0  0  0  0  0
    2.0847   -4.7668    3.0039 C   0  0  1  0  0  0  0  0  0  0  0  0
    2.0895   -7.0099    1.7752 C   0  0  1  0  0  0  0  0  0  0  0  0
    2.2767   -7.0437   -0.8825 C   0  0  2  0  0  0  0  0  0  0  0  0
    2.0921   -1.0336    1.7212 C   0  0  1  0  0  0  0  0  0  0  0  0
    2.4333   -3.2629    2.9562 C   0  0  1  0  0  0  0  0  0  0  0  0
    1.9342   -0.8828   -0.7766 C   0  0  1  0  0  0  0  0  0  0  0  0
    2.1779   -7.7990    0.4473 C   0  0  1  0  0  0  0  0  0  0  0  0
    3.7971   -7.8607   -0.3391 S   0  0  0  0  0  0  0  0  0  0  0  0
    1.3810   -0.2736    0.5571 C   0  0  1  0  0  0  0  0  0  0  0  0
    1.8301   -0.1712    2.9756 C   0  0  2  0  0  0  0  0  0  0  0  0
   -0.1969   -0.3447    0.5616 C   0  0  0  0  0  0  0  0  0  0  0  0
    1.8365    1.1888    0.8780 C   0  0  2  0  0  0  0  0  0  0  0  0
    1.7420    1.2749    2.4323 C   0  0  1  0  0  0  0  0  0  0  0  0
    1.0673    2.1594    0.1210 O   0  0  0  0  0  0  0  0  0  0  0  0
    1.2627    3.5825    0.3345 C   0  0  1  0  0  0  0  0  0  0  0  0
    0.7219    4.0224    1.6115 O   0  0  0  0  0  0  0  0  0  0  0  0
    2.7393    4.0576    0.2614 C   0  0  2  0  0  0  0  0  0  0  0  0
    0.6424    4.3352   -0.8730 C   0  0  1  0  0  0  0  0  0  0  0  0
   -0.6954    3.8807    1.8324 C   0  0  0  0  0  0  0  0  0  0  0  0
    2.6031    5.6087   -0.1402 C   0  0  2  0  0  0  0  0  0  0  0  0
    1.1310    5.7904   -0.7548 C   0  0  2  0  0  0  0  0  0  0  0  0
    3.2123   -3.2075    0.3538 H   0  0  0  0  0  0  0  0  0  0  0  0
    3.4857   -5.4086    1.5263 H   0  0  0  0  0  0  0  0  0  0  0  0
    0.6576   -2.6246    1.9381 H   0  0  0  0  0  0  0  0  0  0  0  0
    3.1796   -0.9935    1.5613 H   0  0  0  0  0  0  0  0  0  0  0  0
    1.8160   -7.5430   -1.7384 H   0  0  0  0  0  0  0  0  0  0  0  0
    1.6487   -8.7531    0.4003 H   0  0  0  0  0  0  0  0  0  0  0  0
   -0.1113   -6.0497    0.3493 H   0  0  0  0  0  0  0  0  0  0  0  0
   -0.3051   -4.5295   -0.4788 H   0  0  0  0  0  0  0  0  0  0  0  0
   -0.3075   -4.5799    1.2793 H   0  0  0  0  0  0  0  0  0  0  0  0
    3.3551   -5.1733   -1.0413 H   0  0  0  0  0  0  0  0  0  0  0  0
    1.7682   -5.1625   -1.7747 H   0  0  0  0  0  0  0  0  0  0  0  0
    2.2184   -2.7864   -1.7439 H   0  0  0  0  0  0  0  0  0  0  0  0
    0.6171   -2.5672   -1.0852 H   0  0  0  0  0  0  0  0  0  0  0  0
    1.0298   -4.8834    3.2637 H   0  0  0  0  0  0  0  0  0  0  0  0
    2.6699   -5.2236    3.8064 H   0  0  0  0  0  0  0  0  0  0  0  0
    2.7748   -7.4671    2.4945 H   0  0  0  0  0  0  0  0  0  0  0  0
    1.0800   -7.1473    2.1683 H   0  0  0  0  0  0  0  0  0  0  0  0
    3.5173   -3.1477    2.8683 H   0  0  0  0  0  0  0  0  0  0  0  0
    2.1276   -2.8119    3.9035 H   0  0  0  0  0  0  0  0  0  0  0  0
    3.0132   -0.7183   -0.8444 H   0  0  0  0  0  0  0  0  0  0  0  0
    1.4835   -0.3818   -1.6382 H   0  0  0  0  0  0  0  0  0  0  0  0
    2.6384   -0.2684    3.7051 H   0  0  0  0  0  0  0  0  0  0  0  0
    0.8913   -0.4655    3.4573 H   0  0  0  0  0  0  0  0  0  0  0  0
   -0.6203    0.0714    1.4760 H   0  0  0  0  0  0  0  0  0  0  0  0
   -0.5998    0.2218   -0.2803 H   0  0  0  0  0  0  0  0  0  0  0  0
   -0.5735   -1.3608    0.4706 H   0  0  0  0  0  0  0  0  0  0  0  0
    2.8907    1.2947    0.5955 H   0  0  0  0  0  0  0  0  0  0  0  0
    0.7909    1.7020    2.7498 H   0  0  0  0  0  0  0  0  0  0  0  0
    2.5477    1.8933    2.8322 H   0  0  0  0  0  0  0  0  0  0  0  0
    3.2640    3.4066   -0.4915 H   0  0  0  0  0  0  0  0  0  0  0  0
    3.2404    3.8297    1.2397 H   0  0  0  0  0  0  0  0  0  0  0  0
    1.0014    3.9005   -1.8129 H   0  0  0  0  0  0  0  0  0  0  0  0
   -0.4482    4.2788   -0.8830 H   0  0  0  0  0  0  0  0  0  0  0  0
   -0.8790    3.9703    2.9018 H   0  0  0  0  0  0  0  0  0  0  0  0
   -1.0702    2.9101    1.5033 H   0  0  0  0  0  0  0  0  0  0  0  0
   -1.2463    4.6772    1.3277 H   0  0  0  0  0  0  0  0  0  0  0  0
    3.3633    5.8737   -0.8778 H   0  0  0  0  0  0  0  0  0  0  0  0
    2.7176    6.2373    0.7453 H   0  0  0  0  0  0  0  0  0  0  0  0
    0.3887    6.3354   -0.1092 H   0  0  0  0  0  0  0  0  0  0  0  0
    1.0509    6.2688   -1.7654 H   0  0  0  0  0  0  0  0  0  0  0  0
  2  1  1  0  0  0  0 
  3  2  1  0  0  0  0 
  2  4  1  0  0  0  0 
  2  5  1  0  0  0  0 
  6  3  1  0  0  0  0 
  3  7  1  0  0  0  0 
  3 29  1  0  0  0  0 
  4  8  1  0  0  0  0 
  4  9  1  0  0  0  0 
  4 30  1  0  0  0  0 
 10  5  1  0  0  0  0 
 11  6  1  0  0  0  0 
  6 12  1  0  0  0  0 
  6 31  1  0  0  0  0 
  7 13  1  0  0  0  0 
  8 12  1  0  0  0  0 
 14  9  1  0  0  0  0 
 14 10  1  0  0  0  0 
 10 15  1  0  0  0  0 
 11 16  1  0  0  0  0 
 11 17  1  0  0  0  0 
 11 32  1  0  0  0  0 
 16 13  1  0  0  0  0 
 14 15  1  0  0  0  0 
 16 18  1  0  0  0  0 
 16 19  1  0  0  0  0 
 17 20  1  0  0  0  0 
 19 20  1  0  0  0  0 
 19 21  1  0  0  0  0 
 21 22  1  0  0  0  0 
 22 23  1  0  0  0  0 
 22 24  1  0  0  0  0 
 22 25  1  0  0  0  0 
 23 26  1  0  0  0  0 
 24 27  1  0  0  0  0 
 25 28  1  0  0  0  0 
 27 28  1  0  0  0  0 
 10 33  1  0  0  0  0 
 14 34  1  0  0  0  0 
  1 35  1  0  0  0  0 
  1 36  1  0  0  0  0 
  1 37  1  0  0  0  0 
  5 38  1  0  0  0  0 
  5 39  1  0  0  0  0 
  7 40  1  0  0  0  0 
  7 41  1  0  0  0  0 
  8 42  1  0  0  0  0 
  8 43  1  0  0  0  0 
  9 44  1  0  0  0  0 
  9 45  1  0  0  0  0 
 12 46  1  0  0  0  0 
 12 47  1  0  0  0  0 
 13 48  1  0  0  0  0 
 13 49  1  0  0  0  0 
 17 50  1  0  0  0  0 
 17 51  1  0  0  0  0 
 18 52  1  0  0  0  0 
 18 53  1  0  0  0  0 
 18 54  1  0  0  0  0 
 19 55  1  0  0  0  0 
 20 56  1  0  0  0  0 
 20 57  1  0  0  0  0 
 24 58  1  0  0  0  0 
 24 59  1  0  0  0  0 
 25 60  1  0  0  0  0 
 25 61  1  0  0  0  0 
 26 62  1  0  0  0  0 
 26 63  1  0  0  0  0 
 26 64  1  0  0  0  0 
 27 65  1  0  0  0  0 
 27 66  1  0  0  0  0 
 28 67  1  0  0  0  0 
 28 68  1  0  0  0  0 
M  END
> <cdk:Title>
mepitiostane

> <Conformer>
1

> <SuperDrugID>
SD001503

$$$$
