cyclizine
  CDK     0628171802

 42 44  0  0  0  0  0  0  0  0999 V2000
    1.5213   -1.7149   -2.7660 C   0  0  1  0  0  0  0  0  0  0  0  0
    1.1194   -0.5493   -1.8794 N   0  0  1  0  0  0  0  0  0  0  0  0
    2.4035   -1.3342   -3.9267 C   0  0  0  0  0  0  0  0  0  0  0  0
    2.1771   -2.8356   -2.0030 C   0  0  0  0  0  0  0  0  0  0  0  0
    0.4523    0.5893   -2.6097 C   0  0  2  0  0  0  0  0  0  0  0  0
    0.3284   -0.9394   -0.6580 C   0  0  1  0  0  0  0  0  0  0  0  0
    2.2412   -1.9533   -5.1919 C   0  0  0  0  0  0  0  0  0  0  0  0
    3.4129   -0.3441   -3.7978 C   0  0  0  0  0  0  0  0  0  0  0  0
    3.4243   -2.6490   -1.3535 C   0  0  0  0  0  0  0  0  0  0  0  0
    1.5445   -4.0998   -1.8701 C   0  0  0  0  0  0  0  0  0  0  0  0
    0.1588    1.7903   -1.6767 C   0  0  2  0  0  0  0  0  0  0  0  0
    0.0084    0.2686    0.2590 C   0  0  2  0  0  0  0  0  0  0  0  0
    3.0399   -1.5764   -6.2899 C   0  0  0  0  0  0  0  0  0  0  0  0
    4.2008    0.0444   -4.8959 C   0  0  0  0  0  0  0  0  0  0  0  0
    4.0350   -3.6909   -0.6321 C   0  0  0  0  0  0  0  0  0  0  0  0
    2.1414   -5.1371   -1.1271 C   0  0  0  0  0  0  0  0  0  0  0  0
   -0.6628    1.3532   -0.5131 N   0  0  1  0  0  0  0  0  0  0  0  0
    4.0114   -0.5698   -6.1448 C   0  0  0  0  0  0  0  0  0  0  0  0
    3.3919   -4.9352   -0.5172 C   0  0  0  0  0  0  0  0  0  0  0  0
   -1.1282    2.4854    0.3367 C   0  0  0  0  0  0  0  0  0  0  0  0
    0.5784   -2.0894   -3.1852 H   0  0  0  0  0  0  0  0  0  0  0  0
   -0.4834    0.2545   -3.0696 H   0  0  0  0  0  0  0  0  0  0  0  0
    1.0882    0.9749   -3.4077 H   0  0  0  0  0  0  0  0  0  0  0  0
   -0.6068   -1.4281   -0.9506 H   0  0  0  0  0  0  0  0  0  0  0  0
    0.8953   -1.6461   -0.0478 H   0  0  0  0  0  0  0  0  0  0  0  0
    1.5351   -2.6831   -5.3256 H   0  0  0  0  0  0  0  0  0  0  0  0
    3.5766    0.1176   -2.9010 H   0  0  0  0  0  0  0  0  0  0  0  0
    3.9021   -1.7485   -1.3952 H   0  0  0  0  0  0  0  0  0  0  0  0
    0.6348   -4.2752   -2.3046 H   0  0  0  0  0  0  0  0  0  0  0  0
   -0.3824    2.5479   -2.2502 H   0  0  0  0  0  0  0  0  0  0  0  0
    1.0977    2.2409   -1.3376 H   0  0  0  0  0  0  0  0  0  0  0  0
    0.9347    0.6395    0.7087 H   0  0  0  0  0  0  0  0  0  0  0  0
   -0.6450   -0.0722    1.0677 H   0  0  0  0  0  0  0  0  0  0  0  0
    2.9088   -2.0291   -7.1988 H   0  0  0  0  0  0  0  0  0  0  0  0
    4.9068    0.7750   -4.7855 H   0  0  0  0  0  0  0  0  0  0  0  0
    4.9459   -3.5418   -0.1903 H   0  0  0  0  0  0  0  0  0  0  0  0
    1.6669   -6.0389   -1.0293 H   0  0  0  0  0  0  0  0  0  0  0  0
    4.5770   -0.2831   -6.9474 H   0  0  0  0  0  0  0  0  0  0  0  0
    3.8322   -5.6912    0.0123 H   0  0  0  0  0  0  0  0  0  0  0  0
   -0.2865    3.0000    0.8077 H   0  0  0  0  0  0  0  0  0  0  0  0
   -1.8009    2.1221    1.1166 H   0  0  0  0  0  0  0  0  0  0  0  0
   -1.6874    3.2060   -0.2649 H   0  0  0  0  0  0  0  0  0  0  0  0
  1  2  1  0  0  0  0 
  1  3  1  0  0  0  0 
  1  4  1  0  0  0  0 
  2  5  1  0  0  0  0 
  2  6  1  0  0  0  0 
  3  7  2  0  0  0  0 
  3  8  1  0  0  0  0 
  4  9  2  0  0  0  0 
  4 10  1  0  0  0  0 
  5 11  1  0  0  0  0 
  6 12  1  0  0  0  0 
  7 13  1  0  0  0  0 
  8 14  2  0  0  0  0 
  9 15  1  0  0  0  0 
 10 16  2  0  0  0  0 
 11 17  1  0  0  0  0 
 12 17  1  0  0  0  0 
 13 18  2  0  0  0  0 
 14 18  1  0  0  0  0 
 15 19  2  0  0  0  0 
 16 19  1  0  0  0  0 
 17 20  1  0  0  0  0 
  1 21  1  0  0  0  0 
  5 22  1  0  0  0  0 
  5 23  1  0  0  0  0 
  6 24  1  0  0  0  0 
  6 25  1  0  0  0  0 
  7 26  1  0  0  0  0 
  8 27  1  0  0  0  0 
  9 28  1  0  0  0  0 
 10 29  1  0  0  0  0 
 11 30  1  0  0  0  0 
 11 31  1  0  0  0  0 
 12 32  1  0  0  0  0 
 12 33  1  0  0  0  0 
 13 34  1  0  0  0  0 
 14 35  1  0  0  0  0 
 15 36  1  0  0  0  0 
 16 37  1  0  0  0  0 
 18 38  1  0  0  0  0 
 19 39  1  0  0  0  0 
 20 40  1  0  0  0  0 
 20 41  1  0  0  0  0 
 20 42  1  0  0  0  0 
M  END
> <cdk:Title>
cyclizine

> <Conformer>
1

> <SuperDrugID>
SD000658

$$$$
