spirapril
  CDK     0628171801

 61 63  0  0  0  0  0  0  0  0999 V2000
    0.2770    5.0149   -4.6592 C   0  0  0  0  0  0  0  0  0  0  0  0
    0.9828    5.7588   -3.5711 C   0  0  1  0  0  0  0  0  0  0  0  0
   -0.2802    5.7236   -5.5331 O   0  0  0  0  0  0  0  0  0  0  0  0
    0.1800    3.6350   -4.7699 N   0  0  0  0  0  0  0  0  0  0  0  0
    1.5896    7.0347   -4.0515 N   0  0  2  0  0  0  0  0  0  0  0  0
   -0.0033    6.0649   -2.4176 C   0  0  0  0  0  0  0  0  0  0  0  0
    0.7023    2.6855   -3.8284 C   0  0  1  0  0  0  0  0  0  0  0  0
   -0.4654    2.9735   -5.8806 C   0  0  2  0  0  0  0  0  0  0  0  0
    2.7443    6.9413   -4.9894 C   0  0  1  0  0  0  0  0  0  0  0  0
    1.0421    1.4599   -4.6967 C   0  0  2  0  0  0  0  0  0  0  0  0
   -1.9318    3.2021   -5.9114 C   0  0  0  0  0  0  0  0  0  0  0  0
   -0.1033    1.4717   -5.7297 C   0  0  1  0  0  0  0  0  0  0  0  0
    3.1761    8.3536   -5.4766 C   0  0  1  0  0  0  0  0  0  0  0  0
    3.9096    6.2663   -4.3712 C   0  0  0  0  0  0  0  0  0  0  0  0
    1.1437   -0.0986   -3.7419 S   0  0  0  0  0  0  0  0  0  0  0  0
    2.6953    1.6674   -5.4635 S   0  0  0  0  0  0  0  0  0  0  0  0
   -2.5436    3.6867   -7.0154 O   0  0  0  0  0  0  0  0  0  0  0  0
   -2.6367    2.9513   -4.9078 O   0  0  0  0  0  0  0  0  0  0  0  0
    2.0769    9.1621   -6.2154 C   0  0  2  0  0  0  0  0  0  0  0  0
    4.3555    5.0976   -4.9178 O   0  0  0  0  0  0  0  0  0  0  0  0
    4.4606    6.7692   -3.3629 O   0  0  0  0  0  0  0  0  0  0  0  0
    2.7170   -0.7759   -4.3566 C   0  0  2  0  0  0  0  0  0  0  0  0
    3.6521    0.4292   -4.5297 C   0  0  2  0  0  0  0  0  0  0  0  0
    2.5779   10.5138   -6.5925 C   0  0  0  0  0  0  0  0  0  0  0  0
    5.4978    4.3211   -4.5320 C   0  0  1  0  0  0  0  0  0  0  0  0
    2.9651   10.8027   -7.9226 C   0  0  0  0  0  0  0  0  0  0  0  0
    2.6995   11.5315   -5.6144 C   0  0  0  0  0  0  0  0  0  0  0  0
    5.4133    3.7845   -3.0889 C   0  0  0  0  0  0  0  0  0  0  0  0
    3.4418   12.0813   -8.2689 C   0  0  0  0  0  0  0  0  0  0  0  0
    3.1748   12.8101   -5.9624 C   0  0  0  0  0  0  0  0  0  0  0  0
    3.5459   13.0861   -7.2903 C   0  0  0  0  0  0  0  0  0  0  0  0
    1.7896    5.1651   -3.1428 H   0  0  0  0  0  0  0  0  0  0  0  0
    1.9031    7.5557   -3.2313 H   0  0  0  0  0  0  0  0  0  0  0  0
   -0.4112    5.1360   -2.0109 H   0  0  0  0  0  0  0  0  0  0  0  0
   -0.8272    6.6941   -2.7619 H   0  0  0  0  0  0  0  0  0  0  0  0
    0.5142    6.5888   -1.6118 H   0  0  0  0  0  0  0  0  0  0  0  0
    1.5894    3.0120   -3.2862 H   0  0  0  0  0  0  0  0  0  0  0  0
   -0.0778    2.4445   -3.0984 H   0  0  0  0  0  0  0  0  0  0  0  0
   -0.0176    3.3367   -6.8112 H   0  0  0  0  0  0  0  0  0  0  0  0
    2.4369    6.3688   -5.8678 H   0  0  0  0  0  0  0  0  0  0  0  0
   -0.9519    0.9012   -5.3396 H   0  0  0  0  0  0  0  0  0  0  0  0
    0.1905    1.0233   -6.6823 H   0  0  0  0  0  0  0  0  0  0  0  0
    3.5156    8.9322   -4.6122 H   0  0  0  0  0  0  0  0  0  0  0  0
    4.0250    8.2392   -6.1613 H   0  0  0  0  0  0  0  0  0  0  0  0
   -3.5144    3.8299   -7.0183 H   0  0  0  0  0  0  0  0  0  0  0  0
    1.1946    9.2738   -5.5792 H   0  0  0  0  0  0  0  0  0  0  0  0
    1.7630    8.6045   -7.1025 H   0  0  0  0  0  0  0  0  0  0  0  0
    2.5450   -1.2694   -5.3143 H   0  0  0  0  0  0  0  0  0  0  0  0
    3.1256   -1.5010   -3.6545 H   0  0  0  0  0  0  0  0  0  0  0  0
    3.9288    0.8409   -3.5549 H   0  0  0  0  0  0  0  0  0  0  0  0
    4.5543    0.1517   -5.0754 H   0  0  0  0  0  0  0  0  0  0  0  0
    5.5498    3.4740   -5.2190 H   0  0  0  0  0  0  0  0  0  0  0  0
    6.4087    4.9153   -4.6496 H   0  0  0  0  0  0  0  0  0  0  0  0
    2.9096   10.0810   -8.6466 H   0  0  0  0  0  0  0  0  0  0  0  0
    2.4429   11.3459   -4.6406 H   0  0  0  0  0  0  0  0  0  0  0  0
    6.2161    3.0675   -2.9124 H   0  0  0  0  0  0  0  0  0  0  0  0
    5.5160    4.5978   -2.3689 H   0  0  0  0  0  0  0  0  0  0  0  0
    4.4533    3.2897   -2.9359 H   0  0  0  0  0  0  0  0  0  0  0  0
    3.7132   12.2802   -9.2337 H   0  0  0  0  0  0  0  0  0  0  0  0
    3.2498   13.5399   -5.2504 H   0  0  0  0  0  0  0  0  0  0  0  0
    3.8917   14.0153   -7.5433 H   0  0  0  0  0  0  0  0  0  0  0  0
  2  1  1  0  0  0  0 
  1  3  2  0  0  0  0 
  1  4  1  0  0  0  0 
  2  5  1  0  0  0  0 
  2  6  1  0  0  0  0 
  4  7  1  0  0  0  0 
  8  4  1  0  0  0  0 
  9  5  1  0  0  0  0 
  7 10  1  0  0  0  0 
  8 11  1  0  0  0  0 
  8 12  1  0  0  0  0 
  9 13  1  0  0  0  0 
  9 14  1  0  0  0  0 
 10 12  1  0  0  0  0 
 10 15  1  0  0  0  0 
 10 16  1  0  0  0  0 
 11 17  1  0  0  0  0 
 11 18  2  0  0  0  0 
 13 19  1  0  0  0  0 
 14 20  1  0  0  0  0 
 14 21  2  0  0  0  0 
 15 22  1  0  0  0  0 
 16 23  1  0  0  0  0 
 19 24  1  0  0  0  0 
 20 25  1  0  0  0  0 
 22 23  1  0  0  0  0 
 24 26  2  0  0  0  0 
 24 27  1  0  0  0  0 
 25 28  1  0  0  0  0 
 26 29  1  0  0  0  0 
 27 30  2  0  0  0  0 
 29 31  2  0  0  0  0 
 30 31  1  0  0  0  0 
  2 32  1  0  0  0  0 
  5 33  1  0  0  0  0 
  6 34  1  0  0  0  0 
  6 35  1  0  0  0  0 
  6 36  1  0  0  0  0 
  7 37  1  0  0  0  0 
  7 38  1  0  0  0  0 
  8 39  1  0  0  0  0 
  9 40  1  0  0  0  0 
 12 41  1  0  0  0  0 
 12 42  1  0  0  0  0 
 13 43  1  0  0  0  0 
 13 44  1  0  0  0  0 
 17 45  1  0  0  0  0 
 19 46  1  0  0  0  0 
 19 47  1  0  0  0  0 
 22 48  1  0  0  0  0 
 22 49  1  0  0  0  0 
 23 50  1  0  0  0  0 
 23 51  1  0  0  0  0 
 25 52  1  0  0  0  0 
 25 53  1  0  0  0  0 
 26 54  1  0  0  0  0 
 27 55  1  0  0  0  0 
 28 56  1  0  0  0  0 
 28 57  1  0  0  0  0 
 28 58  1  0  0  0  0 
 29 59  1  0  0  0  0 
 30 60  1  0  0  0  0 
 31 61  1  0  0  0  0 
M  END
> <cdk:Title>
spirapril

> <Conformer>
1

> <SuperDrugID>
SD002222

$$$$
