methyl salicylate
  CDK     0628171801

 19 19  0  0  0  0  0  0  0  0999 V2000
   -2.9193    0.8190    1.0549 C   0  0  0  0  0  0  0  0  0  0  0  0
   -4.2116    0.4162    0.6702 C   0  0  0  0  0  0  0  0  0  0  0  0
   -4.3732   -0.5933   -0.2917 C   0  0  0  0  0  0  0  0  0  0  0  0
   -3.2454   -1.2066   -0.8582 C   0  0  0  0  0  0  0  0  0  0  0  0
   -1.9502   -0.8173   -0.4639 C   0  0  0  0  0  0  0  0  0  0  0  0
   -1.7612    0.2155    0.4974 C   0  0  0  0  0  0  0  0  0  0  0  0
   -0.4619    0.6423    0.9067 C   0  0  0  0  0  0  0  0  0  0  0  0
   -0.9135   -1.4840   -1.0323 O   0  0  0  0  0  0  0  0  0  0  0  0
   -0.3135    1.5469    1.7642 O   0  0  0  0  0  0  0  0  0  0  0  0
    0.6565    0.0676    0.3744 O   0  0  0  0  0  0  0  0  0  0  0  0
    2.0206    0.3609    0.6804 C   0  0  0  0  0  0  0  0  0  0  0  0
   -2.8382    1.5635    1.7533 H   0  0  0  0  0  0  0  0  0  0  0  0
   -5.0347    0.8583    1.0880 H   0  0  0  0  0  0  0  0  0  0  0  0
   -5.3105   -0.8850   -0.5769 H   0  0  0  0  0  0  0  0  0  0  0  0
   -3.3713   -1.9396   -1.5590 H   0  0  0  0  0  0  0  0  0  0  0  0
   -1.1715   -2.4296   -0.9987 H   0  0  0  0  0  0  0  0  0  0  0  0
    2.2235    0.1690    1.7358 H   0  0  0  0  0  0  0  0  0  0  0  0
    2.6520   -0.2873    0.0748 H   0  0  0  0  0  0  0  0  0  0  0  0
    2.2495    1.4022    0.4451 H   0  0  0  0  0  0  0  0  0  0  0  0
  1  2  2  0  0  0  0 
  1  6  1  0  0  0  0 
  2  3  1  0  0  0  0 
  3  4  2  0  0  0  0 
  4  5  1  0  0  0  0 
  5  6  2  0  0  0  0 
  6  7  1  0  0  0  0 
  5  8  1  0  0  0  0 
  7  9  2  0  0  0  0 
  7 10  1  0  0  0  0 
 10 11  1  0  0  0  0 
  1 12  1  0  0  0  0 
  2 13  1  0  0  0  0 
  3 14  1  0  0  0  0 
  4 15  1  0  0  0  0 
  8 16  1  0  0  0  0 
 11 17  1  0  0  0  0 
 11 18  1  0  0  0  0 
 11 19  1  0  0  0  0 
M  END
> <cdk:Title>
methyl salicylate

> <Conformer>
1

> <SuperDrugID>
SD003451

$$$$
