gallamine
  CDK     0628171801

 96 96  0  0  0  0  0  0  0  0999 V2000
    3.5008   -3.2568    1.8473 O   0  0  0  0  0  0  0  0  0  0  0  0
    2.3062   -4.0664    1.7444 C   0  0  2  0  0  0  0  0  0  0  0  0
    4.4469   -3.5639    0.8440 C   0  0  0  0  0  0  0  0  0  0  0  0
    1.2556   -3.6170    2.8052 C   0  0  2  0  0  0  0  0  0  0  0  0
    5.5508   -4.3954    1.3075 C   0  0  0  0  0  0  0  0  0  0  0  0
    4.3219   -3.0779   -0.5398 C   0  0  0  0  0  0  0  0  0  0  0  0
   -0.0316   -4.4336    2.9910 N   0  0  2  0  0  0  0  0  0  0  0  0
    5.7069   -4.7039    2.6366 O   0  0  0  0  0  0  0  0  0  0  0  0
    6.4912   -4.8554    0.3531 C   0  0  0  0  0  0  0  0  0  0  0  0
    3.3251   -2.2483   -0.9472 O   0  0  0  0  0  0  0  0  0  0  0  0
    5.3753   -3.5973   -1.4380 C   0  0  0  0  0  0  0  0  0  0  0  0
   -0.8026   -4.5481    1.6713 C   0  0  2  0  0  0  0  0  0  0  0  0
   -0.8755   -3.7130    4.0478 C   0  0  2  0  0  0  0  0  0  0  0  0
    6.5392   -3.7357    3.3187 C   0  0  1  0  0  0  0  0  0  0  0  0
    6.4364   -4.4837   -1.0067 C   0  0  0  0  0  0  0  0  0  0  0  0
    3.6858   -0.8575   -0.8998 C   0  0  1  0  0  0  0  0  0  0  0  0
   -1.3408   -3.2618    0.9872 C   0  0  0  0  0  0  0  0  0  0  0  0
   -2.2453   -4.3142    4.4695 C   0  0  0  0  0  0  0  0  0  0  0  0
    6.6036   -4.0433    4.8431 C   0  0  1  0  0  0  0  0  0  0  0  0
    2.5721    0.0373   -1.5163 C   0  0  2  0  0  0  0  0  0  0  0  0
    7.3769   -3.0914    5.7640 N   0  0  1  0  0  0  0  0  0  0  0  0
    2.1989   -0.0997   -2.9993 N   0  0  2  0  0  0  0  0  0  0  0  0
    7.2845   -3.6671    7.1813 C   0  0  1  0  0  0  0  0  0  0  0  0
    8.8387   -2.9699    5.3182 C   0  0  1  0  0  0  0  0  0  0  0  0
    3.4247    0.1251   -3.8915 C   0  0  2  0  0  0  0  0  0  0  0  0
    1.1201    0.9525   -3.2783 C   0  0  2  0  0  0  0  0  0  0  0  0
    7.9758   -2.9225    8.3557 C   0  0  0  0  0  0  0  0  0  0  0  0
    9.7230   -4.2441    5.2369 C   0  0  0  0  0  0  0  0  0  0  0  0
    4.1623    1.4923   -3.8439 C   0  0  0  0  0  0  0  0  0  0  0  0
    0.4913    1.0410   -4.6955 C   0  0  0  0  0  0  0  0  0  0  0  0
    6.7813   -1.6789    5.7182 C   0  0  1  0  0  0  0  0  0  0  0  0
    5.2830   -1.4606    6.0680 C   0  0  0  0  0  0  0  0  0  0  0  0
    0.2934   -5.8629    3.4392 C   0  0  2  0  0  0  0  0  0  0  0  0
    1.1350   -6.0871    4.7251 C   0  0  0  0  0  0  0  0  0  0  0  0
    1.6658   -1.5010   -3.3157 C   0  0  2  0  0  0  0  0  0  0  0  0
    0.4707   -2.0632   -2.4955 C   0  0  0  0  0  0  0  0  0  0  0  0
    2.5739   -5.1139    1.9029 H   0  0  0  0  0  0  0  0  0  0  0  0
    1.8670   -3.9540    0.7490 H   0  0  0  0  0  0  0  0  0  0  0  0
    1.0025   -2.5827    2.5556 H   0  0  0  0  0  0  0  0  0  0  0  0
    1.7870   -3.5499    3.7580 H   0  0  0  0  0  0  0  0  0  0  0  0
    7.2502   -5.4715    0.6560 H   0  0  0  0  0  0  0  0  0  0  0  0
    5.4440   -3.3692   -2.4831 H   0  0  0  0  0  0  0  0  0  0  0  0
   -1.6694   -5.2032    1.7963 H   0  0  0  0  0  0  0  0  0  0  0  0
   -0.1849   -5.0522    0.9237 H   0  0  0  0  0  0  0  0  0  0  0  0
   -1.0852   -2.6902    3.7216 H   0  0  0  0  0  0  0  0  0  0  0  0
   -0.3017   -3.5975    4.9710 H   0  0  0  0  0  0  0  0  0  0  0  0
    7.5486   -3.7697    2.8997 H   0  0  0  0  0  0  0  0  0  0  0  0
    6.1254   -2.7358    3.1758 H   0  0  0  0  0  0  0  0  0  0  0  0
    7.1373   -4.8226   -1.6713 H   0  0  0  0  0  0  0  0  0  0  0  0
    3.8089   -0.5645    0.1487 H   0  0  0  0  0  0  0  0  0  0  0  0
    4.6323   -0.6636   -1.4131 H   0  0  0  0  0  0  0  0  0  0  0  0
   -1.7896   -3.5211    0.0267 H   0  0  0  0  0  0  0  0  0  0  0  0
   -2.1128   -2.7853    1.5920 H   0  0  0  0  0  0  0  0  0  0  0  0
   -0.5402   -2.5497    0.7963 H   0  0  0  0  0  0  0  0  0  0  0  0
   -2.7260   -3.6536    5.1939 H   0  0  0  0  0  0  0  0  0  0  0  0
   -2.9141   -4.4138    3.6152 H   0  0  0  0  0  0  0  0  0  0  0  0
   -2.1185   -5.2871    4.9430 H   0  0  0  0  0  0  0  0  0  0  0  0
    5.5675   -4.1214    5.1821 H   0  0  0  0  0  0  0  0  0  0  0  0
    7.0053   -5.0569    4.9327 H   0  0  0  0  0  0  0  0  0  0  0  0
    2.8808    1.0659   -1.3106 H   0  0  0  0  0  0  0  0  0  0  0  0
    1.6860   -0.1061   -0.8926 H   0  0  0  0  0  0  0  0  0  0  0  0
    6.2358   -3.7733    7.4715 H   0  0  0  0  0  0  0  0  0  0  0  0
    7.6830   -4.6852    7.1983 H   0  0  0  0  0  0  0  0  0  0  0  0
    8.8895   -2.5093    4.3279 H   0  0  0  0  0  0  0  0  0  0  0  0
    9.3730   -2.2738    5.9692 H   0  0  0  0  0  0  0  0  0  0  0  0
    3.1600   -0.0347   -4.9406 H   0  0  0  0  0  0  0  0  0  0  0  0
    4.1831   -0.6340   -3.6794 H   0  0  0  0  0  0  0  0  0  0  0  0
    1.5053    1.9514   -3.0550 H   0  0  0  0  0  0  0  0  0  0  0  0
    0.2820    0.8184   -2.5893 H   0  0  0  0  0  0  0  0  0  0  0  0
    7.8202   -3.4776    9.2828 H   0  0  0  0  0  0  0  0  0  0  0  0
    9.0499   -2.8423    8.1953 H   0  0  0  0  0  0  0  0  0  0  0  0
    7.5576   -1.9262    8.4938 H   0  0  0  0  0  0  0  0  0  0  0  0
   10.7292   -3.9687    4.9134 H   0  0  0  0  0  0  0  0  0  0  0  0
    9.8085   -4.7292    6.2080 H   0  0  0  0  0  0  0  0  0  0  0  0
    9.3268   -4.9558    4.5133 H   0  0  0  0  0  0  0  0  0  0  0  0
    5.0300    1.4623   -4.5055 H   0  0  0  0  0  0  0  0  0  0  0  0
    3.5162    2.3007   -4.1855 H   0  0  0  0  0  0  0  0  0  0  0  0
    4.5179    1.7185   -2.8393 H   0  0  0  0  0  0  0  0  0  0  0  0
   -0.2031    1.8823   -4.7325 H   0  0  0  0  0  0  0  0  0  0  0  0
    1.2517    1.2024   -5.4575 H   0  0  0  0  0  0  0  0  0  0  0  0
   -0.0690    0.1371   -4.9339 H   0  0  0  0  0  0  0  0  0  0  0  0
    7.3438   -1.0166    6.3800 H   0  0  0  0  0  0  0  0  0  0  0  0
    6.9173   -1.2465    4.7238 H   0  0  0  0  0  0  0  0  0  0  0  0
    5.0504   -0.3950    6.0108 H   0  0  0  0  0  0  0  0  0  0  0  0
    4.6309   -1.9777    5.3647 H   0  0  0  0  0  0  0  0  0  0  0  0
    5.0565   -1.7944    7.0795 H   0  0  0  0  0  0  0  0  0  0  0  0
    0.8214   -6.3948    2.6432 H   0  0  0  0  0  0  0  0  0  0  0  0
   -0.6305   -6.4301    3.5793 H   0  0  0  0  0  0  0  0  0  0  0  0
    1.1987   -7.1562    4.9363 H   0  0  0  0  0  0  0  0  0  0  0  0
    2.1515   -5.7151    4.5979 H   0  0  0  0  0  0  0  0  0  0  0  0
    0.6825   -5.6050    5.5899 H   0  0  0  0  0  0  0  0  0  0  0  0
    2.4685   -2.2365   -3.2249 H   0  0  0  0  0  0  0  0  0  0  0  0
    1.3694   -1.5635   -4.3659 H   0  0  0  0  0  0  0  0  0  0  0  0
    0.2127   -3.0565   -2.8647 H   0  0  0  0  0  0  0  0  0  0  0  0
    0.7251   -2.1623   -1.4416 H   0  0  0  0  0  0  0  0  0  0  0  0
   -0.4132   -1.4345   -2.5913 H   0  0  0  0  0  0  0  0  0  0  0  0
  1  2  1  0  0  0  0 
  1  3  1  0  0  0  0 
  2  4  1  0  0  0  0 
  3  5  2  0  0  0  0 
  3  6  1  0  0  0  0 
  4  7  1  0  0  0  0 
  5  8  1  0  0  0  0 
  5  9  1  0  0  0  0 
  6 10  1  0  0  0  0 
  6 11  2  0  0  0  0 
  7 12  1  0  0  0  0 
  7 13  1  0  0  0  0 
  8 14  1  0  0  0  0 
  9 15  2  0  0  0  0 
 10 16  1  0  0  0  0 
 11 15  1  0  0  0  0 
 12 17  1  0  0  0  0 
 13 18  1  0  0  0  0 
 14 19  1  0  0  0  0 
 16 20  1  0  0  0  0 
 19 21  1  0  0  0  0 
 20 22  1  0  0  0  0 
 21 23  1  0  0  0  0 
 21 24  1  0  0  0  0 
 22 25  1  0  0  0  0 
 22 26  1  0  0  0  0 
 23 27  1  0  0  0  0 
 24 28  1  0  0  0  0 
 25 29  1  0  0  0  0 
 26 30  1  0  0  0  0 
 21 31  1  0  0  0  0 
 31 32  1  0  0  0  0 
  7 33  1  0  0  0  0 
 33 34  1  0  0  0  0 
 22 35  1  0  0  0  0 
 35 36  1  0  0  0  0 
  2 37  1  0  0  0  0 
  2 38  1  0  0  0  0 
  4 39  1  0  0  0  0 
  4 40  1  0  0  0  0 
  9 41  1  0  0  0  0 
 11 42  1  0  0  0  0 
 12 43  1  0  0  0  0 
 12 44  1  0  0  0  0 
 13 45  1  0  0  0  0 
 13 46  1  0  0  0  0 
 14 47  1  0  0  0  0 
 14 48  1  0  0  0  0 
 15 49  1  0  0  0  0 
 16 50  1  0  0  0  0 
 16 51  1  0  0  0  0 
 17 52  1  0  0  0  0 
 17 53  1  0  0  0  0 
 17 54  1  0  0  0  0 
 18 55  1  0  0  0  0 
 18 56  1  0  0  0  0 
 18 57  1  0  0  0  0 
 19 58  1  0  0  0  0 
 19 59  1  0  0  0  0 
 20 60  1  0  0  0  0 
 20 61  1  0  0  0  0 
 23 62  1  0  0  0  0 
 23 63  1  0  0  0  0 
 24 64  1  0  0  0  0 
 24 65  1  0  0  0  0 
 25 66  1  0  0  0  0 
 25 67  1  0  0  0  0 
 26 68  1  0  0  0  0 
 26 69  1  0  0  0  0 
 27 70  1  0  0  0  0 
 27 71  1  0  0  0  0 
 27 72  1  0  0  0  0 
 28 73  1  0  0  0  0 
 28 74  1  0  0  0  0 
 28 75  1  0  0  0  0 
 29 76  1  0  0  0  0 
 29 77  1  0  0  0  0 
 29 78  1  0  0  0  0 
 30 79  1  0  0  0  0 
 30 80  1  0  0  0  0 
 30 81  1  0  0  0  0 
 31 82  1  0  0  0  0 
 31 83  1  0  0  0  0 
 32 84  1  0  0  0  0 
 32 85  1  0  0  0  0 
 32 86  1  0  0  0  0 
 33 87  1  0  0  0  0 
 33 88  1  0  0  0  0 
 34 89  1  0  0  0  0 
 34 90  1  0  0  0  0 
 34 91  1  0  0  0  0 
 35 92  1  0  0  0  0 
 35 93  1  0  0  0  0 
 36 94  1  0  0  0  0 
 36 95  1  0  0  0  0 
 36 96  1  0  0  0  0 
M  CHG  1   7   1
M  CHG  1  21   1
M  CHG  1  22   1
M  END
> <cdk:Title>
gallamine

> <Conformer>
1

> <SuperDrugID>
SD001136

$$$$
