rasagiline
  CDK     0628171801

 26 27  0  0  0  0  0  0  0  0999 V2000
   -1.6777    1.3733   -0.0091 N   0  0  1  0  0  0  0  0  0  0  0  0
   -0.5971    0.4064   -0.2942 C   0  0  1  0  0  0  0  0  0  0  0  0
   -1.5362    2.6764   -0.7033 C   0  0  1  0  0  0  0  0  0  0  0  0
   -0.8412   -0.7536    0.3813 C   0  0  0  0  0  0  0  0  0  0  0  0
   -2.7153    3.5212   -0.4862 C   0  0  0  0  0  0  0  0  0  0  0  0
   -0.3774    3.5603   -0.1589 C   0  0  1  0  0  0  0  0  0  0  0  0
   -1.0621   -1.7735    0.9629 C   0  0  0  0  0  0  0  0  0  0  0  0
   -2.3659    4.8250   -0.1265 C   0  0  0  0  0  0  0  0  0  0  0  0
   -4.0698    3.1648   -0.6456 C   0  0  0  0  0  0  0  0  0  0  0  0
   -0.9189    5.0051   -0.0394 C   0  0  2  0  0  0  0  0  0  0  0  0
   -3.3550    5.8071    0.0751 C   0  0  0  0  0  0  0  0  0  0  0  0
   -5.0672    4.1392   -0.4403 C   0  0  0  0  0  0  0  0  0  0  0  0
   -4.7101    5.4566   -0.0866 C   0  0  0  0  0  0  0  0  0  0  0  0
   -2.5383    0.9499   -0.3658 H   0  0  0  0  0  0  0  0  0  0  0  0
   -0.5604    0.1823   -1.3617 H   0  0  0  0  0  0  0  0  0  0  0  0
    0.3710    0.7965    0.0250 H   0  0  0  0  0  0  0  0  0  0  0  0
   -1.4330    2.5230   -1.7819 H   0  0  0  0  0  0  0  0  0  0  0  0
   -0.0705    3.2137    0.8321 H   0  0  0  0  0  0  0  0  0  0  0  0
    0.4944    3.5185   -0.8162 H   0  0  0  0  0  0  0  0  0  0  0  0
   -1.2351   -2.5630    1.4096 H   0  0  0  0  0  0  0  0  0  0  0  0
   -4.3320    2.2142   -0.9119 H   0  0  0  0  0  0  0  0  0  0  0  0
   -0.5722    5.6298   -0.8639 H   0  0  0  0  0  0  0  0  0  0  0  0
   -0.6321    5.4661    0.9086 H   0  0  0  0  0  0  0  0  0  0  0  0
   -3.0946    6.7618    0.3313 H   0  0  0  0  0  0  0  0  0  0  0  0
   -6.0523    3.8930   -0.5562 H   0  0  0  0  0  0  0  0  0  0  0  0
   -5.4366    6.1623    0.0498 H   0  0  0  0  0  0  0  0  0  0  0  0
  1  2  1  0  0  0  0 
  2  4  1  0  0  0  0 
  3  1  1  0  0  0  0 
  3  5  1  0  0  0  0 
  3  6  1  0  0  0  0 
  4  7  3  0  0  0  0 
  5  8  2  0  0  0  0 
  5  9  1  0  0  0  0 
  6 10  1  0  0  0  0 
  8 10  1  0  0  0  0 
  8 11  1  0  0  0  0 
  9 12  2  0  0  0  0 
 11 13  2  0  0  0  0 
 12 13  1  0  0  0  0 
  1 14  1  0  0  0  0 
  2 15  1  0  0  0  0 
  2 16  1  0  0  0  0 
  3 17  1  0  0  0  0 
  6 18  1  0  0  0  0 
  6 19  1  0  0  0  0 
  7 20  1  0  0  0  0 
  9 21  1  0  0  0  0 
 10 22  1  0  0  0  0 
 10 23  1  0  0  0  0 
 11 24  1  0  0  0  0 
 12 25  1  0  0  0  0 
 13 26  1  0  0  0  0 
M  END
> <cdk:Title>
rasagiline

> <Conformer>
1

> <SuperDrugID>
SD003030

$$$$
