diethylaminoethoxyhexestrol
  CDK     0628171801

 82 83  0  0  0  0  0  0  0  0999 V2000
   11.2468   -2.1361    1.0691 C   0  0  1  0  0  0  0  0  0  0  0  0
   11.0594   -0.5815    1.2997 C   0  0  2  0  0  0  0  0  0  0  0  0
   10.3141   -3.0717    1.9251 C   0  0  1  0  0  0  0  0  0  0  0  0
   11.0708   -2.4983   -0.3820 C   0  0  0  0  0  0  0  0  0  0  0  0
   11.9521    0.2919    0.3453 C   0  0  1  0  0  0  0  0  0  0  0  0
   11.2749   -0.1518    2.7224 C   0  0  0  0  0  0  0  0  0  0  0  0
   10.7803   -3.3717    3.3710 C   0  0  0  0  0  0  0  0  0  0  0  0
    9.8260   -2.3193   -1.0375 C   0  0  0  0  0  0  0  0  0  0  0  0
   12.1475   -3.0362   -1.1290 C   0  0  0  0  0  0  0  0  0  0  0  0
   11.7810    1.8245    0.4885 C   0  0  0  0  0  0  0  0  0  0  0  0
   12.5351   -0.2986    3.3559 C   0  0  0  0  0  0  0  0  0  0  0  0
   10.2285    0.4567    3.4575 C   0  0  0  0  0  0  0  0  0  0  0  0
    9.6495   -2.7108   -2.3763 C   0  0  0  0  0  0  0  0  0  0  0  0
   11.9672   -3.4383   -2.4654 C   0  0  0  0  0  0  0  0  0  0  0  0
   12.7536    0.1770    4.6611 C   0  0  0  0  0  0  0  0  0  0  0  0
   10.4458    0.9399    4.7590 C   0  0  0  0  0  0  0  0  0  0  0  0
   10.7091   -3.3096   -3.0870 C   0  0  0  0  0  0  0  0  0  0  0  0
   11.7143    0.8243    5.3557 C   0  0  0  0  0  0  0  0  0  0  0  0
   10.5260   -3.7762   -4.3653 O   0  0  0  0  0  0  0  0  0  0  0  0
   11.8984    1.3612    6.6001 O   0  0  0  0  0  0  0  0  0  0  0  0
    9.8646   -5.0629   -4.3863 C   0  0  1  0  0  0  0  0  0  0  0  0
   12.6403    2.6009    6.6035 C   0  0  1  0  0  0  0  0  0  0  0  0
    9.7580   -5.6021   -5.8336 C   0  0  1  0  0  0  0  0  0  0  0  0
   12.1747    3.4622    7.8027 C   0  0  2  0  0  0  0  0  0  0  0  0
    8.7343   -6.6949   -6.0226 N   0  0  2  0  0  0  0  0  0  0  0  0
   13.0280    4.6694    8.0704 N   0  0  2  0  0  0  0  0  0  0  0  0
    9.1035   -7.9799   -5.3216 C   0  0  2  0  0  0  0  0  0  0  0  0
    8.3737   -6.9106   -7.4699 C   0  0  2  0  0  0  0  0  0  0  0  0
   12.8050    5.2638    9.4307 C   0  0  1  0  0  0  0  0  0  0  0  0
   13.0983    5.6699    6.9489 C   0  0  1  0  0  0  0  0  0  0  0  0
    7.9428   -8.9856   -5.1149 C   0  0  0  0  0  0  0  0  0  0  0  0
    7.5719   -5.6915   -8.0827 C   0  0  0  0  0  0  0  0  0  0  0  0
   14.0202    6.0817    9.9295 C   0  0  0  0  0  0  0  0  0  0  0  0
   14.4717    5.5948    6.2469 C   0  0  0  0  0  0  0  0  0  0  0  0
   12.2744   -2.3777    1.3572 H   0  0  0  0  0  0  0  0  0  0  0  0
   10.0246   -0.3519    1.0254 H   0  0  0  0  0  0  0  0  0  0  0  0
    9.3019   -2.6581    1.9602 H   0  0  0  0  0  0  0  0  0  0  0  0
   10.2442   -4.0549    1.4452 H   0  0  0  0  0  0  0  0  0  0  0  0
   13.0061    0.0461    0.4939 H   0  0  0  0  0  0  0  0  0  0  0  0
   11.7110    0.0547   -0.6921 H   0  0  0  0  0  0  0  0  0  0  0  0
   11.7822   -3.8071    3.3688 H   0  0  0  0  0  0  0  0  0  0  0  0
   10.7835   -2.4760    3.9857 H   0  0  0  0  0  0  0  0  0  0  0  0
   10.0948   -4.0853    3.8324 H   0  0  0  0  0  0  0  0  0  0  0  0
    9.0303   -1.9135   -0.5397 H   0  0  0  0  0  0  0  0  0  0  0  0
   13.0712   -3.1499   -0.7008 H   0  0  0  0  0  0  0  0  0  0  0  0
   12.1402    2.1706    1.4600 H   0  0  0  0  0  0  0  0  0  0  0  0
   12.3599    2.3312   -0.2863 H   0  0  0  0  0  0  0  0  0  0  0  0
   10.7317    2.1044    0.3774 H   0  0  0  0  0  0  0  0  0  0  0  0
   13.3103   -0.7515    2.8672 H   0  0  0  0  0  0  0  0  0  0  0  0
    9.3003    0.5640    3.0466 H   0  0  0  0  0  0  0  0  0  0  0  0
    8.7418   -2.5787   -2.8283 H   0  0  0  0  0  0  0  0  0  0  0  0
   12.7536   -3.8388   -2.9823 H   0  0  0  0  0  0  0  0  0  0  0  0
   13.6725    0.0679    5.0970 H   0  0  0  0  0  0  0  0  0  0  0  0
    9.6820    1.3888    5.2693 H   0  0  0  0  0  0  0  0  0  0  0  0
   10.4289   -5.7774   -3.7808 H   0  0  0  0  0  0  0  0  0  0  0  0
    8.8518   -4.9709   -3.9820 H   0  0  0  0  0  0  0  0  0  0  0  0
   13.7045    2.3716    6.7038 H   0  0  0  0  0  0  0  0  0  0  0  0
   12.4915    3.1753    5.6825 H   0  0  0  0  0  0  0  0  0  0  0  0
    9.4976   -4.7367   -6.4420 H   0  0  0  0  0  0  0  0  0  0  0  0
   10.7402   -5.9456   -6.1698 H   0  0  0  0  0  0  0  0  0  0  0  0
   12.1774    2.8074    8.6781 H   0  0  0  0  0  0  0  0  0  0  0  0
   11.1400    3.7742    7.6331 H   0  0  0  0  0  0  0  0  0  0  0  0
    9.4717   -7.7679   -4.3172 H   0  0  0  0  0  0  0  0  0  0  0  0
    9.9140   -8.4810   -5.8583 H   0  0  0  0  0  0  0  0  0  0  0  0
    7.5797   -7.7180   -7.4904 H   0  0  0  0  0  0  0  0  0  0  0  0
    9.3695   -7.1761   -8.0182 H   0  0  0  0  0  0  0  0  0  0  0  0
   11.9124    5.8966    9.4247 H   0  0  0  0  0  0  0  0  0  0  0  0
   12.6387    4.4767   10.1730 H   0  0  0  0  0  0  0  0  0  0  0  0
   12.3085    5.5069    6.2110 H   0  0  0  0  0  0  0  0  0  0  0  0
   12.9620    6.6956    7.3009 H   0  0  0  0  0  0  0  0  0  0  0  0
    8.2455   -9.7598   -4.4067 H   0  0  0  0  0  0  0  0  0  0  0  0
    7.6770   -9.4821   -6.0480 H   0  0  0  0  0  0  0  0  0  0  0  0
    7.0642   -8.4759   -4.7171 H   0  0  0  0  0  0  0  0  0  0  0  0
    7.1008   -5.9976   -9.0187 H   0  0  0  0  0  0  0  0  0  0  0  0
    8.2411   -4.8623   -8.3094 H   0  0  0  0  0  0  0  0  0  0  0  0
    6.7958   -5.3536   -7.3928 H   0  0  0  0  0  0  0  0  0  0  0  0
   13.9050    6.3123   10.9900 H   0  0  0  0  0  0  0  0  0  0  0  0
   14.1131    7.0222    9.3846 H   0  0  0  0  0  0  0  0  0  0  0  0
   14.9385    5.5075    9.7966 H   0  0  0  0  0  0  0  0  0  0  0  0
   14.4841    6.2683    5.3897 H   0  0  0  0  0  0  0  0  0  0  0  0
   14.6749    4.5851    5.8907 H   0  0  0  0  0  0  0  0  0  0  0  0
   15.2666    5.8863    6.9359 H   0  0  0  0  0  0  0  0  0  0  0  0
  1  2  1  0  0  0  0 
  1  3  1  0  0  0  0 
  1  4  1  0  0  0  0 
  2  5  1  0  0  0  0 
  2  6  1  0  0  0  0 
  3  7  1  0  0  0  0 
  4  8  2  0  0  0  0 
  4  9  1  0  0  0  0 
  5 10  1  0  0  0  0 
  6 11  2  0  0  0  0 
  6 12  1  0  0  0  0 
  8 13  1  0  0  0  0 
  9 14  2  0  0  0  0 
 11 15  1  0  0  0  0 
 12 16  2  0  0  0  0 
 13 17  2  0  0  0  0 
 14 17  1  0  0  0  0 
 15 18  2  0  0  0  0 
 16 18  1  0  0  0  0 
 17 19  1  0  0  0  0 
 18 20  1  0  0  0  0 
 19 21  1  0  0  0  0 
 20 22  1  0  0  0  0 
 21 23  1  0  0  0  0 
 22 24  1  0  0  0  0 
 23 25  1  0  0  0  0 
 24 26  1  0  0  0  0 
 25 27  1  0  0  0  0 
 25 28  1  0  0  0  0 
 26 29  1  0  0  0  0 
 26 30  1  0  0  0  0 
 27 31  1  0  0  0  0 
 28 32  1  0  0  0  0 
 29 33  1  0  0  0  0 
 30 34  1  0  0  0  0 
  1 35  1  0  0  0  0 
  2 36  1  0  0  0  0 
  3 37  1  0  0  0  0 
  3 38  1  0  0  0  0 
  5 39  1  0  0  0  0 
  5 40  1  0  0  0  0 
  7 41  1  0  0  0  0 
  7 42  1  0  0  0  0 
  7 43  1  0  0  0  0 
  8 44  1  0  0  0  0 
  9 45  1  0  0  0  0 
 10 46  1  0  0  0  0 
 10 47  1  0  0  0  0 
 10 48  1  0  0  0  0 
 11 49  1  0  0  0  0 
 12 50  1  0  0  0  0 
 13 51  1  0  0  0  0 
 14 52  1  0  0  0  0 
 15 53  1  0  0  0  0 
 16 54  1  0  0  0  0 
 21 55  1  0  0  0  0 
 21 56  1  0  0  0  0 
 22 57  1  0  0  0  0 
 22 58  1  0  0  0  0 
 23 59  1  0  0  0  0 
 23 60  1  0  0  0  0 
 24 61  1  0  0  0  0 
 24 62  1  0  0  0  0 
 27 63  1  0  0  0  0 
 27 64  1  0  0  0  0 
 28 65  1  0  0  0  0 
 28 66  1  0  0  0  0 
 29 67  1  0  0  0  0 
 29 68  1  0  0  0  0 
 30 69  1  0  0  0  0 
 30 70  1  0  0  0  0 
 31 71  1  0  0  0  0 
 31 72  1  0  0  0  0 
 31 73  1  0  0  0  0 
 32 74  1  0  0  0  0 
 32 75  1  0  0  0  0 
 32 76  1  0  0  0  0 
 33 77  1  0  0  0  0 
 33 78  1  0  0  0  0 
 33 79  1  0  0  0  0 
 34 80  1  0  0  0  0 
 34 81  1  0  0  0  0 
 34 82  1  0  0  0  0 
M  END
> <cdk:Title>
diethylaminoethoxyhexestrol

> <Conformer>
1

> <SuperDrugID>
SD002831

$$$$
