cefpirome
  CDK     0628171802

 57 61  0  0  0  0  0  0  0  0999 V2000
   -2.4570    1.9930   -3.9663 C   0  0  0  0  0  0  0  0  0  0  0  0
   -1.8341    2.9699   -3.2698 O   0  0  0  0  0  0  0  0  0  0  0  0
   -3.0458    2.3102   -5.0239 O   0  0  0  0  0  0  0  0  0  0  0  0
   -2.4354    0.6727   -3.5414 C   0  0  0  0  0  0  0  0  0  0  0  0
   -1.2280    0.0779   -3.5255 N   0  0  0  0  0  0  0  0  0  0  0  0
   -3.5529   -0.0188   -3.1679 C   0  0  0  0  0  0  0  0  0  0  0  0
   -0.8794   -1.2863   -3.6891 C   0  0  1  0  0  0  0  0  0  0  0  0
    0.0373    0.4684   -3.3029 C   0  0  0  0  0  0  0  0  0  0  0  0
   -4.9049    0.5842   -3.1255 C   0  0  2  0  0  0  0  0  0  0  0  0
   -3.5171   -1.4503   -2.7853 C   0  0  2  0  0  0  0  0  0  0  0  0
    0.5910   -0.8862   -3.3569 C   0  0  1  0  0  0  0  0  0  0  0  0
   -1.8780   -2.1951   -2.4740 S   0  0  0  0  0  0  0  0  0  0  0  0
    0.5777    1.5739   -3.0707 O   0  0  0  0  0  0  0  0  0  0  0  0
   -5.5653    0.4775   -1.8360 N   0  0  0  0  0  0  0  0  0  0  0  0
    1.0610   -1.3614   -2.0957 N   0  0  0  0  0  0  0  0  0  0  0  0
   -5.1101    1.1764   -0.7395 C   0  0  0  0  0  0  0  0  0  0  0  0
   -6.6706   -0.3316   -1.6980 C   0  0  0  0  0  0  0  0  0  0  0  0
    2.1308   -0.8837   -1.4037 C   0  0  0  0  0  0  0  0  0  0  0  0
   -5.7516    1.0815    0.4987 C   0  0  0  0  0  0  0  0  0  0  0  0
   -3.9557    2.0835   -0.6420 C   0  0  1  0  0  0  0  0  0  0  0  0
   -7.3337   -0.4714   -0.4630 C   0  0  0  0  0  0  0  0  0  0  0  0
    2.3116   -1.2234   -0.0596 C   0  0  0  0  0  0  0  0  0  0  0  0
    2.9285   -0.0931   -1.9649 O   0  0  0  0  0  0  0  0  0  0  0  0
   -5.1311    1.8993    1.5390 C   0  0  2  0  0  0  0  0  0  0  0  0
   -6.8696    0.2453    0.6515 C   0  0  0  0  0  0  0  0  0  0  0  0
   -4.0635    2.7108    0.7689 C   0  0  1  0  0  0  0  0  0  0  0  0
    1.3230   -1.5217    0.7151 N   0  0  0  0  0  0  0  0  0  0  0  0
    3.5715   -1.2222    0.5350 C   0  0  0  0  0  0  0  0  0  0  0  0
    0.0723   -1.5703    0.4419 O   0  0  0  0  0  0  0  0  0  0  0  0
    3.7901   -0.9378    1.8976 C   0  0  0  0  0  0  0  0  0  0  0  0
    4.7056   -1.5116   -0.1728 N   0  0  0  0  0  0  0  0  0  0  0  0
   -0.6174   -0.4467    1.0069 C   0  0  0  0  0  0  0  0  0  0  0  0
    5.5142   -1.0882    2.1619 S   0  0  0  0  0  0  0  0  0  0  0  0
    5.8774   -1.5047    0.4986 C   0  0  0  0  0  0  0  0  0  0  0  0
    7.0901   -1.7741    0.0008 N   0  0  0  0  0  0  0  0  0  0  0  0
   -1.0418   -1.6260   -4.7168 H   0  0  0  0  0  0  0  0  0  0  0  0
   -5.4829    0.1033   -3.9201 H   0  0  0  0  0  0  0  0  0  0  0  0
   -4.9189    1.6438   -3.3844 H   0  0  0  0  0  0  0  0  0  0  0  0
   -3.9870   -2.0262   -3.5858 H   0  0  0  0  0  0  0  0  0  0  0  0
   -4.0774   -1.6293   -1.8648 H   0  0  0  0  0  0  0  0  0  0  0  0
    1.2894   -1.0278   -4.1845 H   0  0  0  0  0  0  0  0  0  0  0  0
    0.5411   -2.0620   -1.6716 H   0  0  0  0  0  0  0  0  0  0  0  0
   -7.0371   -0.8603   -2.4943 H   0  0  0  0  0  0  0  0  0  0  0  0
   -3.0248    1.5196   -0.7419 H   0  0  0  0  0  0  0  0  0  0  0  0
   -4.0046    2.8565   -1.4121 H   0  0  0  0  0  0  0  0  0  0  0  0
   -8.1464   -1.0866   -0.3774 H   0  0  0  0  0  0  0  0  0  0  0  0
   -4.6781    1.2507    2.2924 H   0  0  0  0  0  0  0  0  0  0  0  0
   -5.8643    2.5592    2.0104 H   0  0  0  0  0  0  0  0  0  0  0  0
   -7.3382    0.1579    1.5559 H   0  0  0  0  0  0  0  0  0  0  0  0
   -3.1016    2.6828    1.2887 H   0  0  0  0  0  0  0  0  0  0  0  0
   -4.3799    3.7561    0.6798 H   0  0  0  0  0  0  0  0  0  0  0  0
    3.0961   -0.6870    2.6021 H   0  0  0  0  0  0  0  0  0  0  0  0
   -1.6788   -0.5597    0.7904 H   0  0  0  0  0  0  0  0  0  0  0  0
   -0.4889   -0.4069    2.0931 H   0  0  0  0  0  0  0  0  0  0  0  0
   -0.2674    0.4887    0.5588 H   0  0  0  0  0  0  0  0  0  0  0  0
    7.1887   -2.0375   -0.9284 H   0  0  0  0  0  0  0  0  0  0  0  0
    7.8695   -1.7110    0.5751 H   0  0  0  0  0  0  0  0  0  0  0  0
  1  2  1  0  0  0  0 
  1  3  2  0  0  0  0 
  1  4  1  0  0  0  0 
  4  5  1  0  0  0  0 
  4  6  2  0  0  0  0 
  7  5  1  0  0  0  0 
  5  8  1  0  0  0  0 
  6  9  1  0  0  0  0 
  6 10  1  0  0  0  0 
 11  7  1  0  0  0  0 
  7 12  1  0  0  0  0 
  7 36  1  0  0  0  0 
 11  8  1  0  0  0  0 
  8 13  2  0  0  0  0 
  9 14  1  0  0  0  0 
 10 12  1  0  0  0  0 
 11 15  1  0  0  0  0 
 14 16  2  0  0  0  0 
 14 17  1  0  0  0  0 
 15 18  1  0  0  0  0 
 16 19  1  0  0  0  0 
 16 20  1  0  0  0  0 
 17 21  2  0  0  0  0 
 18 22  1  0  0  0  0 
 18 23  2  0  0  0  0 
 19 24  1  0  0  0  0 
 19 25  2  0  0  0  0 
 20 26  1  0  0  0  0 
 21 25  1  0  0  0  0 
 22 27  2  0  0  0  0 
 22 28  1  0  0  0  0 
 24 26  1  0  0  0  0 
 27 29  1  0  0  0  0 
 28 30  2  0  0  0  0 
 28 31  1  0  0  0  0 
 29 32  1  0  0  0  0 
 30 33  1  0  0  0  0 
 31 34  2  0  0  0  0 
 33 34  1  0  0  0  0 
 34 35  1  0  0  0  0 
  9 37  1  0  0  0  0 
  9 38  1  0  0  0  0 
 10 39  1  0  0  0  0 
 10 40  1  0  0  0  0 
 11 41  1  0  0  0  0 
 15 42  1  0  0  0  0 
 17 43  1  0  0  0  0 
 20 44  1  0  0  0  0 
 20 45  1  0  0  0  0 
 21 46  1  0  0  0  0 
 24 47  1  0  0  0  0 
 24 48  1  0  0  0  0 
 25 49  1  0  0  0  0 
 26 50  1  0  0  0  0 
 26 51  1  0  0  0  0 
 30 52  1  0  0  0  0 
 32 53  1  0  0  0  0 
 32 54  1  0  0  0  0 
 32 55  1  0  0  0  0 
 35 56  1  0  0  0  0 
 35 57  1  0  0  0  0 
M  CHG  1   2  -1
M  CHG  1  14   1
M  END
> <cdk:Title>
cefpirome

> <Conformer>
1

> <SuperDrugID>
SD000481

$$$$
