silicon dioxide
  CDK     0628171801

  3  2  0  0  0  0  0  0  0  0999 V2000
    0.0000    0.0000    0.0000 Si  0  0  0  0  0  0  0  0  0  0  0  0
   -1.4878    0.0000    0.0000 O   0  0  0  0  0  0  0  0  0  0  0  0
    1.4878    0.0000    0.0000 O   0  0  0  0  0  0  0  0  0  0  0  0
  1  2  2  0  0  0  0 
  1  3  2  0  0  0  0 
M  END
> <cdk:Title>
silicon dioxide

> <Conformer>
1

> <SuperDrugID>
SD003474

$$$$
