methionine
  CDK     0628171801

 20 19  0  0  0  0  0  0  0  0999 V2000
    1.9405    0.0491   -0.0499 C   0  0  0  0  0  0  0  0  0  0  0  0
    0.6039    0.3586   -1.2420 S   0  0  0  0  0  0  0  0  0  0  0  0
   -0.2477    1.8310   -0.5841 C   0  0  1  0  0  0  0  0  0  0  0  0
   -1.4052    2.2492   -1.5269 C   0  0  1  0  0  0  0  0  0  0  0  0
   -2.2158    3.4765   -1.0229 C   0  0  2  0  0  0  0  0  0  0  0  0
   -3.4034    3.6668   -1.8678 N   0  0  1  0  0  0  0  0  0  0  0  0
   -1.4380    4.7343   -1.0176 C   0  0  0  0  0  0  0  0  0  0  0  0
   -0.9725    5.2642   -2.1725 O   0  0  0  0  0  0  0  0  0  0  0  0
   -1.1981    5.3415    0.0508 O   0  0  0  0  0  0  0  0  0  0  0  0
    2.5143   -0.8168   -0.3780 H   0  0  0  0  0  0  0  0  0  0  0  0
    1.5235   -0.1528    0.9364 H   0  0  0  0  0  0  0  0  0  0  0  0
    2.6002    0.9145    0.0024 H   0  0  0  0  0  0  0  0  0  0  0  0
   -0.6419    1.5966    0.4076 H   0  0  0  0  0  0  0  0  0  0  0  0
    0.4751    2.6450   -0.4928 H   0  0  0  0  0  0  0  0  0  0  0  0
   -1.0030    2.4636   -2.5235 H   0  0  0  0  0  0  0  0  0  0  0  0
   -2.0912    1.4029   -1.6210 H   0  0  0  0  0  0  0  0  0  0  0  0
   -2.5760    3.2655   -0.0123 H   0  0  0  0  0  0  0  0  0  0  0  0
   -3.8923    4.4958   -1.5237 H   0  0  0  0  0  0  0  0  0  0  0  0
   -3.0740    3.8909   -2.8091 H   0  0  0  0  0  0  0  0  0  0  0  0
   -0.4832    6.1118   -2.1562 H   0  0  0  0  0  0  0  0  0  0  0  0
  1  2  1  0  0  0  0 
  2  3  1  0  0  0  0 
  3  4  1  0  0  0  0 
  4  5  1  0  0  0  0 
  5  6  1  0  0  0  0 
  5  7  1  0  0  0  0 
  7  8  1  0  0  0  0 
  7  9  2  0  0  0  0 
  1 10  1  0  0  0  0 
  1 11  1  0  0  0  0 
  1 12  1  0  0  0  0 
  3 13  1  0  0  0  0 
  3 14  1  0  0  0  0 
  4 15  1  0  0  0  0 
  4 16  1  0  0  0  0 
  5 17  1  0  0  0  0 
  6 18  1  0  0  0  0 
  6 19  1  0  0  0  0 
  8 20  1  0  0  0  0 
M  END
> <cdk:Title>
methionine

> <Conformer>
1

> <SuperDrugID>
SD002889

$$$$
