difemerine
  CDK     0628171802

 49 50  0  0  0  0  0  0  0  0999 V2000
   -8.6639    1.3660    3.3825 C   0  0  0  0  0  0  0  0  0  0  0  0
   -8.3665    0.7615    4.7316 C   0  0  2  0  0  0  0  0  0  0  0  0
   -9.1839    2.5550    0.8460 C   0  0  0  0  0  0  0  0  0  0  0  0
   -9.2086    1.1581    0.9848 C   0  0  0  0  0  0  0  0  0  0  0  0
   -8.9408    0.5731    2.2351 C   0  0  0  0  0  0  0  0  0  0  0  0
   -8.6235    2.7737    3.2070 C   0  0  0  0  0  0  0  0  0  0  0  0
   -8.8823    3.3619    1.9558 C   0  0  0  0  0  0  0  0  0  0  0  0
   -6.8866    0.8318    4.9096 C   0  0  0  0  0  0  0  0  0  0  0  0
   -8.9878   -0.6032    4.9170 C   0  0  0  0  0  0  0  0  0  0  0  0
   -8.2366   -1.8027    5.0332 C   0  0  0  0  0  0  0  0  0  0  0  0
   -8.8724   -3.0527    5.1358 C   0  0  0  0  0  0  0  0  0  0  0  0
  -10.2751   -3.1291    5.1434 C   0  0  0  0  0  0  0  0  0  0  0  0
  -11.0432   -1.9578    5.0420 C   0  0  0  0  0  0  0  0  0  0  0  0
  -10.4050   -0.7109    4.9283 C   0  0  0  0  0  0  0  0  0  0  0  0
   -8.9668    1.5762    5.7532 O   0  0  0  0  0  0  0  0  0  0  0  0
   -6.3929    1.4102    5.9062 O   0  0  0  0  0  0  0  0  0  0  0  0
   -6.0692    0.2607    3.9689 O   0  0  0  0  0  0  0  0  0  0  0  0
   -4.6285    0.2355    3.8658 C   0  0  2  0  0  0  0  0  0  0  0  0
   -4.3164   -0.6597    2.6219 C   0  0  2  0  0  0  0  0  0  0  0  0
   -5.0006   -1.9993    2.6981 N   0  0  2  0  0  0  0  0  0  0  0  0
   -4.0916   -3.1408    2.9973 C   0  0  0  0  0  0  0  0  0  0  0  0
   -5.9424   -2.2801    1.5755 C   0  0  0  0  0  0  0  0  0  0  0  0
   -3.9823   -0.3656    5.1539 C   0  0  0  0  0  0  0  0  0  0  0  0
   -4.0971    1.6818    3.6201 C   0  0  0  0  0  0  0  0  0  0  0  0
   -9.3786    2.9813   -0.0627 H   0  0  0  0  0  0  0  0  0  0  0  0
   -9.4173    0.5669    0.1766 H   0  0  0  0  0  0  0  0  0  0  0  0
   -8.9520   -0.4465    2.2941 H   0  0  0  0  0  0  0  0  0  0  0  0
   -8.3984    3.3867    3.9938 H   0  0  0  0  0  0  0  0  0  0  0  0
   -8.8470    4.3771    1.8519 H   0  0  0  0  0  0  0  0  0  0  0  0
   -7.2170   -1.7886    5.0304 H   0  0  0  0  0  0  0  0  0  0  0  0
   -8.3123   -3.9054    5.1990 H   0  0  0  0  0  0  0  0  0  0  0  0
  -10.7368   -4.0373    5.2191 H   0  0  0  0  0  0  0  0  0  0  0  0
  -12.0641   -2.0113    5.0433 H   0  0  0  0  0  0  0  0  0  0  0  0
  -10.9893    0.1257    4.8390 H   0  0  0  0  0  0  0  0  0  0  0  0
   -8.7364    1.1474    6.6065 H   0  0  0  0  0  0  0  0  0  0  0  0
   -3.2311   -0.7759    2.5181 H   0  0  0  0  0  0  0  0  0  0  0  0
   -4.6427   -0.1187    1.7271 H   0  0  0  0  0  0  0  0  0  0  0  0
   -3.4177   -3.3302    2.1585 H   0  0  0  0  0  0  0  0  0  0  0  0
   -3.4862   -2.9301    3.8792 H   0  0  0  0  0  0  0  0  0  0  0  0
   -4.6711   -4.0441    3.2063 H   0  0  0  0  0  0  0  0  0  0  0  0
   -6.7264   -1.5217    1.5539 H   0  0  0  0  0  0  0  0  0  0  0  0
   -5.4211   -2.2713    0.6160 H   0  0  0  0  0  0  0  0  0  0  0  0
   -6.4252   -3.2506    1.6964 H   0  0  0  0  0  0  0  0  0  0  0  0
   -2.9141   -0.5359    5.0083 H   0  0  0  0  0  0  0  0  0  0  0  0
   -4.4589   -1.3102    5.4202 H   0  0  0  0  0  0  0  0  0  0  0  0
   -4.0895    0.3108    6.0005 H   0  0  0  0  0  0  0  0  0  0  0  0
   -4.5854    2.1259    2.7486 H   0  0  0  0  0  0  0  0  0  0  0  0
   -4.2960    2.3220    4.4807 H   0  0  0  0  0  0  0  0  0  0  0  0
   -3.0183    1.6681    3.4496 H   0  0  0  0  0  0  0  0  0  0  0  0
  1  2  1  0  0  0  0 
  5  1  2  0  0  0  0 
  1  6  1  0  0  0  0 
  3  4  2  0  0  0  0 
  4  5  1  0  0  0  0 
  6  7  2  0  0  0  0 
  3  7  1  0  0  0  0 
  2  8  1  0  0  0  0 
  2  9  1  0  0  0  0 
 14  9  2  0  0  0  0 
 10  9  1  0  0  0  0 
 10 11  2  0  0  0  0 
 11 12  1  0  0  0  0 
 12 13  2  0  0  0  0 
 13 14  1  0  0  0  0 
  2 15  1  0  0  0  0 
  8 16  2  0  0  0  0 
  8 17  1  0  0  0  0 
 17 18  1  0  0  0  0 
 18 19  1  0  0  0  0 
 19 20  1  0  0  0  0 
 20 21  1  0  0  0  0 
 20 22  1  0  0  0  0 
 18 23  1  0  0  0  0 
 18 24  1  0  0  0  0 
  3 25  1  0  0  0  0 
  4 26  1  0  0  0  0 
  5 27  1  0  0  0  0 
  6 28  1  0  0  0  0 
  7 29  1  0  0  0  0 
 10 30  1  0  0  0  0 
 11 31  1  0  0  0  0 
 12 32  1  0  0  0  0 
 13 33  1  0  0  0  0 
 14 34  1  0  0  0  0 
 15 35  1  0  0  0  0 
 19 36  1  0  0  0  0 
 19 37  1  0  0  0  0 
 21 38  1  0  0  0  0 
 21 39  1  0  0  0  0 
 21 40  1  0  0  0  0 
 22 41  1  0  0  0  0 
 22 42  1  0  0  0  0 
 22 43  1  0  0  0  0 
 23 44  1  0  0  0  0 
 23 45  1  0  0  0  0 
 23 46  1  0  0  0  0 
 24 47  1  0  0  0  0 
 24 48  1  0  0  0  0 
 24 49  1  0  0  0  0 
M  END
> <cdk:Title>
difemerine

> <Conformer>
1

> <SuperDrugID>
SD000780

$$$$
