finafloxacin
  CDK     0628171802

 48 52  0  0  0  0  0  0  0  0999 V2000
    1.8347    5.0196    5.0420 N   0  0  0  0  0  0  0  0  0  0  0  0
    1.5042    4.9494    3.6916 C   0  0  0  0  0  0  0  0  0  0  0  0
    0.9010    6.1065    3.0978 C   0  0  0  0  0  0  0  0  0  0  0  0
    0.7739    7.3079    3.8426 C   0  0  0  0  0  0  0  0  0  0  0  0
    1.2379    7.3856    5.1751 C   0  0  0  0  0  0  0  0  0  0  0  0
    1.7941    6.2112    5.7189 C   0  0  0  0  0  0  0  0  0  0  0  0
    1.7277    3.8175    2.8313 C   0  0  0  0  0  0  0  0  0  0  0  0
    1.2002    3.7747    1.5079 C   0  0  0  0  0  0  0  0  0  0  0  0
    0.5555    4.9105    0.9860 C   0  0  0  0  0  0  0  0  0  0  0  0
    0.4275    6.0624    1.7650 C   0  0  0  0  0  0  0  0  0  0  0  0
    0.2566    8.3215    3.3105 O   0  0  0  0  0  0  0  0  0  0  0  0
    2.2259    3.8832    5.8544 C   0  0  1  0  0  0  0  0  0  0  0  0
    1.4892    3.6356    7.1949 C   0  0  2  0  0  0  0  0  0  0  0  0
    1.2420    2.7037    6.0121 C   0  0  1  0  0  0  0  0  0  0  0  0
    1.1355    8.5630    5.9802 C   0  0  0  0  0  0  0  0  0  0  0  0
    1.4905    8.5639    7.2888 O   0  0  0  0  0  0  0  0  0  0  0  0
    0.6953    9.6514    5.5443 O   0  0  0  0  0  0  0  0  0  0  0  0
    2.4843    2.8074    3.1796 C   0  0  0  0  0  0  0  0  0  0  0  0
    3.1631    1.9233    3.4600 N   0  0  0  0  0  0  0  0  0  0  0  0
    0.0619    4.9236   -0.2272 F   0  0  0  0  0  0  0  0  0  0  0  0
    1.2553    2.6607    0.7029 N   0  0  0  0  0  0  0  0  0  0  0  0
    2.1490    2.5254   -0.4173 C   0  0  1  0  0  0  0  0  0  0  0  0
    1.8693    1.0870   -0.8909 C   0  0  1  0  0  0  0  0  0  0  0  0
    0.3858    0.9192   -0.5185 C   0  0  2  0  0  0  0  0  0  0  0  0
    0.3388    1.5684    0.8710 C   0  0  1  0  0  0  0  0  0  0  0  0
    0.0117   -0.4707   -0.6260 O   0  0  0  0  0  0  0  0  0  0  0  0
    0.1693   -0.9553   -1.9877 C   0  0  2  0  0  0  0  0  0  0  0  0
    1.5945   -0.6741   -2.5556 C   0  0  2  0  0  0  0  0  0  0  0  0
    2.0065    0.7415   -2.3266 N   0  0  2  0  0  0  0  0  0  0  0  0
   -0.2461    1.5236   -1.1852 H   0  0  0  0  0  0  0  0  0  0  0  0
    2.4947    0.4111   -0.2921 H   0  0  0  0  0  0  0  0  0  0  0  0
    2.1624    6.2545    6.6749 H   0  0  0  0  0  0  0  0  0  0  0  0
   -0.0294    6.8742    1.3418 H   0  0  0  0  0  0  0  0  0  0  0  0
    3.2828    3.6097    5.8744 H   0  0  0  0  0  0  0  0  0  0  0  0
    0.6385    4.2734    7.4421 H   0  0  0  0  0  0  0  0  0  0  0  0
    2.0802    3.2083    8.0073 H   0  0  0  0  0  0  0  0  0  0  0  0
    0.2661    2.8055    5.5356 H   0  0  0  0  0  0  0  0  0  0  0  0
    1.6878    1.7117    6.1057 H   0  0  0  0  0  0  0  0  0  0  0  0
    1.3963    9.3741    7.8316 H   0  0  0  0  0  0  0  0  0  0  0  0
    1.9022    3.2402   -1.2045 H   0  0  0  0  0  0  0  0  0  0  0  0
    3.1937    2.6538   -0.1186 H   0  0  0  0  0  0  0  0  0  0  0  0
    0.6901    0.8773    1.6445 H   0  0  0  0  0  0  0  0  0  0  0  0
   -0.6784    1.9003    1.1056 H   0  0  0  0  0  0  0  0  0  0  0  0
   -0.5772   -0.4915   -2.6382 H   0  0  0  0  0  0  0  0  0  0  0  0
   -0.0147   -2.0316   -1.9888 H   0  0  0  0  0  0  0  0  0  0  0  0
    1.6069   -0.8858   -3.6256 H   0  0  0  0  0  0  0  0  0  0  0  0
    2.3161   -1.3424   -2.0754 H   0  0  0  0  0  0  0  0  0  0  0  0
    2.9934    0.8185   -2.5797 H   0  0  0  0  0  0  0  0  0  0  0  0
  1  2  1  0  0  0  0 
  1  6  1  0  0  0  0 
  2  3  1  0  0  0  0 
  3  4  1  0  0  0  0 
  4  5  1  0  0  0  0 
  5  6  2  0  0  0  0 
  7  8  1  0  0  0  0 
  8  9  2  0  0  0  0 
  9 10  1  0  0  0  0 
  7  2  2  0  0  0  0 
 10  3  2  0  0  0  0 
  4 11  2  0  0  0  0 
  1 12  1  0  0  0  0 
 13 14  1  0  0  0  0 
 12 13  1  0  0  0  0 
 14 12  1  0  0  0  0 
  5 15  1  0  0  0  0 
 15 16  1  0  0  0  0 
 15 17  2  0  0  0  0 
  7 18  1  0  0  0  0 
 18 19  3  0  0  0  0 
  9 20  1  0  0  0  0 
  8 21  1  0  0  0  0 
 22 23  1  0  0  0  0 
 23 24  1  0  0  0  0 
 24 25  1  0  0  0  0 
 21 22  1  0  0  0  0 
 21 25  1  0  0  0  0 
 26 27  1  0  0  0  0 
 27 28  1  0  0  0  0 
 28 29  1  0  0  0  0 
 23 29  1  0  0  0  0 
 24 26  1  0  0  0  0 
 24 30  1  0  0  0  0 
 23 31  1  0  0  0  0 
  6 32  1  0  0  0  0 
 10 33  1  0  0  0  0 
 12 34  1  0  0  0  0 
 13 35  1  0  0  0  0 
 13 36  1  0  0  0  0 
 14 37  1  0  0  0  0 
 14 38  1  0  0  0  0 
 16 39  1  0  0  0  0 
 22 40  1  0  0  0  0 
 22 41  1  0  0  0  0 
 25 42  1  0  0  0  0 
 25 43  1  0  0  0  0 
 27 44  1  0  0  0  0 
 27 45  1  0  0  0  0 
 28 46  1  0  0  0  0 
 28 47  1  0  0  0  0 
 29 48  1  0  0  0  0 
M  END
> <cdk:Title>
finafloxacin

> <Conformer>
1

> <SuperDrugID>
SD003849

$$$$
