pentagestrone
  CDK     0628171801

 67 71  0  0  0  0  0  0  0  0999 V2000
   11.0985    1.3239   -0.7248 C   0  0  0  0  0  0  0  0  0  0  0  0
   11.2877   -0.0669   -1.4486 C   0  0  2  0  0  0  0  0  0  0  0  0
   10.2145   -1.1454   -1.0831 C   0  0  2  0  0  0  0  0  0  0  0  0
   12.5885   -0.7821   -0.9043 C   0  0  2  0  0  0  0  0  0  0  0  0
   11.1714    0.1375   -3.0027 C   0  0  2  0  0  0  0  0  0  0  0  0
    8.7509   -0.6942   -1.3808 C   0  0  1  0  0  0  0  0  0  0  0  0
   10.5671   -1.5716    0.3554 C   0  0  2  0  0  0  0  0  0  0  0  0
   13.8390    0.0454   -0.7874 C   0  0  0  0  0  0  0  0  0  0  0  0
   12.9496   -1.8633   -1.7771 O   0  0  0  0  0  0  0  0  0  0  0  0
   12.1076   -1.4195    0.4506 C   0  0  2  0  0  0  0  0  0  0  0  0
    9.7343    0.5352   -3.4735 C   0  0  2  0  0  0  0  0  0  0  0  0
    8.5796   -0.3714   -2.9081 C   0  0  2  0  0  0  0  0  0  0  0  0
    7.6940   -1.7477   -0.9309 C   0  0  2  0  0  0  0  0  0  0  0  0
   14.5080    0.6653   -1.9530 C   0  0  0  0  0  0  0  0  0  0  0  0
   14.4094    0.1873    0.3216 O   0  0  0  0  0  0  0  0  0  0  0  0
    7.0896    0.1127   -3.1991 C   0  0  2  0  0  0  0  0  0  0  0  0
    6.4054   -1.6691   -1.5959 C   0  0  0  0  0  0  0  0  0  0  0  0
    6.7790    1.5270   -2.5777 C   0  0  0  0  0  0  0  0  0  0  0  0
    6.1001   -0.8577   -2.6365 C   0  0  0  0  0  0  0  0  0  0  0  0
    6.8689    0.1899   -4.7586 C   0  0  1  0  0  0  0  0  0  0  0  0
    4.8311   -0.9430   -3.1773 C   0  0  0  0  0  0  0  0  0  0  0  0
    5.3813    0.4019   -5.1590 C   0  0  1  0  0  0  0  0  0  0  0  0
    4.4568   -0.3708   -4.3383 C   0  0  0  0  0  0  0  0  0  0  0  0
    3.1978   -0.5655   -4.7725 O   0  0  0  0  0  0  0  0  0  0  0  0
    2.2411    0.4698   -4.4415 C   0  0  1  0  0  0  0  0  0  0  0  0
    0.8587    0.0971   -5.0191 C   0  0  2  0  0  0  0  0  0  0  0  0
    1.9434    0.6405   -2.9341 C   0  0  2  0  0  0  0  0  0  0  0  0
   -0.1954    0.7936   -4.1286 C   0  0  2  0  0  0  0  0  0  0  0  0
    0.5521    1.2946   -2.8745 C   0  0  2  0  0  0  0  0  0  0  0  0
    8.5646    0.2050   -0.7963 H   0  0  0  0  0  0  0  0  0  0  0  0
    8.7040   -1.3303   -3.4285 H   0  0  0  0  0  0  0  0  0  0  0  0
   10.3791   -2.0402   -1.7015 H   0  0  0  0  0  0  0  0  0  0  0  0
   11.9064    2.0048   -0.9915 H   0  0  0  0  0  0  0  0  0  0  0  0
   11.0868    1.2273    0.3599 H   0  0  0  0  0  0  0  0  0  0  0  0
   10.1727    1.8210   -0.9992 H   0  0  0  0  0  0  0  0  0  0  0  0
   11.4509   -0.7826   -3.5232 H   0  0  0  0  0  0  0  0  0  0  0  0
   11.8689    0.9095   -3.3318 H   0  0  0  0  0  0  0  0  0  0  0  0
   10.2589   -2.6024    0.5495 H   0  0  0  0  0  0  0  0  0  0  0  0
   10.0614   -0.9242    1.0788 H   0  0  0  0  0  0  0  0  0  0  0  0
   13.7205   -2.2970   -1.3531 H   0  0  0  0  0  0  0  0  0  0  0  0
   12.2939   -0.6886    1.3025 H   0  0  0  0  0  0  0  0  0  0  0  0
   12.5655   -2.4564    0.5534 H   0  0  0  0  0  0  0  0  0  0  0  0
    9.7283    0.4866   -4.5659 H   0  0  0  0  0  0  0  0  0  0  0  0
    9.5605    1.5761   -3.2074 H   0  0  0  0  0  0  0  0  0  0  0  0
    7.5272   -1.6394    0.1452 H   0  0  0  0  0  0  0  0  0  0  0  0
    8.0754   -2.7574   -1.1052 H   0  0  0  0  0  0  0  0  0  0  0  0
   15.5228    0.9899   -1.7012 H   0  0  0  0  0  0  0  0  0  0  0  0
   13.9481    1.5372   -2.2898 H   0  0  0  0  0  0  0  0  0  0  0  0
   14.5766   -0.0506   -2.7724 H   0  0  0  0  0  0  0  0  0  0  0  0
    5.7138   -2.2942   -1.2393 H   0  0  0  0  0  0  0  0  0  0  0  0
    5.7323    1.8056   -2.7166 H   0  0  0  0  0  0  0  0  0  0  0  0
    6.9640    1.5602   -1.5045 H   0  0  0  0  0  0  0  0  0  0  0  0
    7.3805    2.3054   -3.0482 H   0  0  0  0  0  0  0  0  0  0  0  0
    7.4642    0.9964   -5.1967 H   0  0  0  0  0  0  0  0  0  0  0  0
    7.2047   -0.7463   -5.2174 H   0  0  0  0  0  0  0  0  0  0  0  0
    4.1312   -1.4634   -2.6966 H   0  0  0  0  0  0  0  0  0  0  0  0
    5.1247    1.4611   -5.0757 H   0  0  0  0  0  0  0  0  0  0  0  0
    5.2630    0.1161   -6.2074 H   0  0  0  0  0  0  0  0  0  0  0  0
    2.5525    1.4314   -4.8687 H   0  0  0  0  0  0  0  0  0  0  0  0
    0.7158   -0.9871   -4.9691 H   0  0  0  0  0  0  0  0  0  0  0  0
    0.7719    0.4100   -6.0627 H   0  0  0  0  0  0  0  0  0  0  0  0
    2.6979    1.2618   -2.4443 H   0  0  0  0  0  0  0  0  0  0  0  0
    1.9107   -0.3364   -2.4421 H   0  0  0  0  0  0  0  0  0  0  0  0
   -0.9827    0.0867   -3.8495 H   0  0  0  0  0  0  0  0  0  0  0  0
   -0.6574    1.6324   -4.6570 H   0  0  0  0  0  0  0  0  0  0  0  0
    0.6524    2.3838   -2.9056 H   0  0  0  0  0  0  0  0  0  0  0  0
    0.0269    1.0155   -1.9572 H   0  0  0  0  0  0  0  0  0  0  0  0
  2  1  1  0  0  0  0 
  3  2  1  0  0  0  0 
  2  4  1  0  0  0  0 
  2  5  1  0  0  0  0 
  6  3  1  0  0  0  0 
  3  7  1  0  0  0  0 
  3 32  1  0  0  0  0 
  4  8  1  0  0  0  0 
  4  9  1  0  0  0  0 
  4 10  1  0  0  0  0 
  5 11  1  0  0  0  0 
 12  6  1  0  0  0  0 
  6 13  1  0  0  0  0 
  6 30  1  0  0  0  0 
  7 10  1  0  0  0  0 
  8 14  1  0  0  0  0 
  8 15  2  0  0  0  0 
 12 11  1  0  0  0  0 
 12 16  1  0  0  0  0 
 12 31  1  0  0  0  0 
 13 17  1  0  0  0  0 
 16 18  1  0  0  0  0 
 16 19  1  0  0  0  0 
 16 20  1  0  0  0  0 
 17 19  2  0  0  0  0 
 19 21  1  0  0  0  0 
 20 22  1  0  0  0  0 
 21 23  2  0  0  0  0 
 22 23  1  0  0  0  0 
 23 24  1  0  0  0  0 
 24 25  1  0  0  0  0 
 25 26  1  0  0  0  0 
 25 27  1  0  0  0  0 
 26 28  1  0  0  0  0 
 27 29  1  0  0  0  0 
 28 29  1  0  0  0  0 
  1 33  1  0  0  0  0 
  1 34  1  0  0  0  0 
  1 35  1  0  0  0  0 
  5 36  1  0  0  0  0 
  5 37  1  0  0  0  0 
  7 38  1  0  0  0  0 
  7 39  1  0  0  0  0 
  9 40  1  0  0  0  0 
 10 41  1  0  0  0  0 
 10 42  1  0  0  0  0 
 11 43  1  0  0  0  0 
 11 44  1  0  0  0  0 
 13 45  1  0  0  0  0 
 13 46  1  0  0  0  0 
 14 47  1  0  0  0  0 
 14 48  1  0  0  0  0 
 14 49  1  0  0  0  0 
 17 50  1  0  0  0  0 
 18 51  1  0  0  0  0 
 18 52  1  0  0  0  0 
 18 53  1  0  0  0  0 
 20 54  1  0  0  0  0 
 20 55  1  0  0  0  0 
 21 56  1  0  0  0  0 
 22 57  1  0  0  0  0 
 22 58  1  0  0  0  0 
 25 59  1  0  0  0  0 
 26 60  1  0  0  0  0 
 26 61  1  0  0  0  0 
 27 62  1  0  0  0  0 
 27 63  1  0  0  0  0 
 28 64  1  0  0  0  0 
 28 65  1  0  0  0  0 
 29 66  1  0  0  0  0 
 29 67  1  0  0  0  0 
M  END
> <cdk:Title>
pentagestrone

> <Conformer>
1

> <SuperDrugID>
SD002948

$$$$
