esflurbiprofen
  CDK     0628171802

 31 32  0  0  0  0  0  0  0  0999 V2000
    1.9630   -0.8584   -4.7393 C   0  0  0  0  0  0  0  0  0  0  0  0
    2.2354   -1.6379   -5.8789 C   0  0  0  0  0  0  0  0  0  0  0  0
    3.3695   -2.4699   -5.9112 C   0  0  0  0  0  0  0  0  0  0  0  0
    4.2404   -2.5105   -4.8068 C   0  0  0  0  0  0  0  0  0  0  0  0
    3.9744   -1.7270   -3.6680 C   0  0  0  0  0  0  0  0  0  0  0  0
    2.8262   -0.9000   -3.6186 C   0  0  0  0  0  0  0  0  0  0  0  0
    2.5463   -0.1232   -2.4641 C   0  0  0  0  0  0  0  0  0  0  0  0
    3.4784    0.8418   -2.0229 C   0  0  0  0  0  0  0  0  0  0  0  0
    3.2272    1.6139   -0.8751 C   0  0  0  0  0  0  0  0  0  0  0  0
    2.0402    1.4437   -0.1236 C   0  0  0  0  0  0  0  0  0  0  0  0
    1.1022    0.4878   -0.5819 C   0  0  0  0  0  0  0  0  0  0  0  0
    1.3462   -0.2868   -1.7313 C   0  0  0  0  0  0  0  0  0  0  0  0
    0.4452   -1.1677   -2.0799 F   0  0  0  0  0  0  0  0  0  0  0  0
    1.8023    2.2303    1.1310 C   0  0  2  0  0  0  0  0  0  0  0  0
    1.6579    1.3191    2.3807 C   0  0  0  0  0  0  0  0  0  0  0  0
    0.6469    3.1542    1.0243 C   0  0  0  0  0  0  0  0  0  0  0  0
    0.8013    4.4740    1.2766 O   0  0  0  0  0  0  0  0  0  0  0  0
   -0.5068    2.7533    0.7491 O   0  0  0  0  0  0  0  0  0  0  0  0
    1.1345   -0.2563   -4.7370 H   0  0  0  0  0  0  0  0  0  0  0  0
    1.6083   -1.5990   -6.6855 H   0  0  0  0  0  0  0  0  0  0  0  0
    3.5604   -3.0448   -6.7372 H   0  0  0  0  0  0  0  0  0  0  0  0
    5.0670   -3.1124   -4.8324 H   0  0  0  0  0  0  0  0  0  0  0  0
    4.6210   -1.7723   -2.8746 H   0  0  0  0  0  0  0  0  0  0  0  0
    4.3505    0.9936   -2.5374 H   0  0  0  0  0  0  0  0  0  0  0  0
    3.9265    2.3041   -0.5928 H   0  0  0  0  0  0  0  0  0  0  0  0
    0.2289    0.3414   -0.0712 H   0  0  0  0  0  0  0  0  0  0  0  0
    2.6827    2.8523    1.3290 H   0  0  0  0  0  0  0  0  0  0  0  0
    1.5599    1.9290    3.2816 H   0  0  0  0  0  0  0  0  0  0  0  0
    0.7822    0.6694    2.3135 H   0  0  0  0  0  0  0  0  0  0  0  0
    2.5471    0.6955    2.4916 H   0  0  0  0  0  0  0  0  0  0  0  0
    0.0244    5.0721    1.2421 H   0  0  0  0  0  0  0  0  0  0  0  0
  1  2  2  0  0  0  0 
  1  6  1  0  0  0  0 
  2  3  1  0  0  0  0 
  3  4  2  0  0  0  0 
  4  5  1  0  0  0  0 
  5  6  2  0  0  0  0 
  6  7  1  0  0  0  0 
  8  9  1  0  0  0  0 
  9 10  2  0  0  0  0 
 10 11  1  0  0  0  0 
 11 12  2  0  0  0  0 
  7  8  2  0  0  0  0 
  7 12  1  0  0  0  0 
 12 13  1  0  0  0  0 
 10 14  1  0  0  0  0 
 14 15  1  0  0  0  0 
 14 16  1  0  0  0  0 
 16 17  1  0  0  0  0 
 16 18  2  0  0  0  0 
  1 19  1  0  0  0  0 
  2 20  1  0  0  0  0 
  3 21  1  0  0  0  0 
  4 22  1  0  0  0  0 
  5 23  1  0  0  0  0 
  8 24  1  0  0  0  0 
  9 25  1  0  0  0  0 
 11 26  1  0  0  0  0 
 14 27  1  0  0  0  0 
 15 28  1  0  0  0  0 
 15 29  1  0  0  0  0 
 15 30  1  0  0  0  0 
 17 31  1  0  0  0  0 
M  END
> <cdk:Title>
esflurbiprofen

> <Conformer>
1

> <SuperDrugID>
SD003892

$$$$
